@<TRIPOS>MOLECULE
tmp/3u6tA01.pdb
 132 126 0 0 0
SMALL
GASTEIGER

@<TRIPOS>ATOM
      1  N         -5.9220   28.6910   12.7090 N.3    69  VAL69      -0.1231
      2  CA        -4.9680   27.6810   12.2090 C.3    69  VAL69       0.1692
      3  C         -5.4760   26.2260   12.2490 C.2    69  VAL69       0.2592
      4  O         -4.8630   25.3240   11.6650 O.2    69  VAL69      -0.2718
      5  CB        -3.4650   28.0270   12.5140 C.3    69  VAL69       0.0266
      6  CG1       -2.5730   27.5410   11.3780 C.3    69  VAL69       0.0020
      7  CG2       -3.2530   29.5310   12.7110 C.3    69  VAL69       0.0020
      8  N         -6.6490   26.1420   12.7970 N.am   70  TYR70      -0.1962
      9  CA        -7.1040   24.7990   13.1510 C.3    70  TYR70       0.1771
     10  C         -7.3960   23.9820   11.8960 C.2    70  TYR70       0.2619
     11  O         -8.1640   24.4100   11.0350 O.2    70  TYR70      -0.2715
     12  CB        -8.3450   24.8180   14.0600 C.3    70  TYR70       0.0574
     13  CG        -8.1980   25.4780   15.4240 C.ar   70  TYR70      -0.0198
     14  CD1       -9.3290   25.8900   16.1330 C.ar   70  TYR70      -0.0009
     15  CD2       -6.9490   25.6920   16.0060 C.ar   70  TYR70      -0.0009
     16  CE1       -9.2180   26.5000   17.3850 C.ar   70  TYR70       0.0417
     17  CE2       -6.8290   26.3020   17.2580 C.ar   70  TYR70       0.0417
     18  CZ        -7.9660   26.7020   17.9370 C.ar   70  TYR70       0.1957
     19  OH        -7.8540   27.3010   19.1730 O.3    70  TYR70      -0.2866
     20  N         -6.7960   22.7990   11.8110 N.am   71  ILE71      -0.1963
     21  CA        -7.0720   21.8740   10.7180 C.3    71  ILE71       0.1727
     22  C         -8.3500   21.1010   11.0230 C.2    71  ILE71       0.2616
     23  O         -8.4220   20.3710   12.0110 O.2    71  ILE71      -0.2715
     24  CB        -5.9150   20.8820   10.5090 C.3    71  ILE71       0.0290
     25  CG1       -4.6770   21.6090    9.9800 C.3    71  ILE71       0.0022
     26  CG2       -6.3320   19.7700    9.5600 C.3    71  ILE71       0.0023
     27  CD1       -3.3960   20.8160   10.1190 C.3    71  ILE71       0.0001
     28  N         -9.3590   21.2710   10.1750 N.am   72  MET72      -0.1977
     29  CA       -10.6650   20.6650   10.4100 C.3    72  MET72       0.1605
     30  C        -10.8160   19.2840    9.7750 C.2    72  MET72       0.2287
     31  O        -11.5100   18.4220   10.3120 O.2    72  MET72      -0.2864
     32  CB       -11.7780   21.5910    9.9150 C.3    72  MET72       0.0413
     33  CG       -11.6550   23.0260   10.4020 C.3    72  MET72       0.0598
     34  SD       -12.3790   23.2700   12.0350 S.3    72  MET72      -0.1393
     35  CE       -10.9690   22.9320   13.0850 C.3    72  MET72       0.0692
     36  N        -12.9010   15.9950   11.5980 N.3    83  PHE83      -0.1241
     37  CA       -12.9710   15.7630   13.0340 C.3    83  PHE83       0.1605
     38  C        -14.4180   15.7510   13.5090 C.2    83  PHE83       0.2264
     39  O        -15.2900   16.3760   12.9030 O.2    83  PHE83      -0.2867
     40  CB       -12.1620   16.8160   13.7970 C.3    83  PHE83       0.0534
     41  CG       -10.6720   16.6390   13.6810 C.ar   83  PHE83      -0.0203
     42  CD1      -10.0630   15.4620   14.1140 C.ar   83  PHE83      -0.0042
     43  CD2       -9.8750   17.6480   13.1470 C.ar   83  PHE83      -0.0042
     44  CE1       -8.6860   15.2910   14.0130 C.ar   83  PHE83      -0.0003
     45  CE2       -8.4920   17.4870   13.0430 C.ar   83  PHE83      -0.0003
     46  CZ        -7.8970   16.3080   13.4770 C.ar   83  PHE83      -0.0000
     47  N        -16.4880   17.2990   15.4670 N.3    85  GLU85      -0.1245
     48  CA       -16.6800   18.5060   16.3340 C.3    85  GLU85       0.1567
     49  C        -17.4750   19.5170   15.5350 C.2    85  GLU85       0.2260
     50  O        -17.4730   19.4800   14.3090 O.2    85  GLU85      -0.2867
     51  CB       -15.3440   19.0740   16.8430 C.3    85  GLU85       0.0388
     52  CG       -14.5380   19.6070   15.6380 C.3    85  GLU85       0.1160
     53  CD       -13.0460   19.9150   15.7930 C.2    85  GLU85       0.3649
     54  OE1      -12.3830   19.4200   16.7090 O.co2  85  GLU85      -0.2457
     55  OE2      -12.5020   20.6470   14.8990 O.co2  85  GLU85      -0.2457
     56  N        -17.2800   22.6670   14.6010 N.3    87  ALA87      -0.1245
     57  CA       -16.5080   23.5070   13.6810 C.3    87  ALA87       0.1562
     58  C        -16.0830   22.7590   12.4170 C.2    87  ALA87       0.2260
     59  O        -16.0430   23.3420   11.3300 O.2    87  ALA87      -0.2867
     60  CB       -15.2960   24.0950   14.3850 C.3    87  ALA87       0.0290
     61  N        -12.5470   14.3430   18.1670 N.3   108  SER108     -0.1202
     62  CA       -12.3560   15.7470   17.8310 C.3   108  SER108      0.2020
     63  C        -10.8750   16.0070   17.5500 C.2   108  SER108      0.2619
     64  O        -10.0410   15.1010   17.6530 O.2   108  SER108     -0.2717
     65  CB       -12.8480   16.6450   18.9660 C.3   108  SER108      0.2103
     66  OG       -11.9850   16.5590   20.0850 O.3   108  SER108     -0.2182
     67  N        -10.5570   17.2510   17.2070 N.am  109  GLY109     -0.1942
     68  CA        -9.2000   17.6260   16.8380 C.3   109  GLY109      0.2014
     69  C         -8.2980   18.0600   17.9760 C.2   109  GLY109      0.2639
     70  O         -7.1320   18.3730   17.7460 O.2   109  GLY109     -0.2714
     71  N         -8.8350   18.0460   19.1760 N.am  110  ASN110     -0.1958
     72  CA        -8.1860   18.3490   20.4240 C.3   110  ASN110      0.1819
     73  C         -7.0660   17.3480   20.7960 C.2   110  ASN110      0.2621
     74  O         -7.1950   16.1910   20.6100 O.2   110  ASN110     -0.2715
     75  CB        -9.3280   18.3160   21.4540 C.3   110  ASN110      0.1195
     76  CG        -8.8720   18.3920   22.8110 C.2   110  ASN110      0.2630
     77  OD1       -8.8140   19.4660   23.3950 O.2   110  ASN110     -0.2716
     78  ND2       -8.5400   17.2910   23.3590 N.am  110  ASN110     -0.0877
     79  N         -5.9600   17.7920   21.3290 N.am  111  TYR111     -0.1974
     80  CA        -4.9870   16.8420   21.8520 C.3   111  TYR111      0.1639
     81  C         -5.6120   15.9480   22.9180 C.2   111  TYR111      0.2290
     82  O         -5.4480   14.7280   22.8930 O.2   111  TYR111     -0.2864
     83  CB        -3.7750   17.5780   22.4280 C.3   111  TYR111      0.0560
     84  CG        -2.8270   18.1110   21.3790 C.ar  111  TYR111     -0.0198
     85  CD1       -2.4600   17.3340   20.2870 C.ar  111  TYR111     -0.0009
     86  CD2       -2.2970   19.3910   21.4790 C.ar  111  TYR111     -0.0009
     87  CE1       -1.5930   17.8170   19.3250 C.ar  111  TYR111      0.0417
     88  CE2       -1.4290   19.8820   20.5220 C.ar  111  TYR111      0.0417
     89  CZ        -1.0810   19.0910   19.4470 C.ar  111  TYR111      0.1957
     90  OH        -0.2170   19.5760   18.4920 O.3   111  TYR111     -0.2866
     91  N         -0.4020   18.2830   12.5980 N.3   155  ILE155     -0.1245
     92  CA        -0.7360   19.5260   13.2980 C.3   155  ILE155      0.1561
     93  C          0.5200   20.2740   13.7610 C.2   155  ILE155      0.2260
     94  O          0.6480   21.4870   13.5540 O.2   155  ILE155     -0.2867
     95  CB        -1.6710   19.2490   14.5010 C.3   155  ILE155      0.0252
     96  CG1       -3.0560   18.8080   14.0060 C.3   155  ILE155      0.0019
     97  CG2       -1.7760   20.4750   15.4000 C.3   155  ILE155      0.0019
     98  CD1       -3.9190   18.1540   15.0660 C.3   155  ILE155      0.0001
     99  N          0.6880   23.6740   11.3780 N.3   159  ALA159     -0.1231
    100  CA         0.1120   24.7230   12.2090 C.3   159  ALA159      0.1694
    101  C          1.0210   25.2280   13.3140 C.2   159  ALA159      0.2591
    102  O          1.2200   26.3950   13.3880 O.2   159  ALA159     -0.2718
    103  CB        -1.2210   24.3360   12.7610 C.3   159  ALA159      0.0304
    104  N          1.5670   24.3470   14.1450 N.am  160  GLU160     -0.1979
    105  CA         2.3760   24.8100   15.2820 C.3   160  GLU160      0.1602
    106  C          3.6630   25.5260   14.8090 C.2   160  GLU160      0.2287
    107  O          4.0630   26.5830   15.3820 O.2   160  GLU160     -0.2864
    108  CB         2.7270   23.6790   16.3260 C.3   160  GLU160      0.0415
    109  CG         1.5110   23.0390   16.9740 C.3   160  GLU160      0.1163
    110  CD         0.6980   23.9080   17.9660 C.2   160  GLU160      0.3649
    111  OE1        0.8970   25.1240   18.0440 O.co2 160  GLU160     -0.2457
    112  OE2       -0.1420   23.3420   18.7030 O.co2 160  GLU160     -0.2457
    113  N          2.8410   29.0310   13.7720 N.3   163  ARG163     -0.1245
    114  CA         2.6200   29.9070   14.9190 C.3   163  ARG163      0.1563
    115  C          3.9040   30.3170   15.6440 C.2   163  ARG163      0.2260
    116  O          4.0140   31.4430   16.1300 O.2   163  ARG163     -0.2867
    117  CB         1.6510   29.2540   15.9080 C.3   163  ARG163      0.0307
    118  CG         0.2200   29.1610   15.4060 C.3   163  ARG163      0.0489
    119  CD        -0.7320   28.7610   16.5210 C.3   163  ARG163      0.2205
    120  NE        -1.9450   28.1320   16.0070 N.pl3 163  ARG163     -0.0865
    121  CZ        -2.5600   27.1080   16.5890 C.cat 163  ARG163      0.5346
    122  NH1       -1.8950   26.3190   17.4230 N.pl3 163  ARG163      0.1354
    123  NH2       -3.8400   26.8710   16.3390 N.pl3 163  ARG163      0.1354
    124  N          3.0030   25.0580   22.3320 N.3   189  GLU189     -0.1245
    125  CA         1.7520   24.5660   21.7540 C.3   189  GLU189      0.1567
    126  C          0.5960   24.7700   22.7220 C.2   189  GLU189      0.2260
    127  O         -0.4560   25.2920   22.3480 O.2   189  GLU189     -0.2867
    128  CB         1.8690   23.0840   21.3880 C.3   189  GLU189      0.0388
    129  CG         2.9030   22.7940   20.3130 C.3   189  GLU189      0.1160
    130  CD         3.1500   21.3110   20.1080 C.2   189  GLU189      0.3649
    131  OE1        2.6210   20.4890   20.8880 O.co2 189  GLU189     -0.2457
    132  OE2        3.8860   20.9700   19.1620 O.co2 189  GLU189     -0.2457
@<TRIPOS>BOND
     1    26    24    1
     2    30    31    2
     3    30    29    1
     4    32    33    1
     5    32    29    1
     6    25    27    1
     7    25    24    1
     8    28    29    1
     9    28    22   am
    10    33    34    1
    11    24    21    1
    12    21    22    1
    13    21    20    1
    14    22    23    2
    15    11    10    2
    16    59    58    2
    17    99   100    1
    18     6     5    1
    19    36    37    1
    20     4     3    2
    21    20    10   am
    22    10     9    1
    23    34    35    1
    24   100   103    1
    25   100   101    1
    26     2     3    1
    27     2     5    1
    28     2     1    1
    29     3     8   am
    30    58    57    1
    31     5     7    1
    32    91    92    1
    33     8     9    1
    34    39    38    2
    35    37    38    1
    36    37    40    1
    37    45    43   ar
    38    45    46   ar
    39    43    41   ar
    40     9    12    1
    41    92    93    1
    42    92    95    1
    43   101   102    2
    44   101   104   am
    45    46    44   ar
    46    94    93    2
    47    57    60    1
    48    57    56    1
    49    41    40    1
    50    41    42   ar
    51   113   114    1
    52    96    95    1
    53    96    98    1
    54    44    42   ar
    55    12    13    1
    56   104   105    1
    57    50    49    2
    58    95    97    1
    59   106   105    1
    60   106   107    2
    61    55    53   ar
    62   114   115    1
    63   114   117    1
    64   105   108    1
    65   118   117    1
    66   118   119    1
    67    13    15   ar
    68    13    14   ar
    69    47    48    1
    70    49    48    1
    71    52    53    1
    72    52    51    1
    73   115   116    2
    74    53    54   ar
    75    15    17   ar
    76   120   119    1
    77   120   121    2
    78    14    16   ar
    79   108   109    1
    80    48    51    1
    81   123   121    1
    82   121   122    1
    83    68    67    1
    84    68    69    1
    85   109   110    1
    86    67    63   am
    87    17    18   ar
    88    16    18   ar
    89    63    64    2
    90    63    62    1
    91    70    69    2
    92    62    61    1
    93    62    65    1
    94    18    19    1
    95   110   111   ar
    96   110   112   ar
    97    69    71   am
    98    90    89    1
    99    65    66    1
   100   132   130   ar
   101    71    72    1
   102    87    89   ar
   103    87    85   ar
   104    89    88   ar
   105   130   129    1
   106   130   131   ar
   107    85    84   ar
   108   129   128    1
   109    72    73    1
   110    72    75    1
   111    88    86   ar
   112    74    73    2
   113    73    79   am
   114    79    80    1
   115    84    86   ar
   116    84    83    1
   117   128   125    1
   118    75    76    1
   119   125   124    1
   120   125   126    1
   121    80    83    1
   122    80    81    1
   123   127   126    2
   124    76    78   am
   125    76    77    2
   126    82    81    2
