@<TRIPOS>MOLECULE
tmp/3u6zA01.pdb
 104 100 0 0 0
SMALL
GASTEIGER

@<TRIPOS>ATOM
      1  N        -21.9130  -19.5170  -13.9520 N.3    69  VAL69      -0.1231
      2  CA       -21.5540  -18.1940  -14.4630 C.3    69  VAL69       0.1692
      3  C        -20.1390  -17.7870  -14.0740 C.2    69  VAL69       0.2592
      4  O        -19.8250  -16.6060  -13.9850 O.2    69  VAL69      -0.2718
      5  CB       -22.5400  -17.0860  -14.0400 C.3    69  VAL69       0.0266
      6  CG1      -22.6210  -16.0270  -15.1260 C.3    69  VAL69       0.0020
      7  CG2      -23.9130  -17.6650  -13.7470 C.3    69  VAL69       0.0020
      8  N        -19.2830  -18.7730  -13.8770 N.am   70  TYR70      -0.1962
      9  CA       -17.8950  -18.4850  -13.4450 C.3    70  TYR70       0.1771
     10  C        -16.9900  -18.2660  -14.6310 C.2    70  TYR70       0.2619
     11  O        -16.9310  -19.0890  -15.5420 O.2    70  TYR70      -0.2715
     12  CB       -17.3470  -19.5660  -12.5210 C.3    70  TYR70       0.0574
     13  CG       -17.4760  -19.1770  -11.0730 C.ar   70  TYR70      -0.0198
     14  CD1      -18.7390  -19.1510  -10.4550 C.ar   70  TYR70      -0.0009
     15  CD2      -16.3680  -18.7810  -10.3330 C.ar   70  TYR70      -0.0009
     16  CE1      -18.9000  -18.7740   -9.1320 C.ar   70  TYR70       0.0417
     17  CE2      -16.5090  -18.3870   -8.9970 C.ar   70  TYR70       0.0417
     18  CZ       -17.7790  -18.3950   -8.4060 C.ar   70  TYR70       0.1957
     19  OH       -17.9580  -18.0130   -7.1000 O.3    70  TYR70      -0.2866
     20  N        -16.3000  -17.1220  -14.6380 N.am   71  ILE71      -0.1977
     21  CA       -15.3290  -16.8800  -15.6880 C.3    71  ILE71       0.1596
     22  C        -14.1310  -17.7590  -15.4060 C.2    71  ILE71       0.2287
     23  O        -13.6130  -17.7270  -14.2880 O.2    71  ILE71      -0.2864
     24  CB       -14.9110  -15.4010  -15.6950 C.3    71  ILE71       0.0276
     25  CG1      -16.1040  -14.5560  -16.1880 C.3    71  ILE71       0.0022
     26  CG2      -13.6820  -15.1940  -16.5730 C.3    71  ILE71       0.0022
     27  CD1      -15.8580  -13.0510  -16.1670 C.3    71  ILE71       0.0001
     28  N         -7.3510  -19.1320  -15.0210 N.3    83  PHE83      -0.1241
     29  CA        -7.0890  -19.1230  -13.5930 C.3    83  PHE83       0.1605
     30  C         -6.3510  -20.3660  -13.1280 C.2    83  PHE83       0.2264
     31  O         -6.4660  -21.4230  -13.7400 O.2    83  PHE83      -0.2867
     32  CB        -8.3840  -18.9560  -12.8030 C.3    83  PHE83       0.0534
     33  CG        -8.9620  -17.5740  -12.9080 C.ar   83  PHE83      -0.0203
     34  CD1       -8.2060  -16.4720  -12.4850 C.ar   83  PHE83      -0.0042
     35  CD2      -10.2330  -17.3640  -13.4400 C.ar   83  PHE83      -0.0042
     36  CE1       -8.7310  -15.1770  -12.5780 C.ar   83  PHE83      -0.0003
     37  CE2      -10.7770  -16.0900  -13.5240 C.ar   83  PHE83      -0.0003
     38  CZ       -10.0150  -14.9850  -13.1020 C.ar   83  PHE83      -0.0000
     39  N         -6.5700  -22.9720  -11.0330 N.3    85  GLU85      -0.1245
     40  CA        -7.5390  -23.7630  -10.2600 C.3    85  GLU85       0.1567
     41  C         -8.0110  -24.9210  -11.1490 C.2    85  GLU85       0.2260
     42  O         -8.0720  -24.8190  -12.3760 O.2    85  GLU85      -0.2867
     43  CB        -8.7260  -22.8900   -9.7870 C.3    85  GLU85       0.0388
     44  CG        -9.5030  -22.3310  -10.9760 C.3    85  GLU85       0.1160
     45  CD       -10.5630  -21.2590  -10.6840 C.2    85  GLU85       0.3649
     46  OE1      -10.5610  -20.5940   -9.6310 O.co2  85  GLU85      -0.2457
     47  OE2      -11.4210  -21.0710  -11.5880 O.co2  85  GLU85      -0.2457
     48  N         -9.5020  -17.8020   -9.3650 N.3   109  GLY109     -0.1210
     49  CA       -10.4710  -16.7950   -9.8120 C.3   109  GLY109      0.1956
     50  C        -11.4560  -16.3140   -8.7830 C.2   109  GLY109      0.2612
     51  O        -12.3730  -15.5750   -9.1220 O.2   109  GLY109     -0.2717
     52  N        -11.2560  -16.6800   -7.5250 N.am  110  ASN110     -0.1960
     53  CA       -12.1740  -16.1870   -6.5140 C.3   110  ASN110      0.1819
     54  C        -11.7980  -14.7980   -6.0360 C.2   110  ASN110      0.2621
     55  O        -10.6660  -14.3340   -6.2340 O.2   110  ASN110     -0.2715
     56  CB       -12.3050  -17.1600   -5.3600 C.3   110  ASN110      0.1195
     57  CG       -11.0030  -17.3600   -4.6050 C.2   110  ASN110      0.2630
     58  OD1      -10.4690  -16.4380   -3.9910 O.2   110  ASN110     -0.2716
     59  ND2      -10.5130  -18.5800   -4.6170 N.am  110  ASN110     -0.0877
     60  N        -12.7550  -14.1230   -5.4160 N.am  111  TYR111     -0.1974
     61  CA       -12.5460  -12.7290   -5.0630 C.3   111  TYR111      0.1639
     62  C        -11.4070  -12.5630   -4.0610 C.2   111  TYR111      0.2290
     63  O        -10.6460  -11.5920   -4.1370 O.2   111  TYR111     -0.2864
     64  CB       -13.8220  -12.2140   -4.4920 C.3   111  TYR111      0.0560
     65  CG       -14.8610  -11.8020   -5.5280 C.ar  111  TYR111     -0.0198
     66  CD1      -14.4900  -11.2160   -6.7410 C.ar  111  TYR111     -0.0009
     67  CD2      -16.2360  -11.9330   -5.2560 C.ar  111  TYR111     -0.0009
     68  CE1      -15.4490  -10.7730   -7.6490 C.ar  111  TYR111      0.0417
     69  CE2      -17.1890  -11.4890   -6.1640 C.ar  111  TYR111      0.0417
     70  CZ       -16.8060  -10.9100   -7.3380 C.ar  111  TYR111      0.1957
     71  OH       -17.7680  -10.4730   -8.2090 O.3   111  TYR111     -0.2866
     72  N        -15.5670   -9.4080  -13.9680 N.3   155  ILE155     -0.1245
     73  CA       -16.4840  -10.3500  -13.2980 C.3   155  ILE155      0.1561
     74  C        -17.7490   -9.6140  -12.8160 C.2   155  ILE155      0.2260
     75  O        -18.8750  -10.1060  -13.0380 O.2   155  ILE155     -0.2867
     76  CB       -15.7910  -11.0280  -12.1110 C.3   155  ILE155      0.0252
     77  CG1      -14.7640  -12.0250  -12.6260 C.3   155  ILE155      0.0019
     78  CG2      -16.8200  -11.7530  -11.2170 C.3   155  ILE155      0.0019
     79  CD1      -13.7030  -12.3100  -11.5890 C.3   155  ILE155      0.0001
     80  N        -20.7440  -11.3150  -15.1490 N.3   159  ALA159     -0.1231
     81  CA       -21.3540  -12.3820  -14.3310 C.3   159  ALA159      0.1694
     82  C        -22.2610  -11.8460  -13.2170 C.2   159  ALA159      0.2591
     83  O        -23.4160  -12.2990  -13.0760 O.2   159  ALA159     -0.2718
     84  CB       -20.2790  -13.3170  -13.7720 C.3   159  ALA159      0.0304
     85  N        -21.7980  -10.8610  -12.4350 N.am  160  GLU160     -0.1979
     86  CA       -22.6020  -10.3910  -11.3140 C.3   160  GLU160      0.1602
     87  C        -23.8830   -9.6520  -11.7600 C.2   160  GLU160      0.2287
     88  O        -24.9650   -9.7950  -11.1220 O.2   160  GLU160     -0.2864
     89  CB       -21.7750   -9.5090  -10.3270 C.3   160  GLU160      0.0415
     90  CG       -20.5530  -10.2240   -9.7520 C.3   160  GLU160      0.1163
     91  CD       -20.8740  -11.3360   -8.7340 C.2   160  GLU160      0.3649
     92  OE1      -21.9880  -11.9250   -8.7730 O.co2 160  GLU160     -0.2457
     93  OE2      -19.9950  -11.6450   -7.8820 O.co2 160  GLU160     -0.2457
     94  N        -26.3680  -12.1450  -12.7430 N.3   163  ARG163     -0.1245
     95  CA       -27.0150  -12.7860  -11.5810 C.3   163  ARG163      0.1563
     96  C        -28.0650  -11.9340  -10.8720 C.2   163  ARG163      0.2260
     97  O        -29.0250  -12.4640  -10.3010 O.2   163  ARG163     -0.2867
     98  CB       -25.9620  -13.1980  -10.5590 C.3   163  ARG163      0.0307
     99  CG       -25.0370  -14.3090  -11.0360 C.3   163  ARG163      0.0489
    100  CD       -23.8160  -14.3980  -10.1310 C.3   163  ARG163      0.2205
    101  NE       -22.9640  -15.5340  -10.4800 N.pl3 163  ARG163     -0.0865
    102  CZ       -21.6310  -15.4890  -10.4220 C.cat 163  ARG163      0.5346
    103  NH1      -21.0300  -14.3550  -10.0600 N.pl3 163  ARG163      0.1354
    104  NH2      -20.9030  -16.5460  -10.7500 N.pl3 163  ARG163      0.1354
@<TRIPOS>BOND
     1    26    24    1
     2    25    27    1
     3    25    24    1
     4    24    21    1
     5    21    22    1
     6    21    20    1
     7    11    10    2
     8    22    23    2
     9    80    81    1
    10     6     5    1
    11    28    29    1
    12    20    10   am
    13    10     9    1
    14     2     3    1
    15     2     5    1
    16     2     1    1
    17    81    84    1
    18    81    82    1
    19     3     4    2
    20     3     8   am
    21     5     7    1
    22    72    73    1
    23     8     9    1
    24    31    30    2
    25    29    30    1
    26    29    32    1
    27    37    35   ar
    28    37    38   ar
    29     9    12    1
    30    35    33   ar
    31    73    74    1
    32    73    76    1
    33    82    83    2
    34    82    85   am
    35    38    36   ar
    36    75    74    2
    37    33    32    1
    38    33    34   ar
    39    94    95    1
    40    77    76    1
    41    77    79    1
    42    36    34   ar
    43    12    13    1
    44    85    86    1
    45    42    41    2
    46    76    78    1
    47    87    86    1
    48    87    88    2
    49    47    45   ar
    50    95    96    1
    51    95    98    1
    52    86    89    1
    53    41    40    1
    54    13    14   ar
    55    13    15   ar
    56    99    98    1
    57    99   100    1
    58    39    40    1
    59    44    45    1
    60    44    43    1
    61    96    97    2
    62   104   102    1
    63    45    46   ar
    64   101   102    2
    65   101   100    1
    66    14    16   ar
    67   102   103    1
    68    15    17   ar
    69    89    90    1
    70    40    43    1
    71    49    48    1
    72    49    50    1
    73    90    91    1
    74    16    18   ar
    75    51    50    2
    76    17    18   ar
    77    50    52   am
    78    92    91   ar
    79    91    93   ar
    80    18    19    1
    81    71    70    1
    82    68    70   ar
    83    68    66   ar
    84    52    53    1
    85    70    69   ar
    86    66    65   ar
    87    53    54    1
    88    53    56    1
    89    55    54    2
    90    69    67   ar
    91    54    60   am
    92    65    67   ar
    93    65    64    1
    94    60    61    1
    95    56    57    1
    96    61    64    1
    97    61    62    1
    98    59    57   am
    99    57    58    2
   100    63    62    2
