@<TRIPOS>MOLECULE
tmp/3u74A00.pdb
 81 76 0 0 0
SMALL
GASTEIGER

@<TRIPOS>ATOM
      1  N        -14.0230   33.9170  -11.5470 N.3    23  LEU23      -0.1245
      2  CA       -13.6690   35.1280  -10.7600 C.3    23  LEU23       0.1561
      3  C        -13.2490   36.3400  -11.6360 C.2    23  LEU23       0.2260
      4  O        -12.7030   36.1570  -12.7360 O.2    23  LEU23      -0.2867
      5  CB       -12.4700   34.8380   -9.8360 C.3    23  LEU23       0.0270
      6  CG       -12.4620   33.7750   -8.7170 C.3    23  LEU23       0.0019
      7  CD1      -11.0530   33.5450   -8.1170 C.3    23  LEU23       0.0001
      8  CD2      -13.5050   34.1460   -7.6670 C.3    23  LEU23       0.0001
      9  N         -8.6690   31.6540   -5.4340 N.3    50  LYS50      -0.1231
     10  CA        -7.7540   32.7720   -5.2170 C.3    50  LYS50       0.1693
     11  C         -8.3660   33.5590   -4.0650 C.2    50  LYS50       0.2593
     12  O         -9.5780   33.5500   -3.9310 O.2    50  LYS50      -0.2718
     13  CB        -7.6460   33.6730   -6.4620 C.3    50  LYS50       0.0285
     14  CG        -6.7320   33.1440   -7.5630 C.3    50  LYS50       0.0035
     15  CD        -6.4640   34.1890   -8.6450 C.3    50  LYS50       0.0206
     16  CE        -5.5960   33.6380   -9.7660 C.3    50  LYS50       0.1093
     17  NZ        -6.2570   32.4200  -10.3280 N.3    50  LYS50      -0.1314
     18  N         -7.5590   34.2830   -3.2970 N.am   51  THR51      -0.1939
     19  CA        -8.0710   35.2440   -2.3180 C.3    51  THR51       0.2028
     20  C         -7.5470   36.6430   -2.5030 C.2    51  THR51       0.2642
     21  O         -6.8220   36.9150   -3.4140 O.2    51  THR51      -0.2714
     22  CB        -7.6970   34.9010   -0.8700 C.3    51  THR51       0.1808
     23  OG1       -6.4060   34.2980   -0.8170 O.3    51  THR51      -0.2208
     24  CG2       -8.7170   34.0020   -0.2660 C.3    51  THR51       0.0379
     25  N         -7.9120   37.5120   -1.5820 N.am   52  ASN52      -0.1971
     26  CA        -7.4180   38.8590   -1.5420 C.3    52  ASN52       0.1688
     27  C         -6.1600   38.8690   -0.7150 C.2    52  ASN52       0.2292
     28  O         -6.1130   38.2840    0.3290 O.2    52  ASN52      -0.2864
     29  CB        -8.4560   39.7820   -0.9160 C.3    52  ASN52       0.1181
     30  CG        -9.6720   39.9850   -1.7940 C.2    52  ASN52       0.2629
     31  OD1       -9.6050   39.7860   -2.9900 O.2    52  ASN52      -0.2716
     32  ND2      -10.7900   40.3870   -1.1970 N.am   52  ASN52      -0.0877
     33  N         -7.0080   41.7200   -5.5870 N.3    69  VAL69      -0.1231
     34  CA        -8.3410   41.4910   -5.0560 C.3    69  VAL69       0.1692
     35  C         -9.1510   40.7610   -6.1120 C.2    69  VAL69       0.2592
     36  O         -8.9420   40.9330   -7.3120 O.2    69  VAL69      -0.2718
     37  CB        -9.0290   42.7820   -4.5190 C.3    69  VAL69       0.0266
     38  CG1       -8.1270   44.0030   -4.6710 C.3    69  VAL69       0.0020
     39  CG2      -10.4100   43.0110   -5.1310 C.3    69  VAL69       0.0020
     40  N        -10.0420   39.8970   -5.6540 N.am   70  VAL70      -0.1966
     41  CA       -10.8880   39.1440   -6.5620 C.3    70  VAL70       0.1727
     42  C        -12.3100   39.2020   -6.0730 C.2    70  VAL70       0.2616
     43  O        -12.5800   39.5070   -4.8900 O.2    70  VAL70      -0.2715
     44  CB       -10.4350   37.6860   -6.7350 C.3    70  VAL70       0.0290
     45  CG1       -8.9980   37.6070   -7.2280 C.3    70  VAL70       0.0023
     46  CG2      -10.5700   36.9100   -5.4140 C.3    70  VAL70       0.0023
     47  N        -13.2230   38.9410   -7.0080 N.am   71  CYS71      -0.1968
     48  CA       -14.6720   39.0480   -6.7450 C.3    71  CYS71       0.1712
     49  C        -15.4290   38.2330   -7.7920 C.2    71  CYS71       0.2296
     50  O        -14.8510   37.8240   -8.8540 O.2    71  CYS71      -0.2864
     51  CB       -15.1190   40.5010   -6.7080 C.3    71  CYS71       0.0983
     52  SG       -14.6860   41.4100   -8.2330 S.3    71  CYS71      -0.0798
     53  N        -19.0050   38.7670   -8.9580 N.3    73  LEU73      -0.1245
     54  CA       -20.0740   39.3810   -9.7520 C.3    73  LEU73       0.1561
     55  C        -19.6090   39.9740  -11.0860 C.2    73  LEU73       0.2260
     56  O        -18.4610   40.4110  -11.2380 O.2    73  LEU73      -0.2867
     57  CB       -20.7680   40.4500   -8.9220 C.3    73  LEU73       0.0270
     58  CG       -21.1710   39.9830   -7.5060 C.3    73  LEU73       0.0019
     59  CD1      -21.6630   41.1580   -6.6720 C.3    73  LEU73       0.0001
     60  CD2      -22.1970   38.8540   -7.5160 C.3    73  LEU73       0.0001
     61  N        -17.3760   42.9810  -11.5150 N.3    76  CYS76      -0.1235
     62  CA       -17.1360   43.3450  -10.1500 C.3    76  CYS76       0.1677
     63  C        -15.7380   43.9430   -9.9970 C.2    76  CYS76       0.2270
     64  O        -15.4820   44.5510   -8.9660 O.2    76  CYS76      -0.2867
     65  CB       -17.3300   42.1220   -9.2640 C.3    76  CYS76       0.0956
     66  SG       -16.0990   40.8220   -9.5520 S.3    76  CYS76      -0.0801
     67  N        -12.3390   49.6310   -8.5100 N.3    80  ASN80      -0.1240
     68  CA       -11.1680   49.3700   -7.6830 C.3    80  ASN80       0.1653
     69  C        -10.8840   47.9090   -7.3880 C.2    80  ASN80       0.2266
     70  O        -10.3580   47.2230   -8.2580 O.2    80  ASN80      -0.2867
     71  CB       -11.2350   50.1800   -6.4070 C.3    80  ASN80       0.1155
     72  CG       -10.5290   51.4990   -6.5470 C.2    80  ASN80       0.2627
     73  OD1      -10.3020   51.9910   -7.6680 O.2    80  ASN80      -0.2716
     74  ND2      -10.1520   52.0790   -5.4120 N.am   80  ASN80      -0.0877
     75  N         -6.6820   36.7930    4.4300 N.3   131  PRO131     -0.2116
     76  CA        -7.7900   36.2310    5.2080 C.3   131  PRO131      0.1372
     77  C         -7.3640   35.3780    6.4120 C.2   131  PRO131      0.2244
     78  O         -7.9560   35.4830    7.4900 O.2   131  PRO131     -0.2868
     79  CB        -8.5120   35.3700    4.1740 C.3   131  PRO131      0.0268
     80  CG        -8.3280   36.1540    2.9100 C.3   131  PRO131      0.0207
     81  CD        -6.9080   36.6250    2.9810 C.3   131  PRO131      0.0892
@<TRIPOS>BOND
     1     4     3    2
     2     3     2    1
     3     1     2    1
     4    61    62    1
     5    56    55    2
     6    55    54    1
     7     2     5    1
     8    17    16    1
     9    62    63    1
    10    62    65    1
    11    63    64    2
    12     5     6    1
    13    16    15    1
    14    54    53    1
    15    54    57    1
    16    66    65    1
    17    66    52    1
    18    57    58    1
    19    50    49    2
    20     6     7    1
    21     6     8    1
    22    15    14    1
    23    67    68    1
    24    70    69    2
    25    52    51    1
    26    49    48    1
    27    68    69    1
    28    68    71    1
    29    73    72    2
    30    14    13    1
    31    60    58    1
    32    58    59    1
    33    36    35    2
    34    45    44    1
    35    47    48    1
    36    47    42   am
    37    48    51    1
    38    44    41    1
    39    44    46    1
    40    41    42    1
    41    41    40    1
    42    72    71    1
    43    72    74   am
    44    13    10    1
    45    35    40   am
    46    35    34    1
    47    42    43    2
    48    33    34    1
    49     9    10    1
    50    10    11    1
    51    39    37    1
    52    34    37    1
    53    38    37    1
    54    11    12    2
    55    11    18   am
    56    21    20    2
    57    18    19    1
    58    31    30    2
    59    20    19    1
    60    20    25   am
    61    19    22    1
    62    30    32   am
    63    30    29    1
    64    25    26    1
    65    26    29    1
    66    26    27    1
    67    22    23    1
    68    22    24    1
    69    27    28    2
    70    80    81    1
    71    80    79    1
    72    81    75    1
    73    79    76    1
    74    75    76    1
    75    76    77    1
    76    77    78    2
