@<TRIPOS>MOLECULE
tmp/3u75C02.pdb
 83 76 0 0 0
SMALL
GASTEIGER

@<TRIPOS>ATOM
      1  N        -34.4320  -43.1860  -76.4670 N.3   331  ASN331     -0.1226
      2  CA       -33.4440  -43.5810  -77.4390 C.3   331  ASN331      0.1770
      3  C        -32.9250  -42.3510  -78.1110 C.2   331  ASN331      0.2439
      4  O        -33.6770  -41.3770  -78.2670 O.2   331  ASN331     -0.2733
      5  CB       -34.0490  -44.4890  -78.4910 C.3   331  ASN331      0.1168
      6  CG       -34.3870  -45.8370  -77.9530 C.2   331  ASN331      0.2627
      7  OD1      -33.4950  -46.6580  -77.6930 O.2   331  ASN331     -0.2716
      8  ND2      -35.6750  -46.0910  -77.7810 N.am  331  ASN331     -0.0877
      9  N        -31.6370  -42.4030  -78.5320 N.am  332  PRO332     -0.2729
     10  CA       -30.8620  -41.2400  -78.9450 C.3   332  PRO332      0.1401
     11  C        -31.1870  -40.7850  -80.3440 C.2   332  PRO332      0.2269
     12  O        -31.3770  -41.5910  -81.2540 O.2   332  PRO332     -0.2865
     13  CB       -29.4150  -41.7400  -78.9010 C.3   332  PRO332      0.0296
     14  CG       -29.5080  -43.2140  -79.1360 C.3   332  PRO332      0.0237
     15  CD       -30.8990  -43.6670  -78.7460 C.3   332  PRO332      0.0939
     16  N        -29.9120  -39.6140  -83.4710 N.3   334  LEU334     -0.1245
     17  CA       -28.8590  -39.4990  -84.4580 C.3   334  LEU334      0.1561
     18  C        -29.5080  -39.5690  -85.8260 C.2   334  LEU334      0.2260
     19  O        -30.2050  -40.5500  -86.1180 O.2   334  LEU334     -0.2867
     20  CB       -27.8360  -40.6230  -84.3190 C.3   334  LEU334      0.0270
     21  CG       -26.7560  -40.5790  -83.2260 C.3   334  LEU334      0.0019
     22  CD1      -25.5170  -41.2590  -83.7750 C.3   334  LEU334      0.0001
     23  CD2      -26.4150  -39.1810  -82.7700 C.3   334  LEU334      0.0001
     24  N        -23.5690  -50.8050  -81.1980 N.3   371  ASN371     -0.1240
     25  CA       -24.9300  -51.3360  -81.1400 C.3   371  ASN371      0.1653
     26  C        -24.8880  -52.8690  -81.1380 C.2   371  ASN371      0.2266
     27  O        -24.7880  -53.4990  -82.1990 O.2   371  ASN371     -0.2867
     28  CB       -25.7090  -50.8080  -82.3400 C.3   371  ASN371      0.1155
     29  CG       -27.2140  -51.0700  -82.2450 C.2   371  ASN371      0.2627
     30  OD1      -27.6950  -51.5600  -81.2380 O.2   371  ASN371     -0.2716
     31  ND2      -27.9530  -50.7400  -83.3220 N.am  371  ASN371     -0.0877
     32  N        -26.5030  -56.7420  -79.9550 N.3   373  THR373     -0.1218
     33  CA       -27.5120  -57.6930  -79.4630 C.3   373  THR373      0.1862
     34  C        -26.8080  -59.0350  -79.1780 C.2   373  THR373      0.2287
     35  O        -26.0540  -59.5330  -80.0070 O.2   373  THR373     -0.2866
     36  CB       -28.7250  -57.8620  -80.4380 C.3   373  THR373      0.1770
     37  OG1      -29.3680  -56.6040  -80.6480 O.3   373  THR373     -0.2211
     38  CG2      -29.7540  -58.8140  -79.8950 C.3   373  THR373      0.0375
     39  N        -26.8390  -50.3240  -76.8430 N.3   455  TYR455     -0.1241
     40  CA       -26.2740  -49.2750  -77.6920 C.3   455  TYR455      0.1605
     41  C        -25.6020  -48.1900  -76.8730 C.2   455  TYR455      0.2264
     42  O        -26.2140  -47.6100  -75.9740 O.2   455  TYR455     -0.2867
     43  CB       -27.3510  -48.6050  -78.5510 C.3   455  TYR455      0.0534
     44  CG       -26.8430  -47.4250  -79.4060 C.ar  455  TYR455     -0.0201
     45  CD1      -25.9960  -47.6370  -80.5030 C.ar  455  TYR455     -0.0009
     46  CD2      -27.2320  -46.1040  -79.1320 C.ar  455  TYR455     -0.0009
     47  CE1      -25.5540  -46.5750  -81.2810 C.ar  455  TYR455      0.0417
     48  CE2      -26.7750  -45.0320  -79.9070 C.ar  455  TYR455      0.0417
     49  CZ       -25.9400  -45.2850  -80.9630 C.ar  455  TYR455      0.1957
     50  OH       -25.4970  -44.2610  -81.7340 O.3   455  TYR455     -0.2866
     51  N        -33.2840  -51.6300  -75.8880 N.3   469  ASP469     -0.1239
     52  CA       -34.0010  -50.5500  -76.6240 C.3   469  ASP469      0.1674
     53  C        -34.3960  -49.3310  -75.7810 C.2   469  ASP469      0.2266
     54  O        -35.5710  -48.9520  -75.7240 O.2   469  ASP469     -0.2867
     55  CB       -35.2030  -51.0870  -77.4240 C.3   469  ASP469      0.1410
     56  CG       -35.4060  -50.3410  -78.7620 C.2   469  ASP469      0.3668
     57  OD1      -35.3930  -49.0740  -78.7680 O.co2 469  ASP469     -0.2456
     58  OD2      -35.5660  -51.0280  -79.8200 O.co2 469  ASP469     -0.2456
     59  N        -24.9900  -59.7200  -83.4120 N.3   504  SER504     -0.1217
     60  CA       -24.9730  -58.4570  -84.1360 C.3   504  SER504      0.1889
     61  C        -24.1220  -57.4230  -83.3810 C.2   504  SER504      0.2288
     62  O        -24.3330  -57.1730  -82.1840 O.2   504  SER504     -0.2866
     63  CB       -26.4130  -57.9530  -84.2870 C.3   504  SER504      0.2089
     64  OG       -26.4350  -56.5900  -84.6390 O.3   504  SER504     -0.2183
     65  N        -22.0930  -53.5350  -84.2150 N.3   506  ILE506     -0.1245
     66  CA       -21.7930  -52.4550  -85.1350 C.3   506  ILE506      0.1561
     67  C        -21.0530  -51.4080  -84.3710 C.2   506  ILE506      0.2260
     68  O        -21.6590  -50.6960  -83.5800 O.2   506  ILE506     -0.2867
     69  CB       -23.0430  -51.7660  -85.6430 C.3   506  ILE506      0.0252
     70  CG1      -24.1600  -52.7730  -85.9870 C.3   506  ILE506      0.0019
     71  CG2      -22.6770  -50.8830  -86.8240 C.3   506  ILE506      0.0019
     72  CD1      -25.5630  -52.3500  -85.4960 C.3   506  ILE506      0.0001
     73  N        -19.2290  -48.0550  -84.9740 N.3   508  ARG508     -0.1245
     74  CA       -19.0500  -47.0330  -85.9780 C.3   508  ARG508      0.1563
     75  C        -18.1610  -45.9150  -85.4290 C.2   508  ARG508      0.2260
     76  O        -18.4340  -45.3850  -84.3530 O.2   508  ARG508     -0.2867
     77  CB       -20.4120  -46.4780  -86.3920 C.3   508  ARG508      0.0307
     78  CG       -21.1220  -47.2430  -87.4880 C.3   508  ARG508      0.0489
     79  CD       -22.6100  -47.5240  -87.1590 C.3   508  ARG508      0.2205
     80  NE       -23.2330  -46.4370  -86.3990 N.pl3 508  ARG508     -0.0865
     81  CZ       -24.0310  -45.5110  -86.9110 C.cat 508  ARG508      0.5346
     82  NH1      -24.3670  -45.5390  -88.1860 N.pl3 508  ARG508      0.1354
     83  NH2      -24.5080  -44.5580  -86.1310 N.pl3 508  ARG508      0.1354
@<TRIPOS>BOND
     1    82    81    1
     2    78    79    1
     3    78    77    1
     4    79    80    1
     5    81    80    2
     6    81    83    1
     7    71    69    1
     8    77    74    1
     9    19    18    2
    10    70    69    1
    11    70    72    1
    12    74    75    1
    13    74    73    1
    14    18    17    1
    15    69    66    1
    16    75    76    2
    17    66    67    1
    18    66    65    1
    19    64    63    1
    20    17    20    1
    21    17    16    1
    22    67    68    2
    23    20    21    1
    24    63    60    1
    25    60    59    1
    26    60    61    1
    27    22    21    1
    28    61    62    2
    29    31    29   am
    30    21    23    1
    31    28    29    1
    32    28    25    1
    33    29    30    2
    34    27    26    2
    35    50    49    1
    36    47    49   ar
    37    47    45   ar
    38    12    11    2
    39    24    25    1
    40    25    26    1
    41    49    48   ar
    42    37    36    1
    43    45    44   ar
    44    36    38    1
    45    36    33    1
    46    11    10    1
    47    35    34    2
    48    32    33    1
    49    48    46   ar
    50    58    56   ar
    51    33    34    1
    52    44    46   ar
    53    44    43    1
    54    14    13    1
    55    14    15    1
    56    10    13    1
    57    10     9    1
    58    57    56   ar
    59    56    55    1
    60    15     9    1
    61    43    40    1
    62     9     3   am
    63     5     6    1
    64     5     2    1
    65     4     3    2
    66     3     2    1
    67     6     8   am
    68     6     7    2
    69    40    41    1
    70    40    39    1
    71     2     1    1
    72    55    52    1
    73    41    42    2
    74    52    51    1
    75    52    53    1
    76    53    54    2
