@<TRIPOS>MOLECULE
tmp/3u75C00.pdb
 195 188 0 0 0
SMALL
GASTEIGER

@<TRIPOS>ATOM
      1  N        -24.9060  -24.5220  -67.5570 N.3    26  ASN26      -0.1225
      2  CA       -25.6730  -25.6000  -66.8890 C.3    26  ASN26       0.1785
      3  C        -27.0220  -25.8210  -67.5550 C.2    26  ASN26       0.2597
      4  O        -27.0680  -26.0300  -68.7640 O.2    26  ASN26      -0.2718
      5  CB       -25.7620  -25.4700  -65.3450 C.3    26  ASN26       0.1169
      6  CG       -26.1810  -24.0880  -64.8680 C.2    26  ASN26       0.2627
      7  OD1      -25.3770  -23.1310  -64.8150 O.2    26  ASN26      -0.2716
      8  ND2      -27.4270  -23.9860  -64.4650 N.am   26  ASN26      -0.0877
      9  N        -28.1000  -25.7430  -66.7790 N.am   27  ASP27      -0.1974
     10  CA       -29.4380  -26.1670  -67.2200 C.3    27  ASP27       0.1709
     11  C        -29.8440  -25.6490  -68.5860 C.2    27  ASP27       0.2293
     12  O        -29.8210  -24.4450  -68.8070 O.2    27  ASP27      -0.2864
     13  CB       -30.5450  -25.7380  -66.2360 C.3    27  ASP27       0.1436
     14  CG       -30.1150  -25.7550  -64.7950 C.2    27  ASP27       0.3671
     15  OD1      -28.9020  -25.8580  -64.5020 O.co2  27  ASP27      -0.2456
     16  OD2      -30.9970  -25.6330  -63.9430 O.co2  27  ASP27      -0.2456
     17  N        -28.2710  -21.9810  -69.1100 N.3    45  GLN45      -0.1245
     18  CA       -27.6790  -21.1260  -68.0970 C.3    45  GLN45       0.1566
     19  C        -26.2440  -20.8120  -68.4580 C.2    45  GLN45       0.2260
     20  O        -25.3840  -21.7070  -68.5710 O.2    45  GLN45      -0.2867
     21  CB       -27.7430  -21.8230  -66.7480 C.3    45  GLN45       0.0367
     22  CG       -29.1650  -21.9850  -66.2700 C.3    45  GLN45       0.0905
     23  CD       -29.7540  -20.6700  -65.8780 C.2    45  GLN45       0.2608
     24  OE1      -30.4920  -20.0660  -66.6380 O.2    45  GLN45      -0.2717
     25  NE2      -29.3890  -20.1930  -64.7110 N.am   45  GLN45      -0.0878
     26  N        -16.9670  -21.3600  -64.2450 N.3    52  ALA52      -0.1231
     27  CA       -17.8130  -21.7500  -63.0980 C.3    52  ALA52       0.1694
     28  C        -19.1060  -20.9180  -63.0330 C.2    52  ALA52       0.2592
     29  O        -19.1210  -19.7880  -63.5060 O.2    52  ALA52      -0.2718
     30  CB       -17.0410  -21.5530  -61.8390 C.3    52  ALA52       0.0304
     31  N        -20.1880  -21.4630  -62.4570 N.am   53  TRP53      -0.1976
     32  CA       -21.4790  -20.7240  -62.2920 C.3    53  TRP53       0.1640
     33  C        -21.2560  -19.4460  -61.4930 C.2    53  TRP53       0.2290
     34  O        -20.5070  -19.4560  -60.5150 O.2    53  TRP53      -0.2864
     35  CB       -22.4770  -21.5880  -61.5360 C.3    53  TRP53       0.0576
     36  CG       -23.8870  -21.1040  -61.4640 C.ar   53  TRP53       0.0006
     37  CD1      -24.9360  -21.5610  -62.2130 C.ar   53  TRP53       0.0946
     38  CD2      -24.4350  -20.1180  -60.5760 C.ar   53  TRP53       0.0152
     39  NE1      -26.0980  -20.9160  -61.8600 N.ar   53  TRP53      -0.2442
     40  CE2      -25.8240  -20.0270  -60.8560 C.ar   53  TRP53       0.0810
     41  CE3      -23.8970  -19.3030  -59.5750 C.ar   53  TRP53       0.0012
     42  CZ2      -26.6760  -19.1510  -60.1740 C.ar   53  TRP53       0.0191
     43  CZ3      -24.7450  -18.4260  -58.8960 C.ar   53  TRP53       0.0001
     44  CH2      -26.1220  -18.3620  -59.1990 C.ar   53  TRP53       0.0015
     45  N        -32.5150  -17.0800  -64.3930 N.3    87  PHE87      -0.1227
     46  CA       -32.4450  -18.5060  -64.0720 C.3    87  PHE87       0.1736
     47  C        -33.3260  -19.3250  -65.0390 C.2    87  PHE87       0.2596
     48  O        -34.1020  -18.7490  -65.8090 O.2    87  PHE87      -0.2718
     49  CB       -32.8540  -18.7370  -62.5990 C.3    87  PHE87       0.0547
     50  CG       -31.7640  -18.4520  -61.5770 C.ar   87  PHE87      -0.0202
     51  CD1      -30.6390  -17.6810  -61.8910 C.ar   87  PHE87      -0.0042
     52  CD2      -31.8950  -18.9330  -60.2650 C.ar   87  PHE87      -0.0042
     53  CE1      -29.6430  -17.4170  -60.9090 C.ar   87  PHE87      -0.0003
     54  CE2      -30.9040  -18.6690  -59.2720 C.ar   87  PHE87      -0.0003
     55  CZ       -29.7790  -17.9200  -59.5980 C.ar   87  PHE87      -0.0000
     56  N        -33.2080  -20.6490  -64.9890 N.am   88  SER88      -0.1952
     57  CA       -33.9320  -21.5480  -65.8970 C.3    88  SER88       0.1924
     58  C        -35.4390  -21.2750  -66.1600 C.2    88  SER88       0.2314
     59  O        -36.1730  -20.8030  -65.2790 O.2    88  SER88      -0.2863
     60  CB       -33.7170  -23.0030  -65.4710 C.3    88  SER88       0.2116
     61  OG       -32.3670  -23.3770  -65.7120 O.3    88  SER88      -0.2180
     62  N        -36.8010  -14.0760  -55.8290 N.3   124  GLN124     -0.1245
     63  CA       -36.8730  -14.8880  -57.0380 C.3   124  GLN124      0.1566
     64  C        -38.3170  -14.8900  -57.5560 C.2   124  GLN124      0.2260
     65  O        -39.2420  -15.2530  -56.8290 O.2   124  GLN124     -0.2867
     66  CB       -36.3900  -16.3280  -56.7830 C.3   124  GLN124      0.0367
     67  CG       -34.9240  -16.4700  -56.4440 C.3   124  GLN124      0.0905
     68  CD       -34.4130  -17.9200  -56.5050 C.2   124  GLN124      0.2608
     69  OE1      -35.1710  -18.8820  -56.3070 O.2   124  GLN124     -0.2717
     70  NE2      -33.1080  -18.0770  -56.7810 N.am  124  GLN124     -0.0878
     71  N        -36.9860  -18.7510  -52.9720 N.3   153  GLN153     -0.1245
     72  CA       -36.7090  -20.0980  -53.4420 C.3   153  GLN153      0.1566
     73  C        -37.8810  -20.5670  -54.3250 C.2   153  GLN153      0.2260
     74  O        -38.7300  -21.3700  -53.9050 O.2   153  GLN153     -0.2867
     75  CB       -36.4870  -21.0420  -52.2460 C.3   153  GLN153      0.0367
     76  CG       -35.2580  -20.7030  -51.3140 C.3   153  GLN153      0.0905
     77  CD       -33.8690  -21.1170  -51.8740 C.2   153  GLN153      0.2608
     78  OE1      -33.7560  -22.0460  -52.6720 O.2   153  GLN153     -0.2717
     79  NE2      -32.8230  -20.4200  -51.4410 N.am  153  GLN153     -0.0878
     80  N        -38.4860  -20.9670  -58.5610 N.3   155  ARG155     -0.1231
     81  CA       -37.8020  -20.9220  -59.8360 C.3   155  ARG155      0.1694
     82  C        -38.1060  -22.1680  -60.6480 C.2   155  ARG155      0.2592
     83  O        -38.4550  -23.2180  -60.1030 O.2   155  ARG155     -0.2718
     84  CB       -36.2740  -20.7860  -59.6160 C.3   155  ARG155      0.0321
     85  CG       -35.6400  -21.9540  -58.8450 C.3   155  ARG155      0.0489
     86  CD       -34.1660  -21.7480  -58.3640 C.3   155  ARG155      0.2205
     87  NE       -33.8060  -22.7890  -57.3850 N.pl3 155  ARG155     -0.0865
     88  CZ       -34.0390  -22.7350  -56.0730 C.cat 155  ARG155      0.5346
     89  NH1      -34.5900  -21.6710  -55.5020 N.pl3 155  ARG155      0.1354
     90  NH2      -33.7150  -23.7730  -55.3210 N.pl3 155  ARG155      0.1354
     91  N        -37.9870  -22.0260  -61.9630 N.am  156  ASP156     -0.1974
     92  CA       -37.8790  -23.1350  -62.9250 C.3   156  ASP156      0.1709
     93  C        -39.1690  -23.4630  -63.6520 C.2   156  ASP156      0.2293
     94  O        -39.6100  -24.6190  -63.6930 O.2   156  ASP156     -0.2864
     95  CB       -37.1570  -24.3380  -62.3200 C.3   156  ASP156      0.1436
     96  CG       -35.7590  -23.9750  -61.8230 C.2   156  ASP156      0.3671
     97  OD1      -35.3000  -22.8220  -62.0910 O.co2 156  ASP156     -0.2456
     98  OD2      -35.1470  -24.8360  -61.1560 O.co2 156  ASP156     -0.2456
     99  N        -32.2020  -32.8240  -51.4130 N.3   204  ASN204     -0.1225
    100  CA       -32.1090  -31.4640  -50.8750 C.3   204  ASN204      0.1785
    101  C        -33.2110  -30.5340  -51.3890 C.2   204  ASN204      0.2597
    102  O        -33.8850  -29.8700  -50.5770 O.2   204  ASN204     -0.2718
    103  CB       -30.7320  -30.8300  -51.1450 C.3   204  ASN204      0.1169
    104  CG       -30.6130  -29.4270  -50.5590 C.2   204  ASN204      0.2627
    105  OD1      -30.3400  -29.2500  -49.3730 O.2   204  ASN204     -0.2716
    106  ND2      -30.8340  -28.4240  -51.3870 N.am  204  ASN204     -0.0877
    107  N        -33.3450  -30.4740  -52.7270 N.am  205  GLN205     -0.1979
    108  CA       -34.1650  -29.4820  -53.4330 C.3   205  GLN205      0.1601
    109  C        -34.8770  -30.0890  -54.6340 C.2   205  GLN205      0.2287
    110  O        -34.2580  -30.8480  -55.4320 O.2   205  GLN205     -0.2864
    111  CB       -33.2850  -28.3880  -54.0080 C.3   205  GLN205      0.0394
    112  CG       -33.4520  -26.9920  -53.4750 C.3   205  GLN205      0.0908
    113  CD       -32.0870  -26.2850  -53.4550 C.2   205  GLN205      0.2608
    114  OE1      -31.1770  -26.7020  -54.1750 O.2   205  GLN205     -0.2717
    115  NE2      -31.9270  -25.2650  -52.5920 N.am  205  GLN205     -0.0878
    116  N        -36.1640  -29.0250  -58.2530 N.3   207  ALA207     -0.1231
    117  CA       -35.6910  -28.0940  -59.3160 C.3   207  ALA207      0.1694
    118  C        -36.1210  -28.4800  -60.7490 C.2   207  ALA207      0.2592
    119  O        -36.4150  -29.6420  -61.0270 O.2   207  ALA207     -0.2718
    120  CB       -34.1780  -27.9120  -59.2470 C.3   207  ALA207      0.0304
    121  N        -36.1620  -27.5040  -61.6620 N.am  208  CYS208     -0.1970
    122  CA       -36.4830  -27.7730  -63.0730 C.3   208  CYS208      0.1712
    123  C        -37.5860  -28.8270  -63.3340 C.2   208  CYS208      0.2296
    124  O        -37.3530  -29.7490  -64.1200 O.2   208  CYS208     -0.2864
    125  CB       -35.2100  -28.1940  -63.8420 C.3   208  CYS208      0.0983
    126  SG       -33.7780  -27.0300  -63.8210 S.3   208  CYS208     -0.0798
    127  N        -31.2870  -31.8110  -56.5420 N.3   231  ASN231     -0.1226
    128  CA       -29.8770  -31.6800  -56.2150 C.3   231  ASN231      0.1770
    129  C        -29.7100  -30.6930  -55.0680 C.2   231  ASN231      0.2439
    130  O        -30.4000  -29.6830  -55.0290 O.2   231  ASN231     -0.2733
    131  CB       -29.0780  -31.2220  -57.4300 C.3   231  ASN231      0.1168
    132  CG       -27.6860  -30.7480  -57.0610 C.2   231  ASN231      0.2627
    133  OD1      -26.7550  -31.5460  -56.9110 O.2   231  ASN231     -0.2716
    134  ND2      -27.5460  -29.4370  -56.8760 N.am  231  ASN231     -0.0877
    135  N        -28.8240  -30.9990  -54.1050 N.am  232  PRO232     -0.2729
    136  CA       -28.1870  -32.3090  -54.0070 C.3   232  PRO232      0.1401
    137  C        -29.0660  -33.2950  -53.2120 C.2   232  PRO232      0.2269
    138  O        -30.2930  -33.0990  -53.1350 O.2   232  PRO232     -0.2865
    139  CB       -26.8330  -32.0020  -53.3440 C.3   232  PRO232      0.0296
    140  CG       -27.0240  -30.7420  -52.6280 C.3   232  PRO232      0.0237
    141  CD       -28.1370  -29.9800  -53.2880 C.3   232  PRO232      0.0939
    142  N        -28.7480  -34.4330  -65.3030 N.3   270  TYR270     -0.1241
    143  CA       -29.5640  -33.5440  -64.5030 C.3   270  TYR270      0.1605
    144  C        -30.1390  -32.4800  -65.4350 C.2   270  TYR270      0.2264
    145  O        -29.6040  -32.2610  -66.5590 O.2   270  TYR270     -0.2867
    146  CB       -28.6790  -32.8680  -63.4520 C.3   270  TYR270      0.0534
    147  CG       -29.3690  -31.8780  -62.5240 C.ar  270  TYR270     -0.0201
    148  CD1      -30.1070  -32.3100  -61.4090 C.ar  270  TYR270     -0.0009
    149  CD2      -29.2340  -30.5030  -62.7260 C.ar  270  TYR270     -0.0009
    150  CE1      -30.7230  -31.3820  -60.5480 C.ar  270  TYR270      0.0417
    151  CE2      -29.8440  -29.5800  -61.8800 C.ar  270  TYR270      0.0417
    152  CZ       -30.5860  -30.0170  -60.8020 C.ar  270  TYR270      0.1957
    153  OH       -31.1800  -29.0800  -59.9870 O.3   270  TYR270     -0.2866
    154  N        -23.6960  -31.8050  -60.1870 N.3   291  TRP291     -0.1227
    155  CA       -23.3320  -30.6120  -59.3930 C.3   291  TRP291      0.1737
    156  C        -22.1460  -30.8010  -58.4180 C.2   291  TRP291      0.2595
    157  O        -21.5010  -29.8370  -58.0300 O.2   291  TRP291     -0.2718
    158  CB       -24.5550  -30.0010  -58.6710 C.3   291  TRP291      0.0564
    159  CG       -25.3370  -29.0300  -59.5630 C.ar  291  TRP291      0.0003
    160  CD1      -26.5780  -29.2250  -60.1130 C.ar  291  TRP291      0.0946
    161  CD2      -24.9010  -27.7390  -60.0110 C.ar  291  TRP291      0.0152
    162  NE1      -26.9340  -28.1420  -60.8680 N.ar  291  TRP291     -0.2442
    163  CE2      -25.9250  -27.2130  -60.8220 C.ar  291  TRP291      0.0810
    164  CE3      -23.7420  -26.9690  -59.7960 C.ar  291  TRP291      0.0012
    165  CZ2      -25.8260  -25.9480  -61.4240 C.ar  291  TRP291      0.0191
    166  CZ3      -23.6390  -25.7220  -60.3980 C.ar  291  TRP291      0.0001
    167  CH2      -24.6710  -25.2240  -61.2040 C.ar  291  TRP291      0.0015
    168  N        -21.8590  -32.0390  -58.0330 N.am  292  GLN292     -0.1979
    169  CA       -20.7530  -32.3010  -57.1160 C.3   292  GLN292      0.1601
    170  C        -19.3870  -31.8770  -57.6510 C.2   292  GLN292      0.2287
    171  O        -18.6220  -31.2850  -56.9290 O.2   292  GLN292     -0.2864
    172  CB       -20.7570  -33.7660  -56.6310 C.3   292  GLN292      0.0394
    173  CG       -21.9390  -34.1010  -55.6690 C.3   292  GLN292      0.0908
    174  CD       -22.0510  -35.5920  -55.3350 C.2   292  GLN292      0.2608
    175  OE1      -22.2920  -36.4380  -56.2140 O.2   292  GLN292     -0.2717
    176  NE2      -21.8770  -35.9210  -54.0510 N.am  292  GLN292     -0.0878
    177  N        -17.8820  -28.0780  -61.7440 N.3   295  ASP295     -0.1239
    178  CA       -17.0710  -26.8720  -62.0420 C.3   295  ASP295      0.1674
    179  C        -15.5750  -27.0840  -61.8710 C.2   295  ASP295      0.2266
    180  O        -14.8070  -26.1510  -62.0480 O.2   295  ASP295     -0.2867
    181  CB       -17.5630  -25.5990  -61.3130 C.3   295  ASP295      0.1410
    182  CG       -17.3890  -25.6620  -59.7960 C.2   295  ASP295      0.3668
    183  OD1      -17.9830  -24.7970  -59.1080 O.co2 295  ASP295     -0.2456
    184  OD2      -16.6720  -26.5500  -59.2870 O.co2 295  ASP295     -0.2456
    185  N        -12.4680  -32.4230  -55.9990 N.3   428  ARG428     -0.1245
    186  CA       -13.7530  -33.1420  -55.7830 C.3   428  ARG428      0.1563
    187  C        -13.9290  -34.5280  -56.4380 C.2   428  ARG428      0.2260
    188  O        -15.0360  -35.0760  -56.4580 O.2   428  ARG428     -0.2867
    189  CB       -14.9550  -32.2490  -56.0330 C.3   428  ARG428      0.0307
    190  CG       -14.9930  -31.1760  -55.0310 C.3   428  ARG428      0.0489
    191  CD       -16.2320  -30.3790  -55.1300 C.3   428  ARG428      0.2205
    192  NE       -15.9490  -29.0260  -54.6840 N.pl3 428  ARG428     -0.0865
    193  CZ       -16.0700  -27.9550  -55.4500 C.cat 428  ARG428      0.5346
    194  NH1      -16.5010  -28.0830  -56.7080 N.pl3 428  ARG428      0.1354
    195  NH2      -15.7640  -26.7640  -54.9440 N.pl3 428  ARG428      0.1354
@<TRIPOS>BOND
     1    17    18    1
     2    12    11    2
     3     4     3    2
     4    11    10    1
     5    20    19    2
     6    19    18    1
     7    18    21    1
     8     1     2    1
     9     3     2    1
    10     3     9   am
    11    10     9    1
    12    10    13    1
    13     2     5    1
    14    21    22    1
    15    24    23    2
    16   145   144    2
    17    22    23    1
    18    13    14    1
    19    58    57    1
    20    58    59    2
    21    57    60    1
    22    57    56    1
    23    23    25   am
    24    48    47    2
    25    61    60    1
    26   144   143    1
    27     5     6    1
    28   142   143    1
    29    47    56   am
    30    47    46    1
    31     6     7    2
    32     6     8   am
    33    14    15   ar
    34    14    16   ar
    35   143   146    1
    36    45    46    1
    37    26    27    1
    38   124   123    2
    39    46    49    1
    40   125   126    1
    41   125   122    1
    42    94    93    2
    43    93    92    1
    44    29    28    2
    45   146   147    1
    46   123   122    1
    47    27    28    1
    48    27    30    1
    49   122   121    1
    50    28    31   am
    51    92    95    1
    52    92    91    1
    53   149   147   ar
    54   149   151   ar
    55    49    50    1
    56   147   148   ar
    57    31    32    1
    58    95    96    1
    59    32    35    1
    60    32    33    1
    61    37    39   ar
    62    37    36   ar
    63    97    96   ar
    64   180   179    2
    65   178   179    1
    66   178   177    1
    67   178   181    1
    68    91    82   am
    69    51    50   ar
    70    51    53   ar
    71   151   152   ar
    72    39    40   ar
    73    96    98   ar
    74   121   118   am
    75    50    52   ar
    76    35    36    1
    77    33    34    2
    78    36    38   ar
    79   165   167   ar
    80   165   163   ar
    81   148   150   ar
    82   181   182    1
    83   167   166   ar
    84   119   118    2
    85    53    55   ar
    86   162   163   ar
    87   162   160   ar
    88    40    38   ar
    89    40    42   ar
    90   163   161   ar
    91   152   150   ar
    92   152   153    1
    93   118   117    1
    94    82    83    2
    95    82    81    1
    96    38    41   ar
    97   166   164   ar
    98    52    54   ar
    99   154   155    1
   100    42    44   ar
   101   160   159   ar
   102   161   164   ar
   103   161   159   ar
   104    81    84    1
   105    81    80    1
   106   182   184   ar
   107   182   183   ar
   108    84    85    1
   109    55    54   ar
   110    41    43   ar
   111   159   158    1
   112   155   158    1
   113   155   156    1
   114   117   120    1
   115   117   116    1
   116    44    43   ar
   117    85    86    1
   118   156   168   am
   119   156   157    2
   120    86    87    1
   121   168   169    1
   122   170   169    1
   123   170   171    2
   124    64    63    1
   125    64    65    2
   126   131   132    1
   127   131   128    1
   128    87    88    2
   129   169   172    1
   130   132   133    2
   131   132   134   am
   132    63    66    1
   133    63    62    1
   134    66    67    1
   135    70    68   am
   136   194   193    1
   137   172   173    1
   138   127   128    1
   139    68    67    1
   140    68    69    2
   141   188   187    2
   142   187   186    1
   143   128   129    1
   144   175   174    2
   145    88    89    1
   146    88    90    1
   147   189   186    1
   148   189   190    1
   149   185   186    1
   150   173   174    1
   151   193   195    1
   152   193   192    2
   153   110   109    2
   154   174   176   am
   155   191   190    1
   156   191   192    1
   157   129   130    2
   158   129   135   am
   159   109   108    1
   160    73    74    2
   161    73    72    1
   162   114   113    2
   163   135   136    1
   164   135   141    1
   165   111   112    1
   166   111   108    1
   167   136   139    1
   168   136   137    1
   169   112   113    1
   170   113   115   am
   171    72    71    1
   172    72    75    1
   173   108   107    1
   174   139   140    1
   175   141   140    1
   176   137   138    2
   177   107   101   am
   178    78    77    2
   179    75    76    1
   180    77    79   am
   181    77    76    1
   182    99   100    1
   183   101   100    1
   184   101   102    2
   185   106   104   am
   186   103   100    1
   187   103   104    1
   188   104   105    2
