@<TRIPOS>MOLECULE
tmp/3u78A01.pdb
 165 161 0 0 0
SMALL
GASTEIGER

@<TRIPOS>ATOM
      1  N        -42.5940   13.6750   16.3270 N.3    82  ILE82      -0.1245
      2  CA       -43.8490   14.2300   16.8310 C.3    82  ILE82       0.1561
      3  C        -44.9640   13.1870   16.9410 C.2    82  ILE82       0.2260
      4  O        -45.3050   12.5090   15.9710 O.2    82  ILE82      -0.2867
      5  CB       -44.3520   15.4690   16.0400 C.3    82  ILE82       0.0252
      6  CG1      -43.3280   16.5980   16.0780 C.3    82  ILE82       0.0019
      7  CG2      -45.6370   16.0060   16.6560 C.3    82  ILE82       0.0019
      8  CD1      -42.3600   16.5800   14.9230 C.3    82  ILE82       0.0001
      9  N        -49.6920   16.1440   19.8430 N.3    87  GLN87      -0.1231
     10  CA       -48.9480   17.3850   19.5840 C.3    87  GLN87       0.1698
     11  C        -47.8370   17.6450   20.6150 C.2    87  GLN87       0.2592
     12  O        -47.7520   18.7160   21.2280 O.2    87  GLN87      -0.2718
     13  CB       -49.9000   18.5750   19.4710 C.3    87  GLN87       0.0381
     14  CG       -50.8110   18.5060   18.2480 C.3    87  GLN87       0.0905
     15  CD       -50.0940   18.8650   16.9620 C.2    87  GLN87       0.2608
     16  OE1      -49.6690   20.0040   16.7780 O.2    87  GLN87      -0.2717
     17  NE2      -49.9500   17.8900   16.0660 N.am   87  GLN87      -0.0878
     18  N        -46.9880   16.6450   20.7980 N.am   88  ALA88      -0.1966
     19  CA       -45.9040   16.7300   21.7640 C.3    88  ALA88       0.1728
     20  C        -44.6580   16.0720   21.2070 C.2    88  ALA88       0.2616
     21  O        -44.7340   15.2300   20.2980 O.2    88  ALA88      -0.2715
     22  CB       -46.3050   16.0700   23.0780 C.3    88  ALA88       0.0334
     23  N        -43.5140   16.4450   21.7690 N.am   89  ASP89      -0.1971
     24  CA       -42.2380   15.9450   21.2870 C.3    89  ASP89       0.1709
     25  C        -41.7680   14.6720   21.9880 C.2    89  ASP89       0.2293
     26  O        -41.7920   14.5640   23.2130 O.2    89  ASP89      -0.2864
     27  CB       -41.1880   17.0390   21.3770 C.3    89  ASP89       0.1436
     28  CG       -41.6570   18.3210   20.7490 C.2    89  ASP89       0.3671
     29  OD1      -41.1730   18.6540   19.6430 O.co2  89  ASP89      -0.2456
     30  OD2      -42.5350   18.9770   21.3470 O.co2  89  ASP89      -0.2456
     31  N        -39.6590   15.9540   11.3040 N.3   113  ILE113     -0.1231
     32  CA       -39.5130   17.1780   10.5250 C.3   113  ILE113      0.1692
     33  C        -38.2330   17.9500   10.8220 C.2   113  ILE113      0.2592
     34  O        -37.9800   18.9840   10.2020 O.2   113  ILE113     -0.2718
     35  CB       -40.6740   18.1290   10.7770 C.3   113  ILE113      0.0266
     36  CG1      -40.4710   18.8370   12.1110 C.3   113  ILE113      0.0019
     37  CG2      -41.9920   17.3870   10.7470 C.3   113  ILE113      0.0020
     38  CD1      -41.7300   19.5040   12.6550 C.3   113  ILE113      0.0001
     39  N        -37.4240   17.4560   11.7550 N.am  114  SER114     -0.1952
     40  CA       -36.2730   18.2160   12.2340 C.3   114  SER114      0.1924
     41  C        -34.9410   17.5040   12.0870 C.2   114  SER114      0.2314
     42  O        -33.9540   17.9220   12.6870 O.2   114  SER114     -0.2863
     43  CB       -36.4620   18.6100   13.7020 C.3   114  SER114      0.2116
     44  OG       -37.4390   19.6340   13.8440 O.3   114  SER114     -0.2180
     45  N        -49.3920   16.0580   11.0140 N.3   165  TYR165     -0.1227
     46  CA       -49.8200   17.4310   10.9000 C.3   165  TYR165      0.1736
     47  C        -48.9690   18.3060   11.7950 C.2   165  TYR165      0.2596
     48  O        -48.7630   17.9780   12.9520 O.2   165  TYR165     -0.2718
     49  CB       -51.2980   17.5530   11.2920 C.3   165  TYR165      0.0548
     50  CG       -51.7670   18.9840   11.4700 C.ar  165  TYR165     -0.0200
     51  CD1      -51.9030   19.8370   10.3770 C.ar  165  TYR165     -0.0009
     52  CD2      -52.0650   19.4810   12.7210 C.ar  165  TYR165     -0.0009
     53  CE1      -52.3260   21.1440   10.5330 C.ar  165  TYR165      0.0417
     54  CE2      -52.4890   20.7910   12.8910 C.ar  165  TYR165      0.0417
     55  CZ       -52.6210   21.6140   11.7960 C.ar  165  TYR165      0.1957
     56  OH       -53.0470   22.9040   11.9690 O.3   165  TYR165     -0.2866
     57  N        -48.4620   19.4140   11.2650 N.am  166  THR166     -0.1939
     58  CA       -47.8040   20.3910   12.1120 C.3   166  THR166      0.2028
     59  C        -48.6470   21.6490   12.1980 C.2   166  THR166      0.2642
     60  O        -49.1310   22.1530   11.1890 O.2   166  THR166     -0.2714
     61  CB       -46.4120   20.7260   11.6130 C.3   166  THR166      0.1808
     62  OG1      -45.6180   19.5360   11.6080 O.3   166  THR166     -0.2208
     63  CG2      -45.7690   21.7500   12.5220 C.3   166  THR166      0.0379
     64  N        -48.8260   22.1540   13.4070 N.am  167  ASP167     -0.1971
     65  CA       -49.6940   23.2980   13.6250 C.3   167  ASP167      0.1709
     66  C        -49.0300   24.6230   13.2300 C.2   167  ASP167      0.2293
     67  O        -47.8250   24.6940   13.0350 O.2   167  ASP167     -0.2864
     68  CB       -50.1520   23.3490   15.0890 C.3   167  ASP167      0.1436
     69  CG       -51.6050   23.7480   15.2220 C.2   167  ASP167      0.3671
     70  OD1      -52.2010   24.1100   14.1780 O.co2 167  ASP167     -0.2456
     71  OD2      -52.1460   23.7150   16.3580 O.co2 167  ASP167     -0.2456
     72  N        -47.0990   27.7580   12.8300 N.3   169  HIS169     -0.1226
     73  CA       -45.9530   28.3570   13.4960 C.3   169  HIS169      0.1752
     74  C        -45.2410   29.2820   12.5330 C.2   169  HIS169      0.2596
     75  O        -45.5380   29.2890   11.3530 O.2   169  HIS169     -0.2718
     76  CB       -44.9920   27.2650   13.9030 C.3   169  HIS169      0.0759
     77  CG       -44.5690   26.4200   12.7520 C.ar  169  HIS169      0.0818
     78  ND1      -45.3650   25.4250   12.2370 N.ar  169  HIS169     -0.2268
     79  CD2      -43.4610   26.4580   11.9790 C.ar  169  HIS169      0.1154
     80  CE1      -44.7550   24.8610   11.2130 C.ar  169  HIS169      0.1986
     81  NE2      -43.5950   25.4690   11.0390 N.ar  169  HIS169     -0.2212
     82  N        -44.2960   30.0540   13.0470 N.am  170  ILE170     -0.1966
     83  CA       -43.4260   30.8420   12.2020 C.3   170  ILE170      0.1727
     84  C        -42.0610   30.2330   12.3680 C.2   170  ILE170      0.2616
     85  O        -41.6640   29.9100   13.4680 O.2   170  ILE170     -0.2715
     86  CB       -43.3980   32.3030   12.6450 C.3   170  ILE170      0.0290
     87  CG1      -44.7600   32.9440   12.3970 C.3   170  ILE170      0.0022
     88  CG2      -42.3640   33.0740   11.8810 C.3   170  ILE170      0.0023
     89  CD1      -44.8950   34.3090   12.9720 C.3   170  ILE170      0.0001
     90  N        -41.3330   30.0490   11.2840 N.am  171  ASP171     -0.1957
     91  CA       -40.0970   29.3260   11.4190 C.3   171  ASP171      0.1840
     92  C        -39.1500   30.0410   12.3640 C.2   171  ASP171      0.2622
     93  O        -39.1830   31.2680   12.4950 O.2   171  ASP171     -0.2715
     94  CB       -39.4770   29.0390   10.0660 C.3   171  ASP171      0.1450
     95  CG       -40.2080   27.9480    9.3480 C.2   171  ASP171      0.3671
     96  OD1      -40.9230   27.2120   10.0380 O.co2 171  ASP171     -0.2456
     97  OD2      -40.0970   27.8200    8.1140 O.co2 171  ASP171     -0.2456
     98  N        -38.3250   29.2590   13.0490 N.am  172  PHE172     -0.1974
     99  CA       -37.3890   29.8180   14.0040 C.3   172  PHE172      0.1639
    100  C        -36.5620   30.9850   13.4540 C.2   172  PHE172      0.2290
    101  O        -36.0020   30.9180   12.3570 O.2   172  PHE172     -0.2864
    102  CB       -36.4970   28.7210   14.5540 C.3   172  PHE172      0.0560
    103  CG       -35.6250   28.0830   13.5320 C.ar  172  PHE172     -0.0200
    104  CD1      -34.3950   28.6350   13.2130 C.ar  172  PHE172     -0.0042
    105  CD2      -36.0160   26.9160   12.9090 C.ar  172  PHE172     -0.0042
    106  CE1      -33.5800   28.0410   12.2830 C.ar  172  PHE172     -0.0003
    107  CE2      -35.2060   26.3200   11.9850 C.ar  172  PHE172     -0.0003
    108  CZ       -33.9850   26.8830   11.6730 C.ar  172  PHE172     -0.0000
    109  N        -55.0290   27.1800   22.6050 N.3   210  GLN210     -0.1245
    110  CA       -54.3320   27.0090   21.3280 C.3   210  GLN210      0.1566
    111  C        -54.6270   25.7140   20.5520 C.2   210  GLN210      0.2260
    112  O        -54.8660   25.7570   19.3530 O.2   210  GLN210     -0.2867
    113  CB       -52.8190   27.1690   21.4740 C.3   210  GLN210      0.0367
    114  CG       -52.0610   26.4120   20.3970 C.3   210  GLN210      0.0905
    115  CD       -50.5820   26.7790   20.2980 C.2   210  GLN210      0.2608
    116  OE1      -50.1560   27.8400   20.7480 O.2   210  GLN210     -0.2717
    117  NE2      -49.7950   25.8950   19.6910 N.am  210  GLN210     -0.0878
    118  N        -42.3450   34.7090   23.4770 N.3   275  LEU275     -0.1231
    119  CA       -43.1270   33.4930   23.6320 C.3   275  LEU275      0.1693
    120  C        -42.2920   32.3830   24.2410 C.2   275  LEU275      0.2592
    121  O        -42.7970   31.2940   24.4880 O.2   275  LEU275     -0.2718
    122  CB       -43.6980   33.0350   22.2830 C.3   275  LEU275      0.0284
    123  CG       -44.7780   33.8970   21.6280 C.3   275  LEU275      0.0019
    124  CD1      -45.3270   33.2080   20.3730 C.3   275  LEU275      0.0001
    125  CD2      -45.8860   34.1630   22.6230 C.3   275  LEU275      0.0001
    126  N        -41.0090   32.6580   24.4590 N.am  276  LYS276     -0.1966
    127  CA       -40.0560   31.6450   24.9230 C.3   276  LYS276      0.1728
    128  C        -40.0860   30.3560   24.0800 C.2   276  LYS276      0.2617
    129  O        -40.2720   29.2750   24.6110 O.2   276  LYS276     -0.2715
    130  CB       -40.2770   31.3110   26.4160 C.3   276  LYS276      0.0311
    131  CG       -39.7220   32.3320   27.4330 C.3   276  LYS276      0.0038
    132  CD       -40.6020   33.5830   27.5710 C.3   276  LYS276      0.0206
    133  CE       -40.5160   34.2450   28.9720 C.3   276  LYS276      0.1093
    134  NZ       -39.2060   34.8970   29.3200 N.3   276  LYS276     -0.1314
    135  N        -39.8870   30.4590   22.7720 N.am  277  THR277     -0.1937
    136  CA       -39.9850   29.2710   21.9170 C.3   277  THR277      0.2013
    137  C        -38.7350   28.4140   21.9640 C.2   277  THR277      0.2484
    138  O        -37.6360   28.9010   21.7320 O.2   277  THR277     -0.2729
    139  CB       -40.2600   29.6180   20.4350 C.3   277  THR277      0.1807
    140  OG1      -41.0130   30.8330   20.3490 O.3   277  THR277     -0.2208
    141  CG2      -41.0340   28.4850   19.7500 C.3   277  THR277      0.0379
    142  N        -38.9040   27.1220   22.2490 N.am  278  PRO278     -0.2715
    143  CA       -37.7660   26.1940   22.1890 C.3   278  PRO278      0.1536
    144  C        -37.1580   26.0830   20.7790 C.2   278  PRO278      0.2598
    145  O        -35.9580   25.8110   20.6660 O.2   278  PRO278     -0.2715
    146  CB       -38.3630   24.8560   22.6290 C.3   278  PRO278      0.0310
    147  CG       -39.8480   25.0040   22.5410 C.3   278  PRO278      0.0237
    148  CD       -40.1950   26.4530   22.4860 C.3   278  PRO278      0.0939
    149  N        -37.9770   26.2870   19.7420 N.am  279  ASP279     -0.1972
    150  CA       -37.5260   26.3290   18.3410 C.3   279  ASP279      0.1709
    151  C        -36.2240   27.1180   18.2000 C.2   279  ASP279      0.2293
    152  O        -35.2870   26.6990   17.5200 O.2   279  ASP279     -0.2864
    153  CB       -38.5930   26.9890   17.4390 C.3   279  ASP279      0.1436
    154  CG       -39.8820   26.1570   17.3050 C.2   279  ASP279      0.3671
    155  OD1      -40.2430   25.3910   18.2340 O.co2 279  ASP279     -0.2456
    156  OD2      -40.5510   26.2940   16.2550 O.co2 279  ASP279     -0.2456
    157  N        -32.4340   26.1910   17.7390 N.3   282  LYS282     -0.1245
    158  CA       -31.8580   25.6720   16.5000 C.3   282  LYS282      0.1561
    159  C        -30.9540   26.7300   15.8710 C.2   282  LYS282      0.2260
    160  O        -30.0180   26.4030   15.1150 O.2   282  LYS282     -0.2867
    161  CB       -32.9460   25.2360   15.5080 C.3   282  LYS282      0.0271
    162  CG       -33.7260   23.9740   15.8920 C.3   282  LYS282      0.0035
    163  CD       -34.6150   23.5290   14.7240 C.3   282  LYS282      0.0206
    164  CE       -35.5310   22.3530   15.0700 C.3   282  LYS282      0.1093
    165  NZ       -36.7040   22.7380   15.9110 N.3   282  LYS282     -0.1314
@<TRIPOS>BOND
     1    97    95   ar
     2    95    96   ar
     3    95    94    1
     4    94    91    1
     5    34    33    2
     6    51    53   ar
     7    51    50   ar
     8    32    35    1
     9    32    33    1
    10    32    31    1
    11    53    55   ar
    12    37    35    1
    13    35    36    1
    14    33    39   am
    15    46    45    1
    16    46    49    1
    17    46    47    1
    18    81    80   ar
    19    81    79   ar
    20    60    59    2
    21    80    78   ar
    22    57    47   am
    23    57    58    1
    24    90    91    1
    25    90    84   am
    26    49    50    1
    27    75    74    2
    28    91    92    1
    29    50    52   ar
    30    62    61    1
    31    61    58    1
    32    61    63    1
    33   108   107   ar
    34   108   106   ar
    35    39    40    1
    36    47    48    2
    37    55    56    1
    38    55    54   ar
    39    88    86    1
    40    79    77   ar
    41   107   105   ar
    42    41    40    1
    43    41    42    2
    44    36    38    1
    45    58    59    1
    46    59    64   am
    47    83    84    1
    48    83    86    1
    49    83    82    1
    50    40    43    1
    51    78    77   ar
    52   106   104   ar
    53   101   100    2
    54    92    93    2
    55    92    98   am
    56    84    85    2
    57    87    86    1
    58    87    89    1
    59    74    82   am
    60    74    73    1
    61    52    54   ar
    62    77    76    1
    63    72    73    1
    64   105   103   ar
    65    67    66    2
    66    98    99    1
    67   104   103   ar
    68    66    65    1
    69    64    65    1
    70   100    99    1
    71    73    76    1
    72   103   102    1
    73    65    68    1
    74    43    44    1
    75    99   102    1
    76    70    69   ar
    77   163   164    1
    78   163   162    1
    79     8     6    1
    80   164   165    1
    81    68    69    1
    82   160   159    2
    83    69    71   ar
    84   161   162    1
    85   161   158    1
    86   159   158    1
    87     4     3    2
    88     5     6    1
    89     5     7    1
    90     5     2    1
    91    17    15   am
    92   156   154   ar
    93     1     2    1
    94   158   157    1
    95    16    15    2
    96     2     3    1
    97    15    14    1
    98   154   153    1
    99   154   155   ar
   100   153   150    1
   101   152   151    2
   102   151   150    1
   103    14    13    1
   104   150   149    1
   105   112   111    2
   106    13    10    1
   107    10     9    1
   108    10    11    1
   109    29    28   ar
   110   117   115   am
   111   149   144   am
   112   141   139    1
   113    21    20    2
   114   115   114    1
   115   115   116    2
   116   140   139    1
   117   124   123    1
   118   114   113    1
   119   139   136    1
   120   111   110    1
   121    11    18   am
   122    11    12    2
   123   145   144    2
   124    28    30   ar
   125    28    27    1
   126   144   143    1
   127    18    19    1
   128    20    19    1
   129    20    23   am
   130    24    27    1
   131    24    23    1
   132    24    25    1
   133   110   113    1
   134   110   109    1
   135   123   122    1
   136   123   125    1
   137   138   137    2
   138    19    22    1
   139   136   137    1
   140   136   135    1
   141   137   142   am
   142    25    26    2
   143   143   142    1
   144   143   146    1
   145   142   148    1
   146   122   119    1
   147   148   147    1
   148   147   146    1
   149   135   128   am
   150   118   119    1
   151   119   120    1
   152   128   129    2
   153   128   127    1
   154   120   126   am
   155   120   121    2
   156   126   127    1
   157   127   130    1
   158   130   131    1
   159   131   132    1
   160   132   133    1
   161   133   134    1
