@<TRIPOS>MOLECULE
tmp/3u7bD00.pdb
 110 103 0 0 0
SMALL
GASTEIGER

@<TRIPOS>ATOM
      1  N         46.9620   29.9140  107.7340 N.3   101  ASN101     -0.1225
      2  CA        47.5610   31.1210  107.1600 C.3   101  ASN101      0.1785
      3  C         48.8530   30.8490  106.3760 C.2   101  ASN101      0.2597
      4  O         48.9760   31.2510  105.2170 O.2   101  ASN101     -0.2718
      5  CB        47.7950   32.1510  108.2720 C.3   101  ASN101      0.1169
      6  CG        48.1110   33.5460  107.7460 C.2   101  ASN101      0.2627
      7  OD1       48.2850   33.7670  106.5400 O.2   101  ASN101     -0.2716
      8  ND2       48.1850   34.5000  108.6660 N.am  101  ASN101     -0.0877
      9  N         49.8000   30.1470  107.0010 N.am  102  GLN102     -0.1979
     10  CA        51.1130   29.8960  106.3950 C.3   102  GLN102      0.1601
     11  C         51.0660   28.9470  105.1980 C.2   102  GLN102      0.2287
     12  O         51.7870   29.1500  104.2130 O.2   102  GLN102     -0.2864
     13  CB        52.1160   29.3760  107.4370 C.3   102  GLN102      0.0394
     14  CG        52.5850   30.4290  108.4360 C.3   102  GLN102      0.0908
     15  CD        53.4650   31.4910  107.8040 C.2   102  GLN102      0.2608
     16  OE1       52.9880   32.5530  107.4070 O.2   102  GLN102     -0.2717
     17  NE2       54.7580   31.2030  107.6970 N.am  102  GLN102     -0.0878
     18  N         49.4870   30.6920  102.1050 N.3   105  GLN105     -0.1245
     19  CA        50.4490   31.6680  101.5840 C.3   105  GLN105      0.1566
     20  C         51.5170   31.0130  100.7090 C.2   105  GLN105      0.2260
     21  O         51.8670   31.5400   99.6480 O.2   105  GLN105     -0.2867
     22  CB        51.1080   32.4670  102.7130 C.3   105  GLN105      0.0367
     23  CG        50.2540   33.6100  103.2550 C.3   105  GLN105      0.0905
     24  CD        51.0520   34.5780  104.1060 C.2   105  GLN105      0.2608
     25  OE1       52.0810   35.0970  103.6750 O.2   105  GLN105     -0.2717
     26  NE2       50.5740   34.8370  105.3200 N.am  105  GLN105     -0.0878
     27  N         39.1060   34.3080  104.2940 N.3   146  ARG146     -0.1231
     28  CA        38.8380   33.5240  105.4950 C.3   146  ARG146      0.1694
     29  C         40.1190   33.1220  106.2120 C.2   146  ARG146      0.2592
     30  O         40.2050   33.2150  107.4350 O.2   146  ARG146     -0.2718
     31  CB        37.9970   32.2860  105.1730 C.3   146  ARG146      0.0321
     32  CG        36.5180   32.5850  104.9680 C.3   146  ARG146      0.0489
     33  CD        35.6480   31.3200  105.0330 C.3   146  ARG146      0.2205
     34  NE        36.1110   30.2600  104.1330 N.pl3 146  ARG146     -0.0865
     35  CZ        35.7830   30.1530  102.8470 C.cat 146  ARG146      0.5346
     36  NH1       34.9790   31.0470  102.2740 N.pl3 146  ARG146      0.1354
     37  NH2       36.2680   29.1470  102.1270 N.pl3 146  ARG146      0.1354
     38  N         41.1200   32.7050  105.4410 N.am  147  VAL147     -0.1966
     39  CA        42.3140   32.0790  105.9990 C.3   147  VAL147      0.1727
     40  C         43.4210   33.0900  106.3060 C.2   147  VAL147      0.2616
     41  O         44.1100   32.9760  107.3240 O.2   147  VAL147     -0.2715
     42  CB        42.8230   30.9340  105.0740 C.3   147  VAL147      0.0290
     43  CG1       44.1230   30.3440  105.5830 C.3   147  VAL147      0.0023
     44  CG2       41.7560   29.8460  104.9500 C.3   147  VAL147      0.0023
     45  N         43.5650   34.0900  105.4420 N.am  148  ILE148     -0.1963
     46  CA        44.6410   35.0720  105.5670 C.3   148  ILE148      0.1727
     47  C         44.1510   36.4310  106.0930 C.2   148  ILE148      0.2616
     48  O         44.9270   37.1820  106.6770 O.2   148  ILE148     -0.2715
     49  CB        45.4170   35.2200  104.2300 C.3   148  ILE148      0.0290
     50  CG1       45.9490   33.8500  103.7860 C.3   148  ILE148      0.0022
     51  CG2       46.5610   36.2310  104.3520 C.3   148  ILE148      0.0023
     52  CD1       46.4310   33.7890  102.3480 C.3   148  ILE148      0.0001
     53  N         42.8680   36.7300  105.9060 N.am  149  GLY149     -0.1955
     54  CA        42.3110   38.0240  106.3010 C.3   149  GLY149      0.1869
     55  C         42.5160   39.0700  105.2210 C.2   149  GLY149      0.2309
     56  O         42.9840   38.7530  104.1250 O.2   149  GLY149     -0.2863
     57  N         44.7190   41.0540  104.8150 N.3   151  ALA151     -0.1245
     58  CA        46.1340   41.0590  104.4340 C.3   151  ALA151      0.1562
     59  C         46.4770   40.3050  103.1390 C.2   151  ALA151      0.2260
     60  O         47.5350   40.5410  102.5550 O.2   151  ALA151     -0.2867
     61  CB        46.9920   40.5260  105.5890 C.3   151  ALA151      0.0290
     62  N         49.5830   41.1250  100.4890 N.3   155  ILE155     -0.1245
     63  CA        50.4930   39.9740  100.4110 C.3   155  ILE155      0.1561
     64  C         50.5940   39.4700   98.9670 C.2   155  ILE155      0.2260
     65  O         51.6960   39.2540   98.4660 O.2   155  ILE155     -0.2867
     66  CB        50.0970   38.8350  101.3990 C.3   155  ILE155      0.0252
     67  CG1       50.4270   39.2460  102.8400 C.3   155  ILE155      0.0019
     68  CG2       50.8340   37.5330  101.0670 C.3   155  ILE155      0.0019
     69  CD1       49.7930   38.3610  103.9060 C.3   155  ILE155      0.0001
     70  N         52.6700   41.8750   97.1080 N.3   158  ARG158     -0.1245
     71  CA        54.0880   41.7100   97.4660 C.3   158  ARG158      0.1563
     72  C         54.7150   40.5300   96.7170 C.2   158  ARG158      0.2260
     73  O         55.8240   40.6440   96.1840 O.2   158  ARG158     -0.2867
     74  CB        54.2750   41.5570   98.9860 C.3   158  ARG158      0.0307
     75  CG        55.7420   41.3390   99.4140 C.3   158  ARG158      0.0489
     76  CD        56.0090   41.6520  100.8910 C.3   158  ARG158      0.2205
     77  NE        55.1510   40.8850  101.7870 N.pl3 158  ARG158     -0.0865
     78  CZ        54.4620   41.3980  102.8010 C.cat 158  ARG158      0.5346
     79  NH1       54.5340   42.6920  103.0930 N.pl3 158  ARG158      0.1354
     80  NH2       53.7100   40.5990  103.5430 N.pl3 158  ARG158      0.1354
     81  N         45.4060   50.5630  100.9140 N.3   192  LEU192     -0.1245
     82  CA        45.9470   49.4760  101.7370 C.3   192  LEU192      0.1561
     83  C         47.2960   48.9640  101.2240 C.2   192  LEU192      0.2260
     84  O         48.2420   48.8220  102.0040 O.2   192  LEU192     -0.2867
     85  CB        44.9360   48.3320  101.8550 C.3   192  LEU192      0.0270
     86  CG        45.3130   47.1170  102.7080 C.3   192  LEU192      0.0019
     87  CD1       45.4760   47.4780  104.1860 C.3   192  LEU192      0.0001
     88  CD2       44.2680   46.0490  102.5230 C.3   192  LEU192      0.0001
     89  N         49.9630   51.5520  101.8020 N.3   195  SER195     -0.1202
     90  CA        50.2970   51.6860  103.2270 C.3   195  SER195      0.2020
     91  C         51.3460   50.6560  103.6710 C.2   195  SER195      0.2619
     92  O         52.0840   50.8830  104.6350 O.2   195  SER195     -0.2717
     93  CB        49.0390   51.6290  104.1020 C.3   195  SER195      0.2103
     94  OG        48.5060   50.3160  104.1920 O.3   195  SER195     -0.2182
     95  N         51.4170   49.5380  102.9430 N.am  196  TYR196     -0.1961
     96  CA        52.4270   48.5020  103.1520 C.3   196  TYR196      0.1771
     97  C         53.7560   48.8380  102.4750 C.2   196  TYR196      0.2620
     98  O         54.7130   48.0690  102.5690 O.2   196  TYR196     -0.2715
     99  CB        51.9310   47.1740  102.5790 C.3   196  TYR196      0.0574
    100  CG        51.0670   46.3260  103.4810 C.ar  196  TYR196     -0.0198
    101  CD1       51.4540   45.0270  103.8080 C.ar  196  TYR196     -0.0009
    102  CD2       49.8450   46.7960  103.9720 C.ar  196  TYR196     -0.0009
    103  CE1       50.6610   44.2220  104.6160 C.ar  196  TYR196      0.0417
    104  CE2       49.0450   46.0020  104.7810 C.ar  196  TYR196      0.0417
    105  CZ        49.4590   44.7140  105.0970 C.ar  196  TYR196      0.1957
    106  OH        48.6750   43.9200  105.8950 O.3   196  TYR196     -0.2866
    107  N         53.8100   49.9690  101.7770 N.am  197  GLY197     -0.1954
    108  CA        54.9960   50.3480  101.0130 C.3   197  GLY197      0.1869
    109  C         55.1680   49.5520   99.7250 C.2   197  GLY197      0.2309
    110  O         56.2520   49.5350   99.1370 O.2   197  GLY197     -0.2863
@<TRIPOS>BOND
     1    73    72    2
     2    72    71    1
     3    70    71    1
     4    71    74    1
     5    65    64    2
     6    64    63    1
     7    74    75    1
     8   110   109    2
     9    75    76    1
    10    21    20    2
    11   109   108    1
    12    63    62    1
    13    63    66    1
    14    20    19    1
    15    76    77    1
    16    81    82    1
    17   108   107    1
    18    68    66    1
    19    83    82    1
    20    83    84    2
    21    66    67    1
    22    19    18    1
    23    19    22    1
    24    82    85    1
    25   107    97   am
    26    77    78    2
    27    89    90    1
    28    85    86    1
    29    37    35    1
    30    36    35    1
    31    52    50    1
    32    97    98    2
    33    97    96    1
    34    88    86    1
    35    60    59    2
    36    99    96    1
    37    99   100    1
    38    86    87    1
    39    22    23    1
    40    78    79    1
    41    78    80    1
    42    67    69    1
    43    35    34    2
    44    95    96    1
    45    95    91   am
    46    59    58    1
    47    90    91    1
    48    90    93    1
    49    23    24    1
    50   100   101   ar
    51   100   102   ar
    52    91    92    2
    53    25    24    2
    54    50    49    1
    55   101   103   ar
    56   102   104   ar
    57    93    94    1
    58    24    26   am
    59    56    55    2
    60    34    33    1
    61    12    11    2
    62    49    51    1
    63    49    46    1
    64    27    28    1
    65    58    57    1
    66    58    61    1
    67   103   105   ar
    68   104   105   ar
    69    44    42    1
    70    32    33    1
    71    32    31    1
    72    42    43    1
    73    42    39    1
    74   105   106    1
    75    31    28    1
    76    11    10    1
    77     4     3    2
    78    55    54    1
    79    38    39    1
    80    38    29   am
    81    45    46    1
    82    45    40   am
    83    28    29    1
    84    46    47    1
    85    53    47   am
    86    53    54    1
    87    39    40    1
    88    47    48    2
    89    29    30    2
    90    40    41    2
    91     3     9   am
    92     3     2    1
    93    10     9    1
    94    10    13    1
    95     7     6    2
    96     2     1    1
    97     2     5    1
    98    16    15    2
    99    13    14    1
   100    17    15   am
   101     6     5    1
   102     6     8   am
   103    15    14    1
