@<TRIPOS>MOLECULE
tmp/3u7bA00.pdb
 106 99 0 0 0
SMALL
GASTEIGER

@<TRIPOS>ATOM
      1  N         14.4860   28.7100  108.0860 N.3   101  ASN101     -0.1225
      2  CA        13.8910   27.5130  107.4960 C.3   101  ASN101      0.1785
      3  C         12.5780   27.7810  106.7530 C.2   101  ASN101      0.2597
      4  O         12.4220   27.3830  105.5940 O.2   101  ASN101     -0.2718
      5  CB        13.6950   26.4480  108.5770 C.3   101  ASN101      0.1169
      6  CG        13.4590   25.0600  108.0060 C.2   101  ASN101      0.2627
      7  OD1       13.4650   24.8520  106.7880 O.2   101  ASN101     -0.2716
      8  ND2       13.2530   24.0970  108.8960 N.am  101  ASN101     -0.0877
      9  N         11.6540   28.4770  107.4110 N.am  102  GLN102     -0.1979
     10  CA        10.3380   28.7610  106.8360 C.3   102  GLN102      0.1601
     11  C         10.3580   29.7150  105.6410 C.2   102  GLN102      0.2287
     12  O          9.6250   29.5080  104.6700 O.2   102  GLN102     -0.2864
     13  CB         9.3710   29.2810  107.9080 C.3   102  GLN102      0.0394
     14  CG         8.8680   28.2010  108.8720 C.3   102  GLN102      0.0908
     15  CD         8.0960   27.0860  108.1730 C.2   102  GLN102      0.2608
     16  OE1        8.4790   25.9140  108.2390 O.2   102  GLN102     -0.2717
     17  NE2        7.0050   27.4460  107.5000 N.am  102  GLN102     -0.0878
     18  N         11.9000   28.1610  102.4060 N.3   105  GLN105     -0.1245
     19  CA        10.9320   27.2120  101.8510 C.3   105  GLN105      0.1566
     20  C          9.8230   27.9150  101.0780 C.2   105  GLN105      0.2260
     21  O          9.3930   27.4300  100.0300 O.2   105  GLN105     -0.2867
     22  CB        10.3180   26.3310  102.9470 C.3   105  GLN105      0.0367
     23  CG        11.2150   25.1910  103.4260 C.3   105  GLN105      0.0905
     24  CD        10.4790   24.2080  104.3220 C.2   105  GLN105      0.2608
     25  OE1        9.3890   23.7460  103.9900 O.2   105  GLN105     -0.2717
     26  NE2       11.0770   23.8810  105.4630 N.am  105  GLN105     -0.0878
     27  N         22.4440   24.4880  104.3780 N.3   146  ARG146     -0.1231
     28  CA        22.7190   25.2640  105.5930 C.3   146  ARG146      0.1694
     29  C         21.4640   25.6500  106.3710 C.2   146  ARG146      0.2592
     30  O         21.4380   25.5530  107.6010 O.2   146  ARG146     -0.2718
     31  CB        23.5170   26.5260  105.2630 C.3   146  ARG146      0.0321
     32  CG        24.9920   26.2830  105.0410 C.3   146  ARG146      0.0489
     33  CD        25.7930   27.5830  105.0830 C.3   146  ARG146      0.2205
     34  NE        25.3200   28.5900  104.1290 N.pl3 146  ARG146     -0.0865
     35  CZ        25.6910   28.6680  102.8510 C.cat 146  ARG146      0.5346
     36  NH1       26.5450   27.7890  102.3320 N.pl3 146  ARG146      0.1354
     37  NH2       25.1970   29.6300  102.0830 N.pl3 146  ARG146      0.1354
     38  N         20.4260   26.0660  105.6480 N.am  147  VAL147     -0.1966
     39  CA        19.2260   26.6450  106.2500 C.3   147  VAL147      0.1727
     40  C         18.1370   25.6090  106.5400 C.2   147  VAL147      0.2616
     41  O         17.4910   25.6600  107.5900 O.2   147  VAL147     -0.2715
     42  CB        18.6630   27.8010  105.3710 C.3   147  VAL147      0.0290
     43  CG1       17.3100   28.2820  105.8780 C.3   147  VAL147      0.0023
     44  CG2       19.6500   28.9630  105.3130 C.3   147  VAL147      0.0023
     45  N         17.9400   24.6740  105.6130 N.am  148  ILE148     -0.1963
     46  CA        16.8840   23.6630  105.7340 C.3   148  ILE148      0.1727
     47  C         17.4240   22.2850  106.1660 C.2   148  ILE148      0.2616
     48  O         16.6910   21.4730  106.7390 O.2   148  ILE148     -0.2715
     49  CB        16.0480   23.5610  104.4200 C.3   148  ILE148      0.0290
     50  CG1       15.5210   24.9450  104.0230 C.3   148  ILE148      0.0022
     51  CG2       14.8890   22.5710  104.5660 C.3   148  ILE148      0.0023
     52  CD1       15.0630   25.0520  102.5860 C.3   148  ILE148      0.0001
     53  N         18.7080   22.0440  105.9160 N.am  149  GLY149     -0.1955
     54  CA        19.3270   20.7490  106.1990 C.3   149  GLY149      0.1869
     55  C         19.0260   19.7330  105.1110 C.2   149  GLY149      0.2309
     56  O         18.4410   20.0740  104.0760 O.2   149  GLY149     -0.2863
     57  N         16.7980   17.7270  104.6990 N.3   151  ALA151     -0.1245
     58  CA        15.3850   17.6830  104.3280 C.3   151  ALA151      0.1562
     59  C         14.9930   18.5470  103.1160 C.2   151  ALA151      0.2260
     60  O         13.8900   18.4010  102.5920 O.2   151  ALA151     -0.2867
     61  CB        14.5210   18.0380  105.5300 C.3   151  ALA151      0.0290
     62  N         11.7950   17.8500  100.4670 N.3   155  ILE155     -0.1245
     63  CA        10.8660   18.9880  100.4140 C.3   155  ILE155      0.1561
     64  C         10.7430   19.5430   98.9850 C.2   155  ILE155      0.2260
     65  O          9.6330   19.8030   98.5140 O.2   155  ILE155     -0.2867
     66  CB        11.2300   20.0980  101.4460 C.3   155  ILE155      0.0252
     67  CG1       10.8490   19.6440  102.8610 C.3   155  ILE155      0.0019
     68  CG2       10.5110   21.4080  101.1250 C.3   155  ILE155      0.0019
     69  CD1       11.6390   20.3320  103.9750 C.3   155  ILE155      0.0001
     70  N          8.6360   17.2290   97.1380 N.3   158  ARG158     -0.1245
     71  CA         7.2330   17.3880   97.5540 C.3   158  ARG158      0.1563
     72  C          6.5860   18.5860   96.8600 C.2   158  ARG158      0.2260
     73  O          5.4510   18.5000   96.3800 O.2   158  ARG158     -0.2867
     74  CB         7.1060   17.5120   99.0810 C.3   158  ARG158      0.0307
     75  CG         5.6540   17.6170   99.5890 C.3   158  ARG158      0.0489
     76  CD         5.5150   17.1980  101.0510 C.3   158  ARG158      0.2205
     77  NE         6.3780   17.9850  101.9270 N.pl3 158  ARG158     -0.0865
     78  CZ         6.9340   17.5360  103.0480 C.cat 158  ARG158      0.5346
     79  NH1        6.7310   16.2890  103.4570 N.pl3 158  ARG158      0.1354
     80  NH2        7.7040   18.3420  103.7610 N.pl3 158  ARG158      0.1354
     81  N         15.8020    8.4450  100.6020 N.3   192  LEU192     -0.1245
     82  CA        15.2590    9.5090  101.4570 C.3   192  LEU192      0.1561
     83  C         13.9280   10.0760  100.9520 C.2   192  LEU192      0.2260
     84  O         13.0150   10.2920  101.7420 O.2   192  LEU192     -0.2867
     85  CB        16.2930   10.6260  101.6410 C.3   192  LEU192      0.0270
     86  CG        15.9500   11.8160  102.5430 C.3   192  LEU192      0.0019
     87  CD1       15.9480   11.4250  104.0210 C.3   192  LEU192      0.0001
     88  CD2       16.9370   12.9310  102.2930 C.3   192  LEU192      0.0001
     89  N         11.3000    7.4080  101.4700 N.3   195  SER195     -0.1202
     90  CA        11.0070    7.3440  102.9220 C.3   195  SER195      0.2020
     91  C          9.9200    8.3160  103.3700 C.2   195  SER195      0.2618
     92  O          9.1730    8.0320  104.3100 O.2   195  SER195     -0.2717
     93  CB        12.2630    7.6350  103.7420 C.3   195  SER195      0.2103
     94  OG        13.2330    6.6220  103.5760 O.3   195  SER195     -0.2182
     95  N          9.8580    9.4700  102.7100 N.am  196  TYR196     -0.1975
     96  CA         8.8590   10.4920  103.0060 C.3   196  TYR196      0.1639
     97  C          7.5270   10.1530  102.3460 C.2   196  TYR196      0.2290
     98  O          6.5660   10.9100  102.4630 O.2   196  TYR196     -0.2864
     99  CB         9.3320   11.8560  102.4950 C.3   196  TYR196      0.0560
    100  CG        10.3000   12.6230  103.3770 C.ar  196  TYR196     -0.0198
    101  CD1       10.0020   13.9240  103.7870 C.ar  196  TYR196     -0.0009
    102  CD2       11.5170   12.0740  103.7710 C.ar  196  TYR196     -0.0009
    103  CE1       10.8840   14.6500  104.5770 C.ar  196  TYR196      0.0417
    104  CE2       12.4080   12.7910  104.5630 C.ar  196  TYR196      0.0417
    105  CZ        12.0800   14.0800  104.9620 C.ar  196  TYR196      0.1957
    106  OH        12.9540   14.8040  105.7400 O.3   196  TYR196     -0.2866
@<TRIPOS>BOND
     1    73    72    2
     2    72    71    1
     3    70    71    1
     4    71    74    1
     5    65    64    2
     6    64    63    1
     7    74    75    1
     8    75    76    1
     9    21    20    2
    10    63    62    1
    11    63    66    1
    12    81    82    1
    13    83    82    1
    14    83    84    2
    15    76    77    1
    16    20    19    1
    17    68    66    1
    18    66    67    1
    19    82    85    1
    20    89    90    1
    21    85    86    1
    22    19    18    1
    23    19    22    1
    24    77    78    2
    25    37    35    1
    26    88    86    1
    27    36    35    1
    28    97    98    2
    29    97    96    1
    30    99    96    1
    31    99   100    1
    32    86    87    1
    33    52    50    1
    34    60    59    2
    35    95    96    1
    36    95    91   am
    37    35    34    2
    38    67    69    1
    39    90    91    1
    40    90    93    1
    41    22    23    1
    42    78    79    1
    43    78    80    1
    44    59    58    1
    45    91    92    2
    46   100   102   ar
    47   100   101   ar
    48    23    24    1
    49    94    93    1
    50   102   104   ar
    51   101   103   ar
    52    25    24    2
    53    50    49    1
    54    56    55    2
    55    34    33    1
    56    24    26   am
    57    58    57    1
    58    58    61    1
    59    27    28    1
    60    49    51    1
    61    49    46    1
    62   104   105   ar
    63   103   105   ar
    64    12    11    2
    65   105   106    1
    66    32    33    1
    67    32    31    1
    68    55    54    1
    69    31    28    1
    70    44    42    1
    71    42    43    1
    72    42    39    1
    73    28    29    1
    74     4     3    2
    75    45    46    1
    76    45    40   am
    77    11    10    1
    78    38    39    1
    79    38    29   am
    80    46    47    1
    81    53    47   am
    82    53    54    1
    83    47    48    2
    84    39    40    1
    85    29    30    2
    86    40    41    2
    87     3     9   am
    88     3     2    1
    89     7     6    2
    90    10     9    1
    91    10    13    1
    92     2     1    1
    93     2     5    1
    94    17    15   am
    95    13    14    1
    96     6     5    1
    97     6     8   am
    98    15    16    2
    99    15    14    1
