@<TRIPOS>MOLECULE
tmp/3u7bB00.pdb
 115 109 0 0 0
SMALL
GASTEIGER

@<TRIPOS>ATOM
      1  N         28.6560   15.0180    9.8410 N.3   101  ASN101     -0.1225
      2  CA        27.4580   14.4520   10.4490 C.3   101  ASN101      0.1785
      3  C         27.7260   13.1220   11.1710 C.2   101  ASN101      0.2597
      4  O         27.3870   12.9610   12.3480 O.2   101  ASN101     -0.2718
      5  CB        26.3770   14.2850    9.3780 C.3   101  ASN101      0.1169
      6  CG        25.0110   13.9880    9.9560 C.2   101  ASN101      0.2627
      7  OD1       24.8290   13.8800   11.1780 O.2   101  ASN101     -0.2716
      8  ND2       24.0330   13.8500    9.0700 N.am  101  ASN101     -0.0877
      9  N         28.3620   12.1870   10.4720 N.am  102  GLN102     -0.1979
     10  CA        28.6400   10.8700   11.0460 C.3   102  GLN102      0.1601
     11  C         29.6670   10.8660   12.1890 C.2   102  GLN102      0.2287
     12  O         29.4590   10.1720   13.1860 O.2   102  GLN102     -0.2864
     13  CB        28.9970    9.8480    9.9550 C.3   102  GLN102      0.0394
     14  CG        27.8810    9.6210    8.9090 C.3   102  GLN102      0.0908
     15  CD        26.4950    9.3430    9.5130 C.2   102  GLN102      0.2608
     16  OE1       26.3300    8.4560   10.3610 O.2   102  GLN102     -0.2717
     17  NE2       25.4890   10.0980    9.0590 N.am  102  GLN102     -0.0878
     18  N         28.0800   12.3520   15.3790 N.3   105  GLN105     -0.1245
     19  CA        27.1350   11.3690   15.9160 C.3   105  GLN105      0.1566
     20  C         27.8570   10.2610   16.6690 C.2   105  GLN105      0.2260
     21  O         27.3770    9.7970   17.7050 O.2   105  GLN105     -0.2867
     22  CB        26.2740   10.7630   14.8110 C.3   105  GLN105      0.0367
     23  CG        25.1010   11.6440   14.3730 C.3   105  GLN105      0.0905
     24  CD        24.1200   10.8760   13.5090 C.2   105  GLN105      0.2608
     25  OE1       23.6370    9.8170   13.9010 O.2   105  GLN105     -0.2717
     26  NE2       23.8250   11.4050   12.3270 N.am  105  GLN105     -0.0878
     27  N         24.5280   22.8000   13.7450 N.3   146  ARG146     -0.1231
     28  CA        25.2730   23.0990   12.5260 C.3   146  ARG146      0.1694
     29  C         25.6720   21.8500   11.7530 C.2   146  ARG146      0.2592
     30  O         25.5040   21.7920   10.5350 O.2   146  ARG146     -0.2718
     31  CB        26.5080   23.9470   12.8390 C.3   146  ARG146      0.0321
     32  CG        26.1890   25.4080   13.1210 C.3   146  ARG146      0.0489
     33  CD        27.4410   26.2970   13.1000 C.3   146  ARG146      0.2205
     34  NE        28.5270   25.7840   13.9430 N.pl3 146  ARG146     -0.0865
     35  CZ        28.6670   26.0370   15.2440 C.cat 146  ARG146      0.5346
     36  NH1       27.7810   26.7990   15.8860 N.pl3 146  ARG146      0.1354
     37  NH2       29.6980   25.5150   15.9090 N.pl3 146  ARG146      0.1354
     38  N         26.1780   20.8470   12.4680 N.am  147  VAL147     -0.1966
     39  CA        26.7220   19.6460   11.8430 C.3   147  VAL147      0.1727
     40  C         25.6440   18.6120   11.4900 C.2   147  VAL147      0.2616
     41  O         25.6770   18.0150   10.4080 O.2   147  VAL147     -0.2715
     42  CB        27.8190   19.0180   12.7320 C.3   147  VAL147      0.0290
     43  CG1       28.2670   17.6730   12.1880 C.3   147  VAL147      0.0023
     44  CG2       29.0160   19.9690   12.8560 C.3   147  VAL147      0.0023
     45  N         24.6910   18.4120   12.3960 N.am  148  ILE148     -0.1963
     46  CA        23.6880   17.3530   12.2570 C.3   148  ILE148      0.1727
     47  C         22.3120   17.8730   11.7980 C.2   148  ILE148      0.2617
     48  O         21.5320   17.1280   11.2010 O.2   148  ILE148     -0.2715
     49  CB        23.5650   16.5360   13.5770 C.3   148  ILE148      0.0290
     50  CG1       24.9560   16.0680   14.0470 C.3   148  ILE148      0.0022
     51  CG2       22.6040   15.3530   13.4190 C.3   148  ILE148      0.0023
     52  CD1       24.9710   15.4380   15.4270 C.3   148  ILE148      0.0001
     53  N         22.0320   19.1470   12.0600 N.am  149  GLY149     -0.1940
     54  CA        20.7130   19.7280   11.7930 C.3   149  GLY149      0.2014
     55  C         19.7320   19.4560   12.9230 C.2   149  GLY149      0.2639
     56  O         20.0980   18.8880   13.9550 O.2   149  GLY149     -0.2714
     57  N         18.4770   19.8550   12.7180 N.am  150  GLU150     -0.1963
     58  CA        17.3880   19.6180   13.6770 C.3   150  GLU150      0.1733
     59  C         17.3580   18.1740   14.2070 C.2   150  GLU150      0.2616
     60  O         17.0410   17.9410   15.3730 O.2   150  GLU150     -0.2715
     61  CB        16.0530   19.9730   13.0120 C.3   150  GLU150      0.0429
     62  CG        14.7950   19.6890   13.8340 C.3   150  GLU150      0.1163
     63  CD        13.5240   20.0970   13.1040 C.2   150  GLU150      0.3649
     64  OE1       13.5240   20.0270   11.8560 O.co2 150  GLU150     -0.2457
     65  OE2       12.5290   20.4800   13.7740 O.co2 150  GLU150     -0.2457
     66  N         17.7030   17.2230   13.3420 N.am  151  ALA151     -0.1977
     67  CA        17.7160   15.7930   13.6770 C.3   151  ALA151      0.1597
     68  C         18.5660   15.4110   14.9000 C.2   151  ALA151      0.2287
     69  O         18.3530   14.3490   15.4810 O.2   151  ALA151     -0.2864
     70  CB        18.1420   14.9690   12.4620 C.3   151  ALA151      0.0319
     71  N         17.8420   12.2270   17.4390 N.3   155  ILE155     -0.1245
     72  CA        18.9790   11.2950   17.4530 C.3   155  ILE155      0.1561
     73  C         19.5410   11.1140   18.8730 C.2   155  ILE155      0.2260
     74  O         19.8080    9.9810   19.2950 O.2   155  ILE155     -0.2867
     75  CB        20.0670   11.7020   16.4300 C.3   155  ILE155      0.0252
     76  CG1       19.5730   11.4210   15.0020 C.3   155  ILE155      0.0019
     77  CG2       21.3850   10.9650   16.6900 C.3   155  ILE155      0.0019
     78  CD1       20.3750   12.1430   13.9160 C.3   155  ILE155      0.0001
     79  N         17.1590    8.9010   20.6860 N.3   158  ARG158     -0.1245
     80  CA        17.3500    7.5150   20.2370 C.3   158  ARG158      0.1563
     81  C         18.5630    6.8540   20.9080 C.2   158  ARG158      0.2260
     82  O         18.4940    5.7010   21.3440 O.2   158  ARG158     -0.2867
     83  CB        17.4810    7.4490   18.7070 C.3   158  ARG158      0.0307
     84  CG        17.5790    6.0200   18.1520 C.3   158  ARG158      0.0489
     85  CD        17.1550    5.9600   16.6900 C.3   158  ARG158      0.2205
     86  NE        18.0010    6.7910   15.8440 N.pl3 158  ARG158     -0.0865
     87  CZ        17.5800    7.4530   14.7730 C.cat 158  ARG158      0.5346
     88  NH1       16.3060    7.3980   14.3970 N.pl3 158  ARG158      0.1354
     89  NH2       18.4440    8.1730   14.0720 N.pl3 158  ARG158      0.1354
     90  N          8.4430   16.0960   17.5130 N.3   192  LEU192     -0.1245
     91  CA         9.4860   15.5320   16.6440 C.3   192  LEU192      0.1561
     92  C         10.0530   14.1970   17.1430 C.2   192  LEU192      0.2260
     93  O         10.2220   13.2630   16.3590 O.2   192  LEU192     -0.2867
     94  CB        10.6100   16.5460   16.4370 C.3   192  LEU192      0.0270
     95  CG        11.7230   16.1870   15.4460 C.3   192  LEU192      0.0019
     96  CD1       11.2060   16.1720   14.0070 C.3   192  LEU192      0.0001
     97  CD2       12.8730   17.1730   15.5970 C.3   192  LEU192      0.0001
     98  N          7.4030   11.6450   16.6250 N.3   195  SER195     -0.1202
     99  CA         7.2780   11.3940   15.1740 C.3   195  SER195      0.2020
    100  C          8.2900   10.3760   14.6500 C.2   195  SER195      0.2618
    101  O          8.0110    9.6450   13.6930 O.2   195  SER195     -0.2717
    102  CB         7.4460   12.6950   14.3920 C.3   195  SER195      0.2103
    103  OG         6.3480   13.5580   14.6230 O.3   195  SER195     -0.2182
    104  N          9.4710   10.3460   15.2660 N.am  196  TYR196     -0.1975
    105  CA        10.4870    9.3400   14.9600 C.3   196  TYR196      0.1639
    106  C         10.1360    7.9710   15.5590 C.2   196  TYR196      0.2290
    107  O         10.8720    7.0000   15.3690 O.2   196  TYR196     -0.2864
    108  CB        11.8460    9.7840   15.5070 C.3   196  TYR196      0.0560
    109  CG        12.6670   10.7160   14.6320 C.ar  196  TYR196     -0.0198
    110  CD1       13.9600   10.3650   14.2470 C.ar  196  TYR196     -0.0009
    111  CD2       12.1770   11.9630   14.2310 C.ar  196  TYR196     -0.0009
    112  CE1       14.7380   11.2160   13.4670 C.ar  196  TYR196      0.0417
    113  CE2       12.9520   12.8280   13.4520 C.ar  196  TYR196      0.0417
    114  CZ        14.2310   12.4420   13.0750 C.ar  196  TYR196      0.1957
    115  OH        15.0150   13.2740   12.3100 O.3   196  TYR196     -0.2866
@<TRIPOS>BOND
     1    14    15    1
     2    14    13    1
     3    17    15   am
     4     8     6   am
     5     5     6    1
     6     5     2    1
     7    15    16    2
     8     1     2    1
     9    13    10    1
    10     6     7    2
    11    41    40    2
    12     2     3    1
    13     9    10    1
    14     9     3   am
    15    30    29    2
    16    10    11    1
    17     3     4    2
    18    48    47    2
    19    40    39    1
    20    40    45   am
    21    29    38   am
    22    29    28    1
    23    54    53    1
    24    54    55    1
    25    47    53   am
    26    47    46    1
    27    39    38    1
    28    39    42    1
    29    64    63   ar
    30    43    42    1
    31    11    12    2
    32    46    45    1
    33    46    49    1
    34   115   114    1
    35    26    24   am
    36    70    67    1
    37    28    31    1
    38    28    27    1
    39    57    55   am
    40    57    58    1
    41    42    44    1
    42    31    32    1
    43    55    56    2
    44    61    58    1
    45    61    62    1
    46   114   113   ar
    47   114   112   ar
    48    33    32    1
    49    33    34    1
    50    63    65   ar
    51    63    62    1
    52    66    67    1
    53    66    59   am
    54    51    49    1
    55   113   111   ar
    56   112   110   ar
    57    24    25    2
    58    24    23    1
    59    49    50    1
    60    67    68    1
    61    58    59    1
    62   101   100    2
    63    78    76    1
    64    34    35    2
    65    96    95    1
    66    50    52    1
    67    89    87    1
    68    59    60    2
    69   111   109   ar
    70   110   109   ar
    71    23    22    1
    72   102   103    1
    73   102    99    1
    74    88    87    1
    75   109   108    1
    76   100    99    1
    77   100   104   am
    78    87    86    2
    79    22    19    1
    80    68    69    2
    81   105   104    1
    82   105   108    1
    83   105   106    1
    84    76    75    1
    85    99    98    1
    86    35    36    1
    87    35    37    1
    88   107   106    2
    89    18    19    1
    90    95    97    1
    91    95    94    1
    92    86    85    1
    93    19    20    1
    94    93    92    2
    95    75    77    1
    96    75    72    1
    97    94    91    1
    98    91    92    1
    99    91    90    1
   100    20    21    2
   101    85    84    1
   102    71    72    1
   103    72    73    1
   104    84    83    1
   105    83    80    1
   106    73    74    2
   107    80    79    1
   108    80    81    1
   109    81    82    2
