@<TRIPOS>MOLECULE
tmp/3u7hA00.pdb
 139 131 0 0 0
SMALL
GASTEIGER

@<TRIPOS>ATOM
      1  N          4.8820  -11.7730   44.1710 N.3    29  ALA29      -0.1231
      2  CA         6.0370  -12.6330   44.1830 C.3    29  ALA29       0.1694
      3  C          6.0890  -13.2480   45.5770 C.2    29  ALA29       0.2592
      4  O          5.3690  -12.8140   46.4720 O.2    29  ALA29      -0.2718
      5  CB         7.3100  -11.8380   43.8830 C.3    29  ALA29       0.0304
      6  N          6.9320  -14.2520   45.7680 N.am   30  LEU30      -0.1966
      7  CA         7.0480  -14.8960   47.0670 C.3    30  LEU30       0.1728
      8  C          8.2720  -14.3720   47.8390 C.2    30  LEU30       0.2616
      9  O          8.1350  -13.5960   48.7970 O.2    30  LEU30      -0.2715
     10  CB         7.1300  -16.4110   46.8910 C.3    30  LEU30       0.0311
     11  CG         7.5270  -17.1650   48.1570 C.3    30  LEU30       0.0022
     12  CD1        6.4730  -16.9350   49.2450 C.3    30  LEU30       0.0001
     13  CD2        7.7580  -18.6500   47.8670 C.3    30  LEU30       0.0001
     14  N          9.4630  -14.7850   47.4120 N.am   31  ASP31      -0.1957
     15  CA        10.6990  -14.4020   48.0920 C.3    31  ASP31       0.1840
     16  C         11.0080  -12.9240   47.9260 C.2    31  ASP31       0.2622
     17  O         11.1020  -12.4210   46.7980 O.2    31  ASP31      -0.2715
     18  CB        11.8880  -15.2190   47.5680 C.3    31  ASP31       0.1450
     19  CG        11.7270  -16.7130   47.8060 C.2    31  ASP31       0.3671
     20  OD1       11.0990  -17.0930   48.8010 O.co2  31  ASP31      -0.2456
     21  OD2       12.2070  -17.5140   46.9940 O.co2  31  ASP31      -0.2456
     22  N         11.2050  -12.2490   49.0570 N.am   32  GLY32      -0.1954
     23  CA        11.4820  -10.8290   49.0820 C.3    32  GLY32       0.1869
     24  C         10.2190   -9.9870   49.0380 C.2    32  GLY32       0.2309
     25  O         10.2780   -8.7580   49.1470 O.2    32  GLY32      -0.2863
     26  N         21.2730  -13.0600   53.2420 N.3    42  VAL42      -0.1231
     27  CA        20.7280  -12.6970   51.9450 C.3    42  VAL42       0.1692
     28  C         19.9860  -13.8830   51.3290 C.2    42  VAL42       0.2592
     29  O         18.9140  -13.7210   50.7540 O.2    42  VAL42      -0.2718
     30  CB        21.8360  -12.2240   50.9830 C.3    42  VAL42       0.0266
     31  CG1       21.2860  -12.0910   49.5490 C.3    42  VAL42       0.0020
     32  CG2       22.4310  -10.9110   51.4740 C.3    42  VAL42       0.0020
     33  N         20.5640  -15.0720   51.4600 N.am   43  PHE43      -0.1976
     34  CA        19.9710  -16.2810   50.9030 C.3    43  PHE43       0.1639
     35  C         19.7200  -17.2880   52.0270 C.2    43  PHE43       0.2290
     36  O         20.5210  -17.3710   52.9670 O.2    43  PHE43      -0.2864
     37  CB        20.9030  -16.8770   49.8410 C.3    43  PHE43       0.0560
     38  CG        20.9660  -16.1460   48.5350 C.ar   43  PHE43      -0.0200
     39  CD1       19.8530  -15.4980   47.9880 C.ar   43  PHE43      -0.0042
     40  CD2       22.1810  -16.1350   47.8250 C.ar   43  PHE43      -0.0042
     41  CE1       19.9350  -14.8840   46.7520 C.ar   43  PHE43      -0.0003
     42  CE2       22.2690  -15.5020   46.5920 C.ar   43  PHE43      -0.0003
     43  CZ        21.1300  -14.8820   46.0540 C.ar   43  PHE43      -0.0000
     44  N          5.9400  -17.0430   41.3660 N.3    75  THR75      -0.1203
     45  CA         7.2750  -17.1130   41.9210 C.3    75  THR75       0.1994
     46  C          8.2110  -17.8350   40.9510 C.2    75  THR75       0.2618
     47  O          7.8730  -18.8910   40.3990 O.2    75  THR75      -0.2717
     48  CB         7.2450  -17.7980   43.3300 C.3    75  THR75       0.1784
     49  OG1        8.5780  -17.9400   43.8540 O.3    75  THR75      -0.2211
     50  CG2        6.5890  -19.1560   43.2620 C.3    75  THR75       0.0376
     51  N          9.3630  -17.2240   40.6960 N.am   76  ASN76      -0.1960
     52  CA        10.4180  -17.8930   39.9540 C.3    76  ASN76       0.1819
     53  C         11.2150  -18.7310   40.9400 C.2    76  ASN76       0.2621
     54  O         11.6830  -18.2140   41.9640 O.2    76  ASN76      -0.2715
     55  CB        11.3960  -16.9070   39.3110 C.3    76  ASN76       0.1195
     56  CG        10.8270  -16.2000   38.0910 C.2    76  ASN76       0.2630
     57  OD1        9.8070  -16.6010   37.5270 O.2    76  ASN76      -0.2716
     58  ND2       11.5190  -15.1500   37.6600 N.am   76  ASN76      -0.0877
     59  N         11.4010  -20.0010   40.6040 N.am   77  GLN77      -0.1977
     60  CA        12.2530  -20.8910   41.3860 C.3    77  GLN77       0.1601
     61  C         13.0830  -21.7620   40.4560 C.2    77  GLN77       0.2287
     62  O         12.9020  -22.9780   40.4110 O.2    77  GLN77      -0.2864
     63  CB        11.4150  -21.7890   42.3000 C.3    77  GLN77       0.0394
     64  CG        10.6130  -21.0550   43.3700 C.3    77  GLN77       0.0908
     65  CD        11.5000  -20.3100   44.3470 C.2    77  GLN77       0.2608
     66  OE1       12.6780  -20.6350   44.5010 O.2    77  GLN77      -0.2717
     67  NE2       10.9380  -19.3110   45.0200 N.am   77  GLN77      -0.0878
     68  N         15.9240  -22.7410   40.7580 N.3    78  GLY78      -0.1225
     69  CA        16.7130  -23.6880   41.5300 C.3    78  GLY78       0.1811
     70  C         16.1450  -25.0860   41.3890 C.2    78  GLY78       0.2280
     71  O         16.8700  -26.0760   41.4240 O.2    78  GLY78      -0.2866
     72  N         17.1500  -26.4250   37.9620 N.3    81  ARG81      -0.1245
     73  CA        18.5940  -26.6790   37.9890 C.3    81  ARG81       0.1563
     74  C         18.9710  -27.8310   38.9190 C.2    81  ARG81       0.2260
     75  O         20.1410  -28.2010   39.0010 O.2    81  ARG81      -0.2867
     76  CB        19.3620  -25.4300   38.4270 C.3    81  ARG81       0.0307
     77  CG        19.2900  -24.2690   37.4610 C.3    81  ARG81       0.0489
     78  CD        19.5820  -24.7210   36.0530 C.3    81  ARG81       0.2205
     79  NE        20.3400  -23.7240   35.2990 N.pl3  81  ARG81      -0.0865
     80  CZ        19.9200  -23.1130   34.1920 C.cat  81  ARG81       0.5346
     81  NH1       18.7250  -23.3730   33.6660 N.pl3  81  ARG81       0.1354
     82  NH2       20.7110  -22.2290   33.5990 N.pl3  81  ARG81       0.1354
     83  N         18.9070  -27.7950   42.1180 N.3    83  LYS83      -0.1245
     84  CA        19.5620  -27.3030   43.3210 C.3    83  LYS83       0.1561
     85  C         18.5830  -27.2080   44.4890 C.2    83  LYS83       0.2260
     86  O         18.9950  -27.1240   45.6470 O.2    83  LYS83      -0.2867
     87  CB        20.2420  -25.9550   43.0530 C.3    83  LYS83       0.0271
     88  CG        21.4320  -26.0470   42.0890 C.3    83  LYS83       0.0035
     89  CD        22.5660  -26.9120   42.6690 C.3    83  LYS83       0.0206
     90  CE        23.4980  -27.4490   41.5950 C.3    83  LYS83       0.1093
     91  NZ        24.1690  -26.3670   40.8430 N.3    83  LYS83      -0.1314
     92  N          9.0600  -18.0640   33.0530 N.3   116  ARG116     -0.1231
     93  CA         9.9640  -17.3270   33.9360 C.3   116  ARG116      0.1694
     94  C          9.7130  -15.8370   33.8030 C.2   116  ARG116      0.2591
     95  O          9.8620  -15.2770   32.7220 O.2   116  ARG116     -0.2718
     96  CB        11.4230  -17.6700   33.6200 C.3   116  ARG116      0.0321
     97  CG        12.4470  -16.9180   34.4740 C.3   116  ARG116      0.0489
     98  CD        13.8510  -17.5050   34.3630 C.3   116  ARG116      0.2205
     99  NE        14.8030  -16.6860   35.1080 N.pl3 116  ARG116     -0.0865
    100  CZ        14.9500  -16.7220   36.4280 C.cat 116  ARG116      0.5346
    101  NH1       14.2310  -17.5630   37.1630 N.pl3 116  ARG116      0.1354
    102  NH2       15.8290  -15.9160   37.0170 N.pl3 116  ARG116      0.1354
    103  N          9.2710  -15.2090   34.8940 N.am  117  LYS117     -0.1980
    104  CA         9.1190  -13.7560   34.9290 C.3   117  LYS117      0.1596
    105  C         10.4290  -13.1530   34.4060 C.2   117  LYS117      0.2287
    106  O         11.5030  -13.6240   34.7580 O.2   117  LYS117     -0.2864
    107  CB         8.8360  -13.2600   36.3570 C.3   117  LYS117      0.0298
    108  CG         7.5040  -13.7380   36.9790 C.3   117  LYS117      0.0038
    109  CD         7.3520  -13.2860   38.4580 C.3   117  LYS117      0.0206
    110  CE         8.4190  -13.8990   39.3620 C.3   117  LYS117      0.1093
    111  NZ         8.3480  -13.4270   40.7870 N.3   117  LYS117     -0.1314
    112  N          9.3650   -7.6300   44.5140 N.3   145  ASP145     -0.1239
    113  CA        10.5770   -6.9350   44.9570 C.3   145  ASP145      0.1674
    114  C         11.6540   -6.8220   43.8650 C.2   145  ASP145      0.2266
    115  O         12.5760   -6.0060   43.9860 O.2   145  ASP145     -0.2867
    116  CB        11.1680   -7.6580   46.1580 C.3   145  ASP145      0.1410
    117  CG        11.5470   -9.0650   45.8350 C.2   145  ASP145      0.3668
    118  OD1       10.6270   -9.9000   45.6400 O.co2 145  ASP145     -0.2456
    119  OD2       12.7660   -9.3310   45.7620 O.co2 145  ASP145     -0.2456
    120  N         22.0720   -1.7930   48.2560 N.3   159  LYS159     -0.1245
    121  CA        22.2010   -2.5350   47.0010 C.3   159  LYS159      0.1561
    122  C         20.9430   -2.4270   46.1530 C.2   159  LYS159      0.2260
    123  O         19.8270   -2.4990   46.6640 O.2   159  LYS159     -0.2867
    124  CB        22.5190   -4.0120   47.2620 C.3   159  LYS159      0.0271
    125  CG        21.4200   -4.7590   47.9940 C.3   159  LYS159      0.0035
    126  CD        21.9070   -6.1100   48.5040 C.3   159  LYS159      0.0206
    127  CE        20.7430   -7.0030   48.8940 C.3   159  LYS159      0.1093
    128  NZ        20.0210   -7.5140   47.6760 N.3   159  LYS159     -0.1314
    129  N         18.2520   -6.9990   42.6380 N.3   162  PHE162     -0.1241
    130  CA        18.9440   -8.0030   41.8360 C.3   162  PHE162      0.1605
    131  C         18.3690   -8.0730   40.4180 C.2   162  PHE162      0.2264
    132  O         19.0330   -8.5610   39.5060 O.2   162  PHE162     -0.2867
    133  CB        18.8750   -9.3900   42.5160 C.3   162  PHE162      0.0534
    134  CG        17.5480  -10.0920   42.3580 C.ar  162  PHE162     -0.0203
    135  CD1       17.4140  -11.1740   41.4830 C.ar  162  PHE162     -0.0042
    136  CD2       16.4310   -9.6770   43.0740 C.ar  162  PHE162     -0.0042
    137  CE1       16.1980  -11.8320   41.3400 C.ar  162  PHE162     -0.0003
    138  CE2       15.2080  -10.3270   42.9280 C.ar  162  PHE162     -0.0003
    139  CZ        15.0930  -11.4060   42.0520 C.ar  162  PHE162     -0.0000
@<TRIPOS>BOND
     1    95    94    2
     2    92    93    1
     3    82    80    1
     4    96    93    1
     5    96    97    1
     6    81    80    1
     7    94    93    1
     8    94   103   am
     9    80    79    2
    10    98    97    1
    11    98    99    1
    12   105   106    2
    13   105   104    1
    14   103   104    1
    15   104   107    1
    16    99   100    2
    17    79    78    1
    18    78    77    1
    19   107   108    1
    20   100   102    1
    21   100   101    1
    22   108   109    1
    23    77    76    1
    24    57    56    2
    25    58    56   am
    26    72    73    1
    27    73    76    1
    28    73    74    1
    29    56    55    1
    30   109   110    1
    31    74    75    2
    32    55    52    1
    33   110   111    1
    34   132   131    2
    35    52    51    1
    36    52    53    1
    37    47    46    2
    38    62    61    2
    39   131   130    1
    40    61    60    1
    41    59    53   am
    42    59    60    1
    43    51    46   am
    44    68    69    1
    45    91    90    1
    46    53    54    2
    47    46    45    1
    48   137   135   ar
    49   137   139   ar
    50    44    45    1
    51    60    63    1
    52    70    71    2
    53    70    69    1
    54   135   134   ar
    55    90    89    1
    56   130   133    1
    57   130   129    1
    58    45    48    1
    59   139   138   ar
    60    88    89    1
    61    88    87    1
    62    83    84    1
    63    63    64    1
    64   134   133    1
    65   134   136   ar
    66   138   136   ar
    67    87    84    1
    68    50    48    1
    69    84    85    1
    70    48    49    1
    71    64    65    1
    72   114   115    2
    73   114   113    1
    74     5     2    1
    75     1     2    1
    76     2     3    1
    77    65    66    2
    78    65    67   am
    79    85    86    2
    80   112   113    1
    81   113   116    1
    82     3     6   am
    83     3     4    2
    84   118   117   ar
    85   119   117   ar
    86     6     7    1
    87   117   116    1
    88    43    42   ar
    89    43    41   ar
    90   122   123    2
    91   122   121    1
    92    42    40   ar
    93    41    39   ar
    94    17    16    2
    95    10     7    1
    96    10    11    1
    97    21    19   ar
    98   121   124    1
    99   121   120    1
   100     7     8    1
   101   124   125    1
   102    14     8   am
   103    14    15    1
   104    18    19    1
   105    18    15    1
   106   128   127    1
   107    19    20   ar
   108    40    38   ar
   109     8     9    2
   110    13    11    1
   111    16    15    1
   112    16    22   am
   113    39    38   ar
   114   125   126    1
   115    11    12    1
   116   126   127    1
   117    38    37    1
   118    24    23    1
   119    24    25    2
   120    22    23    1
   121    31    30    1
   122    37    34    1
   123    29    28    2
   124    34    33    1
   125    34    35    1
   126    30    32    1
   127    30    27    1
   128    28    33   am
   129    28    27    1
   130    27    26    1
   131    35    36    2
