@<TRIPOS>MOLECULE
tmp/3u7kA00.pdb
 151 143 0 0 0
SMALL
GASTEIGER

@<TRIPOS>ATOM
      1  N         -9.8330   92.1030   65.9730 N.3    45  GLN45      -0.1245
      2  CA        -9.0100   92.0940   67.1840 C.3    45  GLN45       0.1566
      3  C         -8.1190   93.3280   67.2750 C.2    45  GLN45       0.2260
      4  O         -7.3830   93.5080   68.2490 O.2    45  GLN45      -0.2867
      5  CB        -8.1850   90.8020   67.2730 C.3    45  GLN45       0.0367
      6  CG        -9.0420   89.5600   67.5570 C.3    45  GLN45       0.0905
      7  CD        -8.2350   88.2870   67.6960 C.2    45  GLN45       0.2608
      8  OE1       -7.0720   88.3100   68.1110 O.2    45  GLN45      -0.2717
      9  NE2       -8.8500   87.1600   67.3500 N.am   45  GLN45      -0.0878
     10  N        -17.4130   93.1650   65.9370 N.3    56  ARG56      -0.1231
     11  CA       -17.3600   92.3790   67.1680 C.3    56  ARG56       0.1694
     12  C        -16.0670   91.5790   67.1610 C.2    56  ARG56       0.2593
     13  O        -15.7390   90.9570   66.1570 O.2    56  ARG56      -0.2718
     14  CB       -18.5300   91.3940   67.2430 C.3    56  ARG56       0.0321
     15  CG       -19.9000   92.0100   67.3570 C.3    56  ARG56       0.0489
     16  CD       -20.9680   90.9140   67.3260 C.3    56  ARG56       0.2205
     17  NE       -21.0230   90.1450   68.5730 N.pl3  56  ARG56      -0.0865
     18  CZ       -21.8080   89.0860   68.7800 C.cat  56  ARG56       0.5346
     19  NH1      -21.7870   88.4710   69.9560 N.pl3  56  ARG56       0.1354
     20  NH2      -22.6120   88.6370   67.8230 N.pl3  56  ARG56       0.1354
     21  N        -15.3470   91.6060   68.2790 N.am   57  SER57      -0.1938
     22  CA       -14.0420   90.9520   68.4160 C.3    57  SER57       0.2055
     23  C        -14.1960   89.4370   68.3760 C.2    57  SER57       0.2644
     24  O        -14.7360   88.8370   69.3130 O.2    57  SER57      -0.2714
     25  CB       -13.3860   91.3700   69.7280 C.3    57  SER57       0.2130
     26  OG       -12.0740   90.8330   69.8400 O.3    57  SER57      -0.2179
     27  N        -13.7270   88.8330   67.2870 N.am   58  GLY58      -0.1939
     28  CA       -13.9640   87.4180   67.0230 C.3    58  GLY58       0.2014
     29  C        -12.7490   86.5250   67.1830 C.2    58  GLY58       0.2639
     30  O        -11.6250   86.9550   66.9350 O.2    58  GLY58      -0.2714
     31  N        -12.9840   85.2720   67.5770 N.am   59  VAL59      -0.1963
     32  CA       -11.9080   84.2710   67.6800 C.3    59  VAL59       0.1727
     33  C        -12.0660   83.1290   66.6640 C.2    59  VAL59       0.2616
     34  O        -11.1730   82.2970   66.5180 O.2    59  VAL59      -0.2715
     35  CB       -11.7530   83.6840   69.1250 C.3    59  VAL59       0.0290
     36  CG1      -11.2760   84.7480   70.0950 C.3    59  VAL59       0.0023
     37  CG2      -13.0500   83.0430   69.6160 C.3    59  VAL59       0.0023
     38  N        -13.1990   83.0920   65.9610 N.am   60  GLY60      -0.1955
     39  CA       -13.4410   82.0380   64.9910 C.3    60  GLY60       0.1869
     40  C        -14.4950   82.4470   63.9770 C.2    60  GLY60       0.2309
     41  O        -15.3710   83.2750   64.2890 O.2    60  GLY60      -0.2863
     42  N        -21.0370   81.0040   57.8250 N.3    65  GLN65      -0.1245
     43  CA       -21.4040   82.2840   58.4330 C.3    65  GLN65       0.1566
     44  C        -21.2650   83.4840   57.4810 C.2    65  GLN65       0.2260
     45  O        -21.8200   84.5460   57.7450 O.2    65  GLN65      -0.2867
     46  CB       -20.5670   82.5410   59.7000 C.3    65  GLN65       0.0367
     47  CG       -20.9060   81.5860   60.8600 C.3    65  GLN65       0.0905
     48  CD       -19.9680   81.7880   62.0260 C.2    65  GLN65       0.2608
     49  OE1      -18.8120   81.3740   61.9580 O.2    65  GLN65      -0.2717
     50  NE2      -20.4560   82.4330   63.1010 N.am   65  GLN65      -0.0878
     51  N         -5.9220   84.7670   70.6570 N.3    78  PRO78      -0.2116
     52  CA        -4.6600   85.3590   71.0880 C.3    78  PRO78       0.1372
     53  C         -4.1060   84.6450   72.3160 C.2    78  PRO78       0.2244
     54  O         -4.8240   83.9060   72.9960 O.2    78  PRO78      -0.2868
     55  CB        -5.0400   86.8120   71.4240 C.3    78  PRO78       0.0268
     56  CG        -6.4850   86.7740   71.7390 C.3    78  PRO78       0.0207
     57  CD        -7.0860   85.6310   70.9420 C.3    78  PRO78       0.0892
     58  N        -17.4970   76.5720   78.8330 N.3   105  LEU105     -0.1245
     59  CA       -17.2910   77.9490   79.2700 C.3   105  LEU105      0.1561
     60  C        -18.3510   78.3080   80.3180 C.2   105  LEU105      0.2260
     61  O        -19.5340   78.0640   80.1050 O.2   105  LEU105     -0.2867
     62  CB       -17.3550   78.8970   78.0750 C.3   105  LEU105      0.0270
     63  CG       -16.3630   78.5970   76.9410 C.3   105  LEU105      0.0019
     64  CD1      -16.4600   79.6850   75.8910 C.3   105  LEU105      0.0001
     65  CD2      -14.9290   78.4800   77.4790 C.3   105  LEU105      0.0001
     66  N        -21.9510   80.2710   75.5940 N.3   109  GLU109     -0.1231
     67  CA       -21.3040   80.7310   74.3760 C.3   109  GLU109      0.1699
     68  C        -22.1430   81.7990   73.6880 C.2   109  GLU109      0.2592
     69  O        -23.2340   82.1400   74.1440 O.2   109  GLU109     -0.2718
     70  CB       -21.0460   79.5680   73.4220 C.3   109  GLU109      0.0402
     71  CG       -20.0390   78.5500   73.9630 C.3   109  GLU109      0.1161
     72  CD       -19.7920   77.3730   73.0160 C.2   109  GLU109      0.3649
     73  OE1      -20.2130   77.4180   71.8400 O.co2 109  GLU109     -0.2457
     74  OE2      -19.1580   76.4080   73.4690 O.co2 109  GLU109     -0.2457
     75  N        -21.5990   82.3230   72.6010 N.am  110  GLY110     -0.1957
     76  CA       -22.2640   83.2790   71.7390 C.3   110  GLY110      0.1869
     77  C        -21.8340   82.9490   70.3280 C.2   110  GLY110      0.2309
     78  O        -21.1200   81.9730   70.1120 O.2   110  GLY110     -0.2863
     79  N        -21.1880   84.9550   66.1950 N.3   111  LEU111     -0.1245
     80  CA       -21.2200   86.1080   65.2960 C.3   111  LEU111      0.1561
     81  C        -22.5500   86.2400   64.5400 C.2   111  LEU111      0.2260
     82  O        -22.9620   87.3380   64.1850 O.2   111  LEU111     -0.2867
     83  CB       -20.0590   86.0500   64.2940 C.3   111  LEU111      0.0270
     84  CG       -18.6700   86.3130   64.8830 C.3   111  LEU111      0.0019
     85  CD1      -17.5830   85.8220   63.9070 C.3   111  LEU111      0.0001
     86  CD2      -18.4880   87.7760   65.2060 C.3   111  LEU111      0.0001
     87  N        -10.0170   75.6510   76.1220 N.3   146  TYR146     -0.1241
     88  CA       -10.6260   76.7430   75.3550 C.3   146  TYR146      0.1605
     89  C        -10.5180   76.5750   73.8160 C.2   146  TYR146      0.2264
     90  O        -11.5400   76.7000   73.1020 O.2   146  TYR146     -0.2867
     91  CB       -10.1090   78.1100   75.8240 C.3   146  TYR146      0.0534
     92  CG       -10.7850   79.2470   75.1110 C.ar  146  TYR146     -0.0201
     93  CD1      -12.0700   79.6520   75.4770 C.ar  146  TYR146     -0.0009
     94  CD2      -10.1610   79.8980   74.0500 C.ar  146  TYR146     -0.0009
     95  CE1      -12.7160   80.6960   74.7950 C.ar  146  TYR146      0.0417
     96  CE2      -10.7900   80.9420   73.3790 C.ar  146  TYR146      0.0417
     97  CZ       -12.0690   81.3270   73.7470 C.ar  146  TYR146      0.1957
     98  OH       -12.6850   82.3690   73.0690 O.3   146  TYR146     -0.2866
     99  N        -12.8170   73.9730   72.5440 N.3   149  ILE149     -0.1231
    100  CA       -14.1760   74.5010   72.4920 C.3   149  ILE149      0.1692
    101  C        -14.3990   75.3510   71.2440 C.2   149  ILE149      0.2591
    102  O        -15.4010   75.1570   70.5320 O.2   149  ILE149     -0.2718
    103  CB       -14.5280   75.2610   73.7860 C.3   149  ILE149      0.0266
    104  CG1      -14.7010   74.2510   74.9270 C.3   149  ILE149      0.0019
    105  CG2      -15.7920   76.1450   73.5940 C.3   149  ILE149      0.0020
    106  CD1      -14.5960   74.8690   76.3250 C.3   149  ILE149      0.0001
    107  N        -13.4670   76.2650   70.9610 N.am  150  VAL150     -0.1980
    108  CA       -13.5910   77.1350   69.7860 C.3   150  VAL150      0.1595
    109  C        -13.6550   76.3380   68.4870 C.2   150  VAL150      0.2287
    110  O        -14.5190   76.5930   67.6370 O.2   150  VAL150     -0.2864
    111  CB       -12.4630   78.1910   69.6890 C.3   150  VAL150      0.0276
    112  CG1      -12.5890   78.9910   68.3730 C.3   150  VAL150      0.0022
    113  CG2      -12.5130   79.1490   70.8860 C.3   150  VAL150      0.0022
    114  N        -16.9830   74.5600   68.2230 N.3   153  HIS153     -0.1226
    115  CA       -17.9880   75.5490   67.8360 C.3   153  HIS153      0.1752
    116  C        -17.9280   75.8240   66.3130 C.2   153  HIS153      0.2595
    117  O        -18.9610   75.8370   65.6310 O.2   153  HIS153     -0.2718
    118  CB       -17.7690   76.8420   68.6360 C.3   153  HIS153      0.0759
    119  CG       -18.7290   77.9390   68.2950 C.ar  153  HIS153      0.0818
    120  ND1      -19.6820   78.3980   69.1840 N.ar  153  HIS153     -0.2268
    121  CD2      -18.8660   78.6870   67.1730 C.ar  153  HIS153      0.1154
    122  CE1      -20.3710   79.3720   68.6150 C.ar  153  HIS153      0.1986
    123  NE2      -19.8960   79.5670   67.3980 N.ar  153  HIS153     -0.2212
    124  N        -16.7250   76.0280   65.7710 N.am  154  GLU154     -0.1979
    125  CA       -16.6050   76.2750   64.3280 C.3   154  GLU154      0.1602
    126  C        -17.0040   75.0840   63.4450 C.2   154  GLU154      0.2287
    127  O        -17.7340   75.2480   62.4440 O.2   154  GLU154     -0.2864
    128  CB       -15.1910   76.7250   63.9360 C.3   154  GLU154      0.0415
    129  CG       -14.7620   78.1260   64.4130 C.3   154  GLU154      0.1163
    130  CD       -15.8940   79.1490   64.5620 C.2   154  GLU154      0.3649
    131  OE1      -16.7870   79.2830   63.6790 O.co2 154  GLU154     -0.2457
    132  OE2      -15.8560   79.8530   65.5810 O.co2 154  GLU154     -0.2457
    133  N        -20.6900   74.5930   62.8960 N.3   157  HIS157     -0.1241
    134  CA       -21.2690   75.4050   61.8180 C.3   157  HIS157      0.1621
    135  C        -21.2610   74.7030   60.4710 C.2   157  HIS157      0.2264
    136  O        -22.1660   74.9150   59.6700 O.2   157  HIS157     -0.2867
    137  CB       -20.5550   76.7450   61.6430 C.3   157  HIS157      0.0745
    138  CG       -20.9610   77.7820   62.6350 C.ar  157  HIS157      0.0817
    139  ND1      -22.2730   78.1670   62.8150 N.ar  157  HIS157     -0.2268
    140  CD2      -20.2270   78.5080   63.5140 C.ar  157  HIS157      0.1154
    141  CE1      -22.3260   79.0930   63.7560 C.ar  157  HIS157      0.1986
    142  NE2      -21.1010   79.3090   64.2020 N.ar  157  HIS157     -0.2212
    143  N        -11.3510   81.7430   80.1440 N.3   184  GLU184     -0.1245
    144  CA       -10.5000   82.4370   79.1600 C.3   184  GLU184      0.1567
    145  C        -10.3050   83.9030   79.5450 C.2   184  GLU184      0.2260
    146  O        -11.2750   84.6090   79.8370 O.2   184  GLU184     -0.2867
    147  CB       -11.0930   82.3300   77.7510 C.3   184  GLU184      0.0388
    148  CG       -10.6750   83.4610   76.7860 C.3   184  GLU184      0.1160
    149  CD        -9.2810   83.2940   76.2030 C.2   184  GLU184      0.3649
    150  OE1       -8.5640   84.3120   76.0640 O.co2 184  GLU184     -0.2457
    151  OE2       -8.8980   82.1570   75.8670 O.co2 184  GLU184     -0.2457
@<TRIPOS>BOND
     1    44    45    2
     2    44    43    1
     3    42    43    1
     4    43    46    1
     5   136   135    2
     6    46    47    1
     7   135   134    1
     8    47    48    1
     9   137   134    1
    10   137   138    1
    11   134   133    1
    12    49    48    2
    13    48    50   am
    14   127   126    2
    15   138   139   ar
    16   138   140   ar
    17   139   141   ar
    18   126   125    1
    19   140   142   ar
    20   131   130   ar
    21   141   142   ar
    22    85    84    1
    23   128   125    1
    24   128   129    1
    25    40    41    2
    26    40    39    1
    27    82    81    2
    28    83    84    1
    29    83    80    1
    30   125   124    1
    31   129   130    1
    32    81    80    1
    33   130   132   ar
    34    84    86    1
    35    39    38    1
    36    80    79    1
    37   117   116    2
    38   124   116   am
    39    10    11    1
    40    38    33   am
    41     1     2    1
    42    13    12    2
    43   116   115    1
    44    34    33    2
    45    33    32    1
    46    30    29    2
    47    28    29    1
    48    28    27    1
    49    12    11    1
    50    12    21   am
    51    11    14    1
    52   121   123   ar
    53   121   119   ar
    54    29    31   am
    55     2     5    1
    56     2     3    1
    57    14    15    1
    58     5     6    1
    59     3     4    2
    60    27    23   am
    61    16    15    1
    62    16    17    1
    63     9     7   am
    64   123   122   ar
    65     6     7    1
    66    31    32    1
    67   110   109    2
    68    32    35    1
    69     7     8    2
    70    20    18    1
    71   115   114    1
    72   115   118    1
    73    21    22    1
    74   119   118    1
    75   119   120   ar
    76   112   111    1
    77    23    22    1
    78    23    24    2
    79    22    25    1
    80   109   108    1
    81    17    18    2
    82   122   120   ar
    83    18    19    1
    84    35    37    1
    85    35    36    1
    86   111   108    1
    87   111   113    1
    88    25    26    1
    89   108   107    1
    90    78    77    2
    91    77    76    1
    92   102   101    2
    93    51    57    1
    94    51    52    1
    95    57    56    1
    96   107   101   am
    97    52    55    1
    98    52    53    1
    99   101   100    1
   100    55    56    1
   101    76    75    1
   102    73    72   ar
   103    53    54    2
   104   100    99    1
   105   100   103    1
   106    75    68   am
   107    72    74   ar
   108    72    71    1
   109    98    97    1
   110    90    89    2
   111    96    97   ar
   112    96    94   ar
   113    70    71    1
   114    70    67    1
   115   105   103    1
   116    68    69    2
   117    68    67    1
   118    97    95   ar
   119   103   104    1
   120    89    88    1
   121    94    92   ar
   122    67    66    1
   123    95    93   ar
   124   104   106    1
   125    92    93   ar
   126    92    91    1
   127    88    91    1
   128    88    87    1
   129   151   149   ar
   130    64    63    1
   131   150   149   ar
   132   149   148    1
   133   148   147    1
   134    63    65    1
   135    63    62    1
   136   147   144    1
   137    62    59    1
   138    58    59    1
   139   144   145    1
   140   144   143    1
   141    59    60    1
   142   145   146    2
   143    61    60    2
