@<TRIPOS>MOLECULE
tmp/3u7lA00.pdb
 151 143 0 0 0
SMALL
GASTEIGER

@<TRIPOS>ATOM
      1  N        -10.1780  152.1910   42.1690 N.3    45  GLN45      -0.1245
      2  CA        -9.3460  152.2440   43.3770 C.3    45  GLN45       0.1566
      3  C         -8.4830  153.5090   43.4840 C.2    45  GLN45       0.2260
      4  O         -7.8760  153.7690   44.5310 O.2    45  GLN45      -0.2867
      5  CB        -8.4750  150.9810   43.4920 C.3    45  GLN45       0.0367
      6  CG        -9.2840  149.7360   43.8700 C.3    45  GLN45       0.0905
      7  CD        -8.4590  148.4690   43.8990 C.2    45  GLN45       0.2608
      8  OE1       -7.2720  148.4940   44.2180 O.2    45  GLN45      -0.2717
      9  NE2       -9.0910  147.3450   43.5730 N.am   45  GLN45      -0.0878
     10  N        -17.5730  153.2430   42.2810 N.3    56  ARG56      -0.1231
     11  CA       -17.6010  152.4810   43.5160 C.3    56  ARG56       0.1694
     12  C        -16.2820  151.7020   43.5650 C.2    56  ARG56       0.2593
     13  O        -15.7900  151.2470   42.5260 O.2    56  ARG56      -0.2718
     14  CB       -18.7850  151.5180   43.4260 C.3    56  ARG56       0.0321
     15  CG       -19.4970  151.1780   44.7120 C.3    56  ARG56       0.0489
     16  CD       -20.8240  150.4840   44.3750 C.3    56  ARG56       0.2205
     17  NE       -21.3500  149.7190   45.5040 N.pl3  56  ARG56      -0.0865
     18  CZ       -22.3250  148.8160   45.4140 C.cat  56  ARG56       0.5346
     19  NH1      -22.8970  148.5530   44.2420 N.pl3  56  ARG56       0.1354
     20  NH2      -22.7230  148.1700   46.5050 N.pl3  56  ARG56       0.1354
     21  N        -15.7010  151.5520   44.7490 N.am   57  SER57      -0.1938
     22  CA       -14.3760  150.9410   44.8750 C.3    57  SER57       0.2055
     23  C        -14.4050  149.4080   44.7130 C.2    57  SER57       0.2644
     24  O        -14.8060  148.6940   45.6310 O.2    57  SER57      -0.2714
     25  CB       -13.7420  151.3250   46.2090 C.3    57  SER57       0.2130
     26  OG       -12.3830  150.9350   46.2090 O.3    57  SER57      -0.2179
     27  N        -13.9540  148.9150   43.5610 N.am   58  GLY58      -0.1939
     28  CA       -14.1450  147.5070   43.2010 C.3    58  GLY58       0.2014
     29  C        -12.9330  146.6130   43.3560 C.2    58  GLY58       0.2639
     30  O        -11.8120  147.0390   43.0890 O.2    58  GLY58      -0.2714
     31  N        -13.1610  145.3650   43.7770 N.am   59  VAL59      -0.1963
     32  CA       -12.0750  144.3790   43.8870 C.3    59  VAL59       0.1727
     33  C        -12.1740  143.2370   42.8600 C.2    59  VAL59       0.2616
     34  O        -11.2350  142.4640   42.6870 O.2    59  VAL59      -0.2715
     35  CB       -11.9300  143.7980   45.3290 C.3    59  VAL59       0.0290
     36  CG1      -11.5860  144.9130   46.3290 C.3    59  VAL59       0.0023
     37  CG2      -13.1940  143.0390   45.7570 C.3    59  VAL59       0.0023
     38  N        -13.3140  143.1380   42.1830 N.am   60  GLY60      -0.1955
     39  CA       -13.4970  142.1140   41.1670 C.3    60  GLY60       0.1869
     40  C        -14.5810  142.4970   40.1740 C.2    60  GLY60       0.2309
     41  O        -15.4980  143.2770   40.4960 O.2    60  GLY60      -0.2863
     42  N        -21.1490  141.0640   33.9400 N.3    65  GLN65      -0.1245
     43  CA       -21.5630  142.3110   34.5800 C.3    65  GLN65       0.1566
     44  C        -21.4990  143.5120   33.6320 C.2    65  GLN65       0.2260
     45  O        -22.1420  144.5270   33.8840 O.2    65  GLN65      -0.2867
     46  CB       -20.7290  142.5900   35.8370 C.3    65  GLN65       0.0367
     47  CG       -20.9910  141.6030   36.9660 C.3    65  GLN65       0.0905
     48  CD       -20.1010  141.8490   38.1590 C.2    65  GLN65       0.2608
     49  OE1      -18.9190  141.5360   38.1340 O.2    65  GLN65      -0.2717
     50  NE2      -20.6640  142.4370   39.2020 N.am   65  GLN65      -0.0878
     51  N         -5.9620  144.9320   46.7180 N.3    78  PRO78      -0.2116
     52  CA        -4.7310  145.5880   47.1720 C.3    78  PRO78       0.1372
     53  C         -4.1350  144.8940   48.3970 C.2    78  PRO78       0.2244
     54  O         -4.8230  144.1360   49.0780 O.2    78  PRO78      -0.2868
     55  CB        -5.1930  147.0030   47.5340 C.3    78  PRO78       0.0268
     56  CG        -6.6440  146.8910   47.8140 C.3    78  PRO78       0.0207
     57  CD        -7.1720  145.7310   47.0010 C.3    78  PRO78       0.0892
     58  N        -17.5830  136.6300   55.0230 N.3   105  LEU105     -0.1245
     59  CA       -17.3620  137.9970   55.4710 C.3   105  LEU105      0.1561
     60  C        -18.4200  138.3220   56.5360 C.2   105  LEU105      0.2260
     61  O        -19.6100  138.0410   56.3290 O.2   105  LEU105     -0.2867
     62  CB       -17.4410  138.9740   54.2910 C.3   105  LEU105      0.0270
     63  CG       -16.4490  138.7510   53.1410 C.3   105  LEU105      0.0019
     64  CD1      -16.5690  139.8750   52.1340 C.3   105  LEU105      0.0001
     65  CD2      -15.0090  138.6480   53.6610 C.3   105  LEU105      0.0001
     66  N        -21.9560  140.3660   51.8050 N.3   109  GLU109     -0.1231
     67  CA       -21.3470  140.8130   50.5550 C.3   109  GLU109      0.1699
     68  C        -22.1860  141.8840   49.8550 C.2   109  GLU109      0.2592
     69  O        -23.3070  142.1960   50.2750 O.2   109  GLU109     -0.2718
     70  CB       -21.1220  139.6190   49.6160 C.3   109  GLU109      0.0402
     71  CG       -20.2130  138.5330   50.1990 C.3   109  GLU109      0.1161
     72  CD       -19.8790  137.4310   49.2010 C.2   109  GLU109      0.3649
     73  OE1      -20.2560  137.5420   48.0180 O.co2 109  GLU109     -0.2457
     74  OE2      -19.2550  136.4390   49.6180 O.co2 109  GLU109     -0.2457
     75  N        -21.6160  142.4500   48.7990 N.am  110  GLY110     -0.1957
     76  CA       -22.2890  143.4110   47.9380 C.3   110  GLY110      0.1869
     77  C        -21.8790  143.0820   46.5200 C.2   110  GLY110      0.2309
     78  O        -21.1410  142.1120   46.2990 O.2   110  GLY110     -0.2863
     79  N        -21.2980  145.0840   42.3960 N.3   111  LEU111     -0.1245
     80  CA       -21.3380  146.2290   41.4860 C.3   111  LEU111      0.1561
     81  C        -22.6840  146.3350   40.7540 C.2   111  LEU111      0.2260
     82  O        -23.1150  147.4300   40.4030 O.2   111  LEU111     -0.2867
     83  CB       -20.1970  146.1460   40.4640 C.3   111  LEU111      0.0270
     84  CG       -18.7740  146.4030   40.9760 C.3   111  LEU111      0.0019
     85  CD1      -17.7500  145.8850   39.9770 C.3   111  LEU111      0.0001
     86  CD2      -18.5630  147.8820   41.2580 C.3   111  LEU111      0.0001
     87  N        -10.0450  135.7800   52.3440 N.3   146  TYR146     -0.1241
     88  CA       -10.6210  136.8890   51.5770 C.3   146  TYR146      0.1605
     89  C        -10.4840  136.7360   50.0410 C.2   146  TYR146      0.2264
     90  O        -11.4850  136.8320   49.3250 O.2   146  TYR146     -0.2867
     91  CB       -10.1180  138.2630   52.0700 C.3   146  TYR146      0.0534
     92  CG       -10.8090  139.4020   51.3440 C.ar  146  TYR146     -0.0201
     93  CD1      -12.1250  139.7570   51.6540 C.ar  146  TYR146     -0.0009
     94  CD2      -10.1600  140.0900   50.3140 C.ar  146  TYR146     -0.0009
     95  CE1      -12.7760  140.7780   50.9650 C.ar  146  TYR146      0.0417
     96  CE2      -10.7960  141.1110   49.6250 C.ar  146  TYR146      0.0417
     97  CZ       -12.1040  141.4420   49.9550 C.ar  146  TYR146      0.1957
     98  OH       -12.7350  142.4470   49.2740 O.3   146  TYR146     -0.2866
     99  N        -12.8220  134.1470   48.6950 N.3   149  ILE149     -0.1231
    100  CA       -14.1930  134.6560   48.6610 C.3   149  ILE149      0.1692
    101  C        -14.4380  135.5140   47.4110 C.2   149  ILE149      0.2591
    102  O        -15.4340  135.3190   46.6940 O.2   149  ILE149     -0.2718
    103  CB       -14.5400  135.4030   49.9700 C.3   149  ILE149      0.0266
    104  CG1      -14.7560  134.3780   51.1050 C.3   149  ILE149      0.0019
    105  CG2      -15.7960  136.2720   49.8090 C.3   149  ILE149      0.0020
    106  CD1      -14.8020  135.0060   52.5130 C.3   149  ILE149      0.0001
    107  N        -13.5120  136.4250   47.1260 N.am  150  VAL150     -0.1980
    108  CA       -13.6490  137.2710   45.9560 C.3   150  VAL150      0.1595
    109  C        -13.7180  136.4340   44.6680 C.2   150  VAL150      0.2287
    110  O        -14.6020  136.6490   43.8320 O.2   150  VAL150     -0.2864
    111  CB       -12.5400  138.3510   45.8690 C.3   150  VAL150      0.0276
    112  CG1      -12.7040  139.1750   44.5840 C.3   150  VAL150      0.0022
    113  CG2      -12.6040  139.2820   47.1030 C.3   150  VAL150      0.0022
    114  N        -17.0050  134.6460   44.3270 N.3   153  HIS153     -0.1226
    115  CA       -18.0260  135.6230   43.9620 C.3   153  HIS153      0.1752
    116  C        -17.9850  135.8640   42.4460 C.2   153  HIS153      0.2595
    117  O        -19.0250  135.8380   41.7920 O.2   153  HIS153     -0.2718
    118  CB       -17.7970  136.9260   44.7470 C.3   153  HIS153      0.0759
    119  CG       -18.8110  138.0060   44.4830 C.ar  153  HIS153      0.0818
    120  ND1      -19.7190  138.4170   45.4360 N.ar  153  HIS153     -0.2268
    121  CD2      -19.0180  138.7990   43.4020 C.ar  153  HIS153      0.1154
    122  CE1      -20.4780  139.3780   44.9400 C.ar  153  HIS153      0.1986
    123  NE2      -20.0590  139.6460   43.7160 N.ar  153  HIS153     -0.2212
    124  N        -16.7900  136.0740   41.8880 N.am  154  GLU154     -0.1979
    125  CA       -16.6680  136.3450   40.4550 C.3   154  GLU154      0.1602
    126  C        -17.0310  135.1330   39.6010 C.2   154  GLU154      0.2287
    127  O        -17.7350  135.2700   38.5970 O.2   154  GLU154     -0.2864
    128  CB       -15.2690  136.8510   40.0680 C.3   154  GLU154      0.0415
    129  CG       -14.8470  138.1810   40.6660 C.3   154  GLU154      0.1163
    130  CD       -15.9670  139.2170   40.7610 C.2   154  GLU154      0.3649
    131  OE1      -16.7970  139.3620   39.8270 O.co2 154  GLU154     -0.2457
    132  OE2      -15.9870  139.9110   41.7890 O.co2 154  GLU154     -0.2457
    133  N        -20.7490  134.6340   39.0550 N.3   157  HIS157     -0.1241
    134  CA       -21.3080  135.4410   37.9790 C.3   157  HIS157      0.1621
    135  C        -21.2840  134.7150   36.6390 C.2   157  HIS157      0.2264
    136  O        -22.1790  134.9130   35.8250 O.2   157  HIS157     -0.2867
    137  CB       -20.5660  136.7630   37.8240 C.3   157  HIS157      0.0745
    138  CG       -20.9980  137.8180   38.7850 C.ar  157  HIS157      0.0817
    139  ND1      -22.3210  138.1690   38.9730 N.ar  157  HIS157     -0.2268
    140  CD2      -20.2750  138.6130   39.6070 C.ar  157  HIS157      0.1154
    141  CE1      -22.3900  139.1270   39.8800 C.ar  157  HIS157      0.1986
    142  NE2      -21.1630  139.4130   40.2800 N.ar  157  HIS157     -0.2212
    143  N        -12.5360  141.7500   56.9960 N.3   184  GLU184     -0.1245
    144  CA       -12.6700  142.5700   55.7830 C.3   184  GLU184      0.1567
    145  C        -11.3680  143.2960   55.4140 C.2   184  GLU184      0.2260
    146  O        -10.9400  144.2320   56.1010 O.2   184  GLU184     -0.2867
    147  CB       -13.8080  143.5950   55.9580 C.3   184  GLU184      0.0388
    148  CG       -15.1460  143.0180   56.4810 C.3   184  GLU184      0.1160
    149  CD       -16.0970  142.5840   55.3640 C.2   184  GLU184      0.3649
    150  OE1      -15.7040  142.6480   54.1730 O.co2 184  GLU184     -0.2457
    151  OE2      -17.2480  142.1890   55.6850 O.co2 184  GLU184     -0.2457
@<TRIPOS>BOND
     1    44    45    2
     2    44    43    1
     3    42    43    1
     4    43    46    1
     5   136   135    2
     6    46    47    1
     7   135   134    1
     8    47    48    1
     9   137   134    1
    10   137   138    1
    11   134   133    1
    12    49    48    2
    13    48    50   am
    14   127   126    2
    15   138   139   ar
    16   138   140   ar
    17   139   141   ar
    18   126   125    1
    19   140   142   ar
    20   131   130   ar
    21   141   142   ar
    22    85    84    1
    23   128   125    1
    24   128   129    1
    25    40    41    2
    26    40    39    1
    27    82    81    2
    28   125   124    1
    29    83    84    1
    30    83    80    1
    31   129   130    1
    32    81    80    1
    33   130   132   ar
    34    84    86    1
    35    39    38    1
    36    80    79    1
    37   117   116    2
    38   124   116   am
    39     1     2    1
    40    38    33   am
    41    10    11    1
    42   116   115    1
    43    13    12    2
    44    34    33    2
    45    33    32    1
    46    30    29    2
    47    28    29    1
    48    28    27    1
    49    29    31   am
    50     2     3    1
    51     2     5    1
    52   121   123   ar
    53   121   119   ar
    54    14    11    1
    55    14    15    1
    56     3     4    2
    57     5     6    1
    58    11    12    1
    59    27    23   am
    60    12    21   am
    61     9     7   am
    62   123   122   ar
    63    31    32    1
    64   110   109    2
    65     6     7    1
    66    32    35    1
    67     7     8    2
    68   115   114    1
    69   115   118    1
    70    19    18    1
    71    16    15    1
    72    16    17    1
    73   119   118    1
    74   119   120   ar
    75   112   111    1
    76   109   108    1
    77    23    22    1
    78    23    24    2
    79    21    22    1
    80    22    25    1
    81   122   120   ar
    82    35    37    1
    83    35    36    1
    84    18    17    2
    85    18    20    1
    86   111   108    1
    87   111   113    1
    88   108   107    1
    89    26    25    1
    90    78    77    2
    91    77    76    1
    92   102   101    2
    93    51    57    1
    94    51    52    1
    95    57    56    1
    96   107   101   am
    97    52    55    1
    98    52    53    1
    99   101   100    1
   100    55    56    1
   101    76    75    1
   102    73    72   ar
   103    53    54    2
   104   100    99    1
   105   100   103    1
   106    75    68   am
   107    72    74   ar
   108    72    71    1
   109    98    97    1
   110    90    89    2
   111    70    71    1
   112    70    67    1
   113    96    97   ar
   114    96    94   ar
   115   105   103    1
   116    68    69    2
   117    68    67    1
   118    97    95   ar
   119   103   104    1
   120    89    88    1
   121    94    92   ar
   122    67    66    1
   123    95    93   ar
   124   104   106    1
   125    92    93   ar
   126    92    91    1
   127    88    91    1
   128    88    87    1
   129    64    63    1
   130    63    65    1
   131    63    62    1
   132   150   149   ar
   133    62    59    1
   134    58    59    1
   135   149   151   ar
   136   149   148    1
   137   145   144    1
   138   145   146    2
   139    59    60    1
   140   144   147    1
   141   144   143    1
   142   147   148    1
   143    61    60    2
