@<TRIPOS>MOLECULE
tmp/3u7mA00.pdb
 167 158 0 0 0
SMALL
GASTEIGER

@<TRIPOS>ATOM
      1  N        -10.5720  151.2640   41.8860 N.3    45  GLN45      -0.1245
      2  CA        -9.8110  151.2670   43.1290 C.3    45  GLN45       0.1566
      3  C         -8.9440  152.5260   43.2960 C.2    45  GLN45       0.2260
      4  O         -8.4360  152.7930   44.3840 O.2    45  GLN45      -0.2867
      5  CB        -8.9540  150.0030   43.2170 C.3    45  GLN45       0.0367
      6  CG        -9.7750  148.7450   43.4720 C.3    45  GLN45       0.0905
      7  CD        -8.9380  147.4860   43.4270 C.2    45  GLN45       0.2608
      8  OE1       -7.7340  147.5270   43.6600 O.2    45  GLN45      -0.2717
      9  NE2       -9.5730  146.3590   43.1290 N.am   45  GLN45      -0.0878
     10  N        -17.9030  152.4400   41.1480 N.3    56  ARG56      -0.1231
     11  CA       -18.0430  151.7110   42.3870 C.3    56  ARG56       0.1694
     12  C        -16.8200  150.7840   42.4600 C.2    56  ARG56       0.2593
     13  O        -16.4990  150.1050   41.4780 O.2    56  ARG56      -0.2718
     14  CB       -19.3530  150.9320   42.3360 C.3    56  ARG56       0.0321
     15  CG       -19.6670  150.1200   43.5520 C.3    56  ARG56       0.0489
     16  CD       -21.0470  149.5010   43.4190 C.3    56  ARG56       0.2205
     17  NE       -21.2710  148.5330   44.4880 N.pl3  56  ARG56      -0.0865
     18  CZ       -22.3230  147.7290   44.5740 C.cat  56  ARG56       0.5346
     19  NH1      -23.2800  147.7590   43.6480 N.pl3  56  ARG56       0.1354
     20  NH2      -22.4110  146.8910   45.5950 N.pl3  56  ARG56       0.1354
     21  N        -16.1140  150.7900   43.5910 N.am   57  SER57      -0.1938
     22  CA       -14.8750  150.0170   43.7060 C.3    57  SER57       0.2055
     23  C        -15.1360  148.5090   43.7060 C.2    57  SER57       0.2644
     24  O        -16.0280  148.0140   44.3910 O.2    57  SER57      -0.2714
     25  CB       -14.0780  150.4140   44.9450 C.3    57  SER57       0.2130
     26  OG       -14.7540  149.9690   46.0990 O.3    57  SER57      -0.2179
     27  N        -14.3620  147.7930   42.9080 N.am   58  GLY58      -0.1939
     28  CA       -14.5080  146.3550   42.8260 C.3    58  GLY58       0.2014
     29  C        -13.1700  145.6460   42.8630 C.2    58  GLY58       0.2639
     30  O        -12.1380  146.2260   42.5050 O.2    58  GLY58      -0.2714
     31  N        -13.2050  144.3870   43.3010 N.am   59  VAL59      -0.1963
     32  CA       -12.0390  143.5190   43.2940 C.3    59  VAL59       0.1727
     33  C        -12.1720  142.3850   42.2700 C.2    59  VAL59       0.2616
     34  O        -11.2110  141.6610   42.0060 O.2    59  VAL59      -0.2715
     35  CB       -11.7470  142.9470   44.7120 C.3    59  VAL59       0.0290
     36  CG1      -11.4120  144.0940   45.6870 C.3    59  VAL59       0.0023
     37  CG2      -12.9380  142.0960   45.2350 C.3    59  VAL59       0.0023
     38  N        -13.3650  142.2430   41.6980 N.am   60  GLY60      -0.1955
     39  CA       -13.6400  141.1920   40.7180 C.3    60  GLY60       0.1869
     40  C        -14.6320  141.6410   39.6500 C.2    60  GLY60       0.2309
     41  O        -15.5460  142.4390   39.9190 O.2    60  GLY60      -0.2863
     42  N        -21.0130  140.3200   33.2090 N.3    65  GLN65      -0.1245
     43  CA       -21.4450  141.5620   33.8380 C.3    65  GLN65       0.1566
     44  C        -21.3190  142.7720   32.8990 C.2    65  GLN65       0.2260
     45  O        -21.8920  143.8300   33.1700 O.2    65  GLN65      -0.2867
     46  CB       -20.6510  141.8280   35.1130 C.3    65  GLN65       0.0367
     47  CG       -21.0370  140.9590   36.2800 C.3    65  GLN65       0.0905
     48  CD       -20.1720  141.2630   37.4840 C.2    65  GLN65       0.2608
     49  OE1      -19.0070  140.8720   37.5310 O.2    65  GLN65      -0.2717
     50  NE2      -20.7330  141.9930   38.4540 N.am   65  GLN65      -0.0878
     51  N         -7.2040  142.1410   43.7860 N.3    77  ILE77      -0.1231
     52  CA        -7.3150  142.3120   45.2160 C.3    77  ILE77       0.1678
     53  C         -6.0050  142.9280   45.6740 C.2    77  ILE77       0.2434
     54  O         -4.9550  142.3050   45.5420 O.2    77  ILE77      -0.2733
     55  CB        -7.5480  140.9720   45.9570 C.3    77  ILE77       0.0265
     56  CG1       -8.8120  140.2830   45.4360 C.3    77  ILE77       0.0019
     57  CG2       -7.5970  141.2000   47.4950 C.3    77  ILE77       0.0020
     58  CD1       -8.8860  138.7960   45.7240 C.3    77  ILE77       0.0001
     59  N         -6.0630  144.1600   46.2010 N.am   78  PRO78      -0.2729
     60  CA        -4.8430  144.8170   46.6710 C.3    78  PRO78       0.1401
     61  C         -4.2750  144.1540   47.9350 C.2    78  PRO78       0.2269
     62  O         -4.9680  143.3960   48.6150 O.2    78  PRO78      -0.2865
     63  CB        -5.3150  146.2430   46.9830 C.3    78  PRO78       0.0296
     64  CG        -6.7760  146.0890   47.3140 C.3    78  PRO78       0.0237
     65  CD        -7.2570  145.0120   46.3760 C.3    78  PRO78       0.0939
     66  N        -17.7670  135.9960   54.3920 N.3   105  LEU105     -0.1245
     67  CA       -17.5510  137.3570   54.8620 C.3   105  LEU105      0.1561
     68  C        -18.7070  137.7000   55.8150 C.2   105  LEU105      0.2260
     69  O        -19.8730  137.4770   55.4760 O.2   105  LEU105     -0.2867
     70  CB       -17.4950  138.3300   53.6760 C.3   105  LEU105      0.0270
     71  CG       -16.5050  137.9500   52.5600 C.3   105  LEU105      0.0019
     72  CD1      -16.6150  138.9020   51.3680 C.3   105  LEU105      0.0001
     73  CD2      -15.0590  137.8850   53.0820 C.3   105  LEU105      0.0001
     74  N        -21.9230  139.6990   50.9090 N.3   109  GLU109     -0.1231
     75  CA       -21.2090  140.1100   49.7170 C.3   109  GLU109      0.1699
     76  C        -21.9660  141.2130   48.9890 C.2   109  GLU109      0.2592
     77  O        -23.1220  141.4990   49.3010 O.2   109  GLU109     -0.2718
     78  CB       -20.9660  138.9060   48.7990 C.3   109  GLU109      0.0402
     79  CG       -19.9710  137.8880   49.3770 C.3   109  GLU109      0.1161
     80  CD       -19.7820  136.6540   48.4900 C.2   109  GLU109      0.3649
     81  OE1      -20.1000  136.7260   47.2770 O.co2 109  GLU109     -0.2457
     82  OE2      -19.3110  135.6160   49.0150 O.co2 109  GLU109     -0.2457
     83  N        -21.2880  141.8490   48.0450 N.am  110  GLY110     -0.1957
     84  CA       -21.9020  142.8500   47.1940 C.3   110  GLY110      0.1869
     85  C        -21.5830  142.5070   45.7600 C.2   110  GLY110      0.2309
     86  O        -20.8260  141.5640   45.4910 O.2   110  GLY110     -0.2863
     87  N        -21.3350  144.4720   41.6600 N.3   111  LEU111     -0.1245
     88  CA       -21.3750  145.6270   40.7530 C.3   111  LEU111      0.1561
     89  C        -22.6810  145.7090   39.9470 C.2   111  LEU111      0.2260
     90  O        -23.1090  146.7980   39.5600 O.2   111  LEU111     -0.2867
     91  CB       -20.1820  145.5870   39.7870 C.3   111  LEU111      0.0270
     92  CG       -18.7910  145.8590   40.3570 C.3   111  LEU111      0.0019
     93  CD1      -17.7100  145.3950   39.4030 C.3   111  LEU111      0.0001
     94  CD2      -18.6200  147.3370   40.6860 C.3   111  LEU111      0.0001
     95  N        -27.7760  146.8090   48.5940 N.3   116  ASN116     -0.1240
     96  CA       -27.0760  145.9000   49.4900 C.3   116  ASN116      0.1653
     97  C        -27.9950  144.7580   49.8930 C.2   116  ASN116      0.2266
     98  O        -29.1470  144.9890   50.2480 O.2   116  ASN116     -0.2867
     99  CB       -26.6020  146.6420   50.7390 C.3   116  ASN116      0.1155
    100  CG       -25.4880  147.6250   50.4510 C.2   116  ASN116      0.2627
    101  OD1      -25.6190  148.8250   50.7050 O.2   116  ASN116     -0.2716
    102  ND2      -24.3820  147.1240   49.9220 N.am  116  ASN116     -0.0877
    103  N        -10.2660  135.0210   51.7810 N.3   146  TYR146     -0.1241
    104  CA       -10.8470  136.1300   51.0280 C.3   146  TYR146      0.1605
    105  C        -10.6960  135.9930   49.5000 C.2   146  TYR146      0.2264
    106  O        -11.6830  136.0920   48.7760 O.2   146  TYR146     -0.2867
    107  CB       -10.3130  137.4920   51.5310 C.3   146  TYR146      0.0534
    108  CG       -10.9320  138.6550   50.7900 C.ar  146  TYR146     -0.0201
    109  CD1      -12.2630  138.9980   50.9870 C.ar  146  TYR146     -0.0009
    110  CD2      -10.1920  139.3860   49.8630 C.ar  146  TYR146     -0.0009
    111  CE1      -12.8540  140.0520   50.2800 C.ar  146  TYR146      0.0417
    112  CE2      -10.7670  140.4430   49.1570 C.ar  146  TYR146      0.0417
    113  CZ       -12.0880  140.7710   49.3740 C.ar  146  TYR146      0.1957
    114  OH       -12.6480  141.8070   48.6690 O.3   146  TYR146     -0.2866
    115  N        -12.9230  133.3910   48.1650 N.3   149  ILE149     -0.1231
    116  CA       -14.2970  133.8640   48.1160 C.3   149  ILE149      0.1692
    117  C        -14.5340  134.7080   46.8510 C.2   149  ILE149      0.2591
    118  O        -15.5310  134.5220   46.1540 O.2   149  ILE149     -0.2718
    119  CB       -14.6510  134.6340   49.4150 C.3   149  ILE149      0.0266
    120  CG1      -14.8430  133.6300   50.5780 C.3   149  ILE149      0.0019
    121  CG2      -15.8810  135.5040   49.2230 C.3   149  ILE149      0.0020
    122  CD1      -14.8810  134.2670   51.9730 C.3   149  ILE149      0.0001
    123  N        -13.5960  135.6060   46.5570 N.am  150  VAL150     -0.1980
    124  CA       -13.7270  136.5210   45.4400 C.3   150  VAL150      0.1595
    125  C        -13.7870  135.7550   44.1070 C.2   150  VAL150      0.2287
    126  O        -14.6360  136.0440   43.2750 O.2   150  VAL150     -0.2864
    127  CB       -12.5710  137.5720   45.4030 C.3   150  VAL150      0.0276
    128  CG1      -12.6040  138.3510   44.0730 C.3   150  VAL150      0.0022
    129  CG2      -12.6890  138.5310   46.5810 C.3   150  VAL150      0.0022
    130  N        -17.0570  133.9590   43.6620 N.3   153  HIS153     -0.1226
    131  CA       -18.0840  134.9320   43.2980 C.3   153  HIS153      0.1752
    132  C        -18.0380  135.1700   41.7750 C.2   153  HIS153      0.2595
    133  O        -19.0620  135.0910   41.1050 O.2   153  HIS153     -0.2718
    134  CB       -17.8660  136.2200   44.1220 C.3   153  HIS153      0.0759
    135  CG       -18.8640  137.3080   43.8670 C.ar  153  HIS153      0.0818
    136  ND1      -19.7730  137.7210   44.8180 N.ar  153  HIS153     -0.2268
    137  CD2      -19.0450  138.1230   42.8000 C.ar  153  HIS153      0.1154
    138  CE1      -20.4930  138.7200   44.3400 C.ar  153  HIS153      0.1986
    139  NE2      -20.0680  138.9880   43.1190 N.ar  153  HIS153     -0.2212
    140  N        -16.8410  135.4060   41.2380 N.am  154  GLU154     -0.1979
    141  CA       -16.6490  135.6110   39.8000 C.3   154  GLU154      0.1602
    142  C        -17.0090  134.4200   38.9220 C.2   154  GLU154      0.2287
    143  O        -17.7030  134.5750   37.9060 O.2   154  GLU154     -0.2864
    144  CB       -15.2200  136.0510   39.4900 C.3   154  GLU154      0.0415
    145  CG       -14.8600  137.4210   40.0410 C.3   154  GLU154      0.1163
    146  CD       -16.0090  138.4210   39.9650 C.2   154  GLU154      0.3649
    147  OE1      -16.6730  138.5430   38.9040 O.co2 154  GLU154     -0.2457
    148  OE2      -16.2380  139.1000   40.9870 O.co2 154  GLU154     -0.2457
    149  N        -20.6560  133.9100   38.3720 N.3   157  HIS157     -0.1241
    150  CA       -21.2120  134.7200   37.2820 C.3   157  HIS157      0.1621
    151  C        -21.2120  134.0040   35.9360 C.2   157  HIS157      0.2264
    152  O        -22.1270  134.1970   35.1330 O.2   157  HIS157     -0.2867
    153  CB       -20.4540  136.0310   37.1230 C.3   157  HIS157      0.0745
    154  CG       -20.9140  137.0990   38.0540 C.ar  157  HIS157      0.0817
    155  ND1      -22.2390  137.4520   38.1840 N.ar  157  HIS157     -0.2268
    156  CD2      -20.2250  137.8880   38.9090 C.ar  157  HIS157      0.1154
    157  CE1      -22.3460  138.4110   39.0890 C.ar  157  HIS157      0.1986
    158  NE2      -21.1370  138.6920   39.5390 N.ar  157  HIS157     -0.2212
    159  N        -12.6180  141.0010   55.7260 N.3   184  GLU184     -0.1245
    160  CA       -12.4050  141.6870   54.4460 C.3   184  GLU184      0.1567
    161  C        -11.2050  142.6510   54.4690 C.2   184  GLU184      0.2260
    162  O        -11.0830  143.5080   55.3530 O.2   184  GLU184     -0.2867
    163  CB       -13.6850  142.4170   54.0200 C.3   184  GLU184      0.0388
    164  CG       -13.7220  142.8580   52.5520 C.3   184  GLU184      0.1160
    165  CD       -15.1370  142.9290   51.9990 C.2   184  GLU184      0.3649
    166  OE1      -16.0830  142.5560   52.7290 O.co2 184  GLU184     -0.2457
    167  OE2      -15.3050  143.3490   50.8310 O.co2 184  GLU184     -0.2457
@<TRIPOS>BOND
     1    44    45    2
     2    44    43    1
     3    42    43    1
     4    43    46    1
     5    46    47    1
     6   152   151    2
     7   151   150    1
     8    47    48    1
     9   153   150    1
    10   153   154    1
    11   150   149    1
    12    48    49    2
    13    48    50   am
    14   143   142    2
    15   154   155   ar
    16   154   156   ar
    17   155   157   ar
    18   147   146   ar
    19   156   158   ar
    20   142   141    1
    21   157   158   ar
    22    93    92    1
    23   144   141    1
    24   144   145    1
    25    90    89    2
    26    40    41    2
    27    40    39    1
    28    91    92    1
    29    91    88    1
    30   141   140    1
    31    89    88    1
    32   146   145    1
    33   146   148   ar
    34    92    94    1
    35    39    38    1
    36    88    87    1
    37   133   132    2
    38    10    11    1
    39   140   132   am
    40    13    12    2
    41    38    33   am
    42   132   131    1
    43     1     2    1
    44    34    33    2
    45    33    32    1
    46    14    11    1
    47    14    15    1
    48    11    12    1
    49    12    21   am
    50    30    29    2
    51   137   139   ar
    52   137   135   ar
    53    28    29    1
    54    28    27    1
    55    29    31   am
    56    27    23   am
    57   139   138   ar
    58     9     7   am
    59     2     5    1
    60     2     3    1
    61     5     6    1
    62   126   125    2
    63    32    31    1
    64    32    35    1
    65     3     4    2
    66   131   130    1
    67   131   134    1
    68    16    15    1
    69    16    17    1
    70     7     6    1
    71     7     8    2
    72    21    22    1
    73    19    18    1
    74    23    22    1
    75    23    24    2
    76    22    25    1
    77    51    52    1
    78   135   134    1
    79   135   136   ar
    80   128   127    1
    81   125   124    1
    82   138   136   ar
    83    17    18    2
    84    18    20    1
    85    35    37    1
    86    35    36    1
    87    25    26    1
    88    52    53    1
    89    52    55    1
    90   127   124    1
    91   127   129    1
    92    56    58    1
    93    56    55    1
    94   124   123    1
    95    86    85    2
    96    54    53    2
    97    53    59   am
    98    85    84    1
    99    55    57    1
   100   118   117    2
   101    59    65    1
   102    59    60    1
   103    65    64    1
   104   123   117   am
   105    60    63    1
   106    60    61    1
   107   117   116    1
   108    63    64    1
   109    84    83    1
   110    81    80   ar
   111    61    62    2
   112    83    76   am
   113   116   115    1
   114   116   119    1
   115    80    82   ar
   116    80    79    1
   117    95    96    1
   118   114   113    1
   119   106   105    2
   120    78    79    1
   121    78    75    1
   122    76    77    2
   123    76    75    1
   124   112   113   ar
   125   112   110   ar
   126   121   119    1
   127   113   111   ar
   128   119   120    1
   129    96    97    1
   130    96    99    1
   131   105   104    1
   132    75    74    1
   133   110   108   ar
   134    97    98    2
   135   102   100   am
   136   111   109   ar
   137   100   101    2
   138   100    99    1
   139   120   122    1
   140   108   109   ar
   141   108   107    1
   142   167   165   ar
   143   104   107    1
   144   104   103    1
   145    72    71    1
   146   165   164    1
   147   165   166   ar
   148   164   163    1
   149    71    73    1
   150    71    70    1
   151    70    67    1
   152   163   160    1
   153    66    67    1
   154   160   161    1
   155   160   159    1
   156   161   162    2
   157    67    68    1
   158    69    68    2
