@<TRIPOS>MOLECULE
tmp/3u7nA00.pdb
 167 158 0 0 0
SMALL
GASTEIGER

@<TRIPOS>ATOM
      1  N        -10.3460  152.5120   42.2580 N.3    45  GLN45      -0.1245
      2  CA        -9.5710  152.5150   43.5130 C.3    45  GLN45       0.1566
      3  C         -8.6770  153.7540   43.6490 C.2    45  GLN45       0.2260
      4  O         -8.0780  153.9810   44.6940 O.2    45  GLN45      -0.2867
      5  CB        -8.7230  151.2400   43.6430 C.3    45  GLN45       0.0367
      6  CG        -9.5390  149.9620   43.8510 C.3    45  GLN45       0.0905
      7  CD        -8.6810  148.7080   43.8150 C.2    45  GLN45       0.2608
      8  OE1       -7.5020  148.7480   44.1450 O.2    45  GLN45      -0.2717
      9  NE2       -9.2770  147.5870   43.4210 N.am   45  GLN45      -0.0878
     10  N        -17.7770  153.6850   41.6710 N.3    56  ARG56      -0.1231
     11  CA       -17.8920  152.9650   42.9190 C.3    56  ARG56       0.1694
     12  C        -16.6690  152.0450   42.9850 C.2    56  ARG56       0.2593
     13  O        -16.3580  151.3540   42.0090 O.2    56  ARG56      -0.2718
     14  CB       -19.1950  152.1590   42.8980 C.3    56  ARG56       0.0321
     15  CG       -19.5540  151.4400   44.1870 C.3    56  ARG56       0.0489
     16  CD       -20.8390  150.6300   43.9890 C.3    56  ARG56       0.2205
     17  NE       -21.2280  149.8860   45.1890 N.pl3  56  ARG56      -0.0865
     18  CZ       -22.3290  149.1410   45.2870 C.cat  56  ARG56       0.5346
     19  NH1      -23.1650  149.0320   44.2560 N.pl3  56  ARG56       0.1354
     20  NH2      -22.6020  148.5060   46.4240 N.pl3  56  ARG56       0.1354
     21  N        -15.9700  152.0580   44.1150 N.am   57  SER57      -0.1938
     22  CA       -14.7650  151.2450   44.3050 C.3    57  SER57       0.2055
     23  C        -15.0250  149.7360   44.1590 C.2    57  SER57       0.2644
     24  O        -15.9860  149.2060   44.7010 O.2    57  SER57      -0.2714
     25  CB       -14.1440  151.5270   45.6720 C.3    57  SER57       0.2130
     26  OG       -12.8530  150.9520   45.7410 O.3    57  SER57      -0.2179
     27  N        -14.1650  149.0560   43.4110 N.am   58  GLY58      -0.1939
     28  CA       -14.3350  147.6280   43.1810 C.3    58  GLY58       0.2014
     29  C        -13.0300  146.8600   43.2170 C.2    58  GLY58       0.2639
     30  O        -11.9690  147.4080   42.8790 O.2    58  GLY58      -0.2714
     31  N        -13.1200  145.5890   43.6240 N.am   59  VAL59      -0.1963
     32  CA       -11.9760  144.6730   43.6230 C.3    59  VAL59       0.1727
     33  C        -12.1220  143.5280   42.6060 C.2    59  VAL59       0.2616
     34  O        -11.1730  142.7830   42.3610 O.2    59  VAL59      -0.2715
     35  CB       -11.6670  144.1050   45.0500 C.3    59  VAL59       0.0290
     36  CG1      -11.3870  145.2410   46.0390 C.3    59  VAL59       0.0023
     37  CG2      -12.7950  143.2170   45.5510 C.3    59  VAL59       0.0023
     38  N        -13.3050  143.3970   42.0140 N.am   60  GLY60      -0.1955
     39  CA       -13.5570  142.3470   41.0350 C.3    60  GLY60       0.1869
     40  C        -14.5630  142.7860   39.9860 C.2    60  GLY60       0.2309
     41  O        -15.4710  143.5700   40.2790 O.2    60  GLY60      -0.2863
     42  N        -21.0910  141.5440   33.5860 N.3    65  GLN65      -0.1245
     43  CA       -21.4970  142.7720   34.2430 C.3    65  GLN65       0.1566
     44  C        -21.3970  143.9780   33.3240 C.2    65  GLN65       0.2260
     45  O        -22.0000  145.0050   33.5980 O.2    65  GLN65      -0.2867
     46  CB       -20.6610  143.0190   35.4930 C.3    65  GLN65       0.0367
     47  CG       -21.1080  142.2040   36.6860 C.3    65  GLN65       0.0905
     48  CD       -20.2400  142.4850   37.9010 C.2    65  GLN65       0.2608
     49  OE1      -19.0560  142.1330   37.9290 O.2    65  GLN65      -0.2717
     50  NE2      -20.8210  143.1430   38.9010 N.am   65  GLN65      -0.0878
     51  N         -7.1010  143.2920   44.1370 N.3    77  ILE77      -0.1231
     52  CA        -7.1600  143.4680   45.5690 C.3    77  ILE77       0.1678
     53  C         -5.8370  144.0510   46.0120 C.2    77  ILE77       0.2434
     54  O         -4.8170  143.3870   45.9060 O.2    77  ILE77      -0.2733
     55  CB        -7.4460  142.1520   46.3330 C.3    77  ILE77       0.0265
     56  CG1       -8.7580  141.5210   45.8450 C.3    77  ILE77       0.0019
     57  CG2       -7.4610  142.4100   47.8750 C.3    77  ILE77       0.0020
     58  CD1       -8.8760  140.0130   46.1310 C.3    77  ILE77       0.0001
     59  N         -5.8510  145.3030   46.4970 N.am   78  PRO78      -0.2729
     60  CA        -4.6000  145.9400   46.9220 C.3    78  PRO78       0.1401
     61  C         -4.0620  145.3070   48.2020 C.2    78  PRO78       0.2269
     62  O         -4.7670  144.5580   48.8840 O.2    78  PRO78      -0.2865
     63  CB        -5.0150  147.3940   47.1840 C.3    78  PRO78       0.0296
     64  CG        -6.4570  147.3050   47.5770 C.3    78  PRO78       0.0237
     65  CD        -7.0310  146.1520   46.7710 C.3    78  PRO78       0.0939
     66  N        -17.6010  137.1180   54.7480 N.3   105  LEU105     -0.1245
     67  CA       -17.4010  138.4890   55.2160 C.3   105  LEU105      0.1561
     68  C        -18.5350  138.8070   56.2020 C.2   105  LEU105      0.2260
     69  O        -19.7000  138.5120   55.9080 O.2   105  LEU105     -0.2867
     70  CB       -17.3900  139.4780   54.0510 C.3   105  LEU105      0.0270
     71  CG       -16.3870  139.2280   52.9230 C.3   105  LEU105      0.0019
     72  CD1      -16.4980  140.3400   51.9020 C.3   105  LEU105      0.0001
     73  CD2      -14.9310  139.0900   53.4310 C.3   105  LEU105      0.0001
     74  N        -21.8870  140.8280   51.4130 N.3   109  GLU109     -0.1231
     75  CA       -21.1530  141.2710   50.2350 C.3   109  GLU109      0.1699
     76  C        -21.9160  142.3740   49.5230 C.2   109  GLU109      0.2592
     77  O        -23.0740  142.6350   49.8400 O.2   109  GLU109     -0.2718
     78  CB       -20.8820  140.0910   49.2990 C.3   109  GLU109      0.0402
     79  CG       -19.9430  139.0070   49.8920 C.3   109  GLU109      0.1161
     80  CD       -19.7100  137.8440   48.9290 C.2   109  GLU109      0.3649
     81  OE1      -20.1450  137.9540   47.7580 O.co2 109  GLU109     -0.2457
     82  OE2      -19.1190  136.8180   49.3410 O.co2 109  GLU109     -0.2457
     83  N        -21.2510  143.0380   48.5860 N.am  110  GLY110     -0.1957
     84  CA       -21.8960  144.0090   47.7190 C.3   110  GLY110      0.1869
     85  C        -21.5690  143.7000   46.2750 C.2   110  GLY110      0.2309
     86  O        -20.7700  142.8040   45.9980 O.2   110  GLY110     -0.2863
     87  N        -21.3360  145.6510   42.1550 N.3   111  LEU111     -0.1245
     88  CA       -21.3740  146.7880   41.2240 C.3   111  LEU111      0.1561
     89  C        -22.6970  146.8730   40.4600 C.2   111  LEU111      0.2260
     90  O        -23.1690  147.9660   40.1380 O.2   111  LEU111     -0.2867
     91  CB       -20.2040  146.7060   40.2210 C.3   111  LEU111      0.0270
     92  CG       -18.7840  147.0340   40.6980 C.3   111  LEU111      0.0019
     93  CD1      -17.7460  146.4960   39.7500 C.3   111  LEU111      0.0001
     94  CD2      -18.5820  148.5270   40.9070 C.3   111  LEU111      0.0001
     95  N        -27.8960  147.8660   48.9600 N.3   116  ASN116     -0.1240
     96  CA       -27.2840  146.8700   49.8250 C.3   116  ASN116      0.1653
     97  C        -28.2640  145.7870   50.2380 C.2   116  ASN116      0.2266
     98  O        -29.4570  146.0650   50.4450 O.2   116  ASN116     -0.2867
     99  CB       -26.6710  147.5190   51.0590 C.3   116  ASN116      0.1155
    100  CG       -25.2960  148.0860   50.7860 C.2   116  ASN116      0.2627
    101  OD1      -25.0160  149.2380   51.1030 O.2   116  ASN116     -0.2716
    102  ND2      -24.4270  147.2770   50.1820 N.am  116  ASN116     -0.0877
    103  N        -10.1480  136.0920   52.1360 N.3   146  TYR146     -0.1241
    104  CA       -10.6870  137.2220   51.3840 C.3   146  TYR146      0.1605
    105  C        -10.5780  137.0850   49.8590 C.2   146  TYR146      0.2264
    106  O        -11.5820  137.1840   49.1750 O.2   146  TYR146     -0.2867
    107  CB       -10.0800  138.5660   51.8500 C.3   146  TYR146      0.0534
    108  CG       -10.7490  139.7480   51.1700 C.ar  146  TYR146     -0.0201
    109  CD1      -12.0620  140.1100   51.4900 C.ar  146  TYR146     -0.0009
    110  CD2      -10.0890  140.4750   50.1910 C.ar  146  TYR146     -0.0009
    111  CE1      -12.6950  141.1900   50.8590 C.ar  146  TYR146      0.0417
    112  CE2      -10.7070  141.5520   49.5510 C.ar  146  TYR146      0.0417
    113  CZ       -12.0110  141.9040   49.8850 C.ar  146  TYR146      0.1957
    114  OH       -12.6160  142.9760   49.2460 O.3   146  TYR146     -0.2866
    115  N        -12.8810  134.5130   48.5190 N.3   149  ILE149     -0.1231
    116  CA       -14.2520  135.0020   48.4770 C.3   149  ILE149      0.1692
    117  C        -14.4990  135.8370   47.2050 C.2   149  ILE149      0.2591
    118  O        -15.5070  135.6500   46.5240 O.2   149  ILE149     -0.2718
    119  CB       -14.6210  135.7730   49.7870 C.3   149  ILE149      0.0266
    120  CG1      -14.7390  134.7740   50.9510 C.3   149  ILE149      0.0019
    121  CG2      -15.9290  136.5810   49.6160 C.3   149  ILE149      0.0020
    122  CD1      -14.8770  135.3850   52.3470 C.3   149  ILE149      0.0001
    123  N        -13.5670  136.7320   46.8770 N.am  150  VAL150     -0.1980
    124  CA       -13.7230  137.6360   45.7380 C.3   150  VAL150      0.1595
    125  C        -13.7610  136.8680   44.4150 C.2   150  VAL150      0.2287
    126  O        -14.6370  137.1100   43.5690 O.2   150  VAL150     -0.2864
    127  CB       -12.5990  138.7080   45.7140 C.3   150  VAL150      0.0276
    128  CG1      -12.5750  139.4570   44.3830 C.3   150  VAL150      0.0022
    129  CG2      -12.7620  139.6760   46.9120 C.3   150  VAL150      0.0022
    130  N        -17.0490  135.0390   44.0240 N.3   153  HIS153     -0.1226
    131  CA       -18.0380  136.0300   43.6610 C.3   153  HIS153      0.1752
    132  C        -17.9750  136.2960   42.1490 C.2   153  HIS153      0.2595
    133  O        -18.9970  136.2660   41.4660 O.2   153  HIS153     -0.2718
    134  CB       -17.7880  137.3020   44.4970 C.3   153  HIS153      0.0759
    135  CG       -18.7860  138.3940   44.2820 C.ar  153  HIS153      0.0818
    136  ND1      -19.6710  138.7960   45.2610 N.ar  153  HIS153     -0.2268
    137  CD2      -19.0150  139.1990   43.2170 C.ar  153  HIS153      0.1154
    138  CE1      -20.4150  139.7870   44.8060 C.ar  153  HIS153      0.1986
    139  NE2      -20.0330  140.0570   43.5700 N.ar  153  HIS153     -0.2212
    140  N        -16.7720  136.5120   41.6220 N.am  154  GLU154     -0.1979
    141  CA       -16.6130  136.7570   40.1950 C.3   154  GLU154      0.1602
    142  C        -17.0180  135.5650   39.3220 C.2   154  GLU154      0.2287
    143  O        -17.7330  135.7360   38.3160 O.2   154  GLU154     -0.2864
    144  CB       -15.1860  137.1910   39.8780 C.3   154  GLU154      0.0415
    145  CG       -14.8160  138.5300   40.4830 C.3   154  GLU154      0.1163
    146  CD       -15.9380  139.5740   40.3990 C.2   154  GLU154      0.3649
    147  OE1      -16.6380  139.6900   39.3490 O.co2 154  GLU154     -0.2457
    148  OE2      -16.0960  140.2980   41.3960 O.co2 154  GLU154     -0.2457
    149  N        -20.7520  135.0670   38.7980 N.3   157  HIS157     -0.1241
    150  CA       -21.3190  135.9020   37.7350 C.3   157  HIS157      0.1621
    151  C        -21.3230  135.2240   36.3680 C.2   157  HIS157      0.2264
    152  O        -22.2120  135.4780   35.5500 O.2   157  HIS157     -0.2867
    153  CB       -20.5280  137.1930   37.5890 C.3   157  HIS157      0.0745
    154  CG       -20.9720  138.2790   38.5020 C.ar  157  HIS157      0.0817
    155  ND1      -22.3040  138.6100   38.6800 N.ar  157  HIS157     -0.2268
    156  CD2      -20.2620  139.1170   39.2920 C.ar  157  HIS157      0.1154
    157  CE1      -22.3890  139.6010   39.5490 C.ar  157  HIS157      0.1986
    158  NE2      -21.1660  139.9320   39.9270 N.ar  157  HIS157     -0.2212
    159  N        -12.3890  142.1110   56.3120 N.3   184  GLU184     -0.1245
    160  CA       -12.3540  142.7740   55.0020 C.3   184  GLU184      0.1567
    161  C        -10.9520  143.2690   54.5980 C.2   184  GLU184      0.2260
    162  O        -10.4480  144.2680   55.1220 O.2   184  GLU184     -0.2867
    163  CB       -13.3650  143.9290   54.9730 C.3   184  GLU184      0.0388
    164  CG       -13.8730  144.3070   53.5800 C.3   184  GLU184      0.1160
    165  CD       -15.2590  143.7450   53.2620 C.2   184  GLU184      0.3649
    166  OE1      -15.7250  143.9700   52.1210 O.co2 184  GLU184     -0.2457
    167  OE2      -15.8790  143.0930   54.1390 O.co2 184  GLU184     -0.2457
@<TRIPOS>BOND
     1    44    45    2
     2    44    43    1
     3    42    43    1
     4    43    46    1
     5    46    47    1
     6   152   151    2
     7   151   150    1
     8    47    48    1
     9   153   150    1
    10   153   154    1
    11   150   149    1
    12    48    49    2
    13    48    50   am
    14   143   142    2
    15   154   155   ar
    16   154   156   ar
    17   155   157   ar
    18   156   158   ar
    19   142   141    1
    20   147   146   ar
    21   157   158   ar
    22    93    92    1
    23   144   141    1
    24   144   145    1
    25    40    41    2
    26    40    39    1
    27    90    89    2
    28   141   140    1
    29    91    92    1
    30    91    88    1
    31   146   145    1
    32   146   148   ar
    33    89    88    1
    34    92    94    1
    35    39    38    1
    36    88    87    1
    37   133   132    2
    38   140   132   am
    39    10    11    1
    40    13    12    2
    41    38    33   am
    42   132   131    1
    43     1     2    1
    44    34    33    2
    45    33    32    1
    46    30    29    2
    47    14    11    1
    48    14    15    1
    49    11    12    1
    50    12    21   am
    51    28    29    1
    52    28    27    1
    53   137   139   ar
    54   137   135   ar
    55    29    31   am
    56    27    23   am
    57     9     7   am
    58     2     5    1
    59     2     3    1
    60   126   125    2
    61   139   138   ar
    62    32    31    1
    63    32    35    1
    64     5     6    1
    65     3     4    2
    66   131   130    1
    67   131   134    1
    68     7     6    1
    69     7     8    2
    70    16    15    1
    71    16    17    1
    72    21    22    1
    73    51    52    1
    74    23    22    1
    75    23    24    2
    76    19    18    1
    77   135   134    1
    78   135   136   ar
    79    22    25    1
    80   128   127    1
    81   125   124    1
    82   138   136   ar
    83    35    37    1
    84    35    36    1
    85    17    18    2
    86    18    20    1
    87    52    53    1
    88    52    55    1
    89    25    26    1
    90   127   124    1
    91   127   129    1
    92   124   123    1
    93    56    58    1
    94    56    55    1
    95    54    53    2
    96    86    85    2
    97    53    59   am
    98    85    84    1
    99    55    57    1
   100    59    65    1
   101    59    60    1
   102   118   117    2
   103    65    64    1
   104   123   117   am
   105    60    63    1
   106    60    61    1
   107    63    64    1
   108   117   116    1
   109    84    83    1
   110    81    80   ar
   111    61    62    2
   112   116   115    1
   113   116   119    1
   114    83    76   am
   115    80    82   ar
   116    80    79    1
   117    95    96    1
   118   106   105    2
   119   114   113    1
   120    78    79    1
   121    78    75    1
   122    76    77    2
   123    76    75    1
   124   112   113   ar
   125   112   110   ar
   126   121   119    1
   127   119   120    1
   128    96    97    1
   129    96    99    1
   130   105   104    1
   131   113   111   ar
   132   102   100   am
   133   110   108   ar
   134    75    74    1
   135    97    98    2
   136   100    99    1
   137   100   101    2
   138   111   109   ar
   139   120   122    1
   140   108   109   ar
   141   108   107    1
   142   104   107    1
   143   104   103    1
   144    72    71    1
   145   166   165   ar
   146    71    73    1
   147    71    70    1
   148   165   164    1
   149   165   167   ar
   150   164   163    1
   151    70    67    1
   152   161   160    1
   153   161   162    2
   154    66    67    1
   155   163   160    1
   156   160   159    1
   157    67    68    1
   158    69    68    2
