@<TRIPOS>MOLECULE
tmp/3u7rB02.pdb
 123 119 0 0 0
SMALL
GASTEIGER

@<TRIPOS>ATOM
      1  N         12.3880    4.5290   63.5910 N.3     9  SER9       -0.1217
      2  CA        11.6150    3.5300   64.3290 C.3     9  SER9        0.1889
      3  C         10.1880    4.0000   64.4240 C.2     9  SER9        0.2288
      4  O          9.9520    5.1800   64.5360 O.2     9  SER9       -0.2866
      5  CB        12.1940    3.2850   65.7220 C.3     9  SER9        0.2089
      6  OG        11.4200    2.2820   66.3840 O.3     9  SER9       -0.2183
      7  N          7.9690    2.0540   66.6260 N.3    11  ARG11      -0.1245
      8  CA         7.3610    1.3910   67.7580 C.3    11  ARG11       0.1563
      9  C          7.0690    2.4050   68.8600 C.2    11  ARG11       0.2260
     10  O          7.7250    3.4590   68.9870 O.2    11  ARG11      -0.2867
     11  CB         8.2440    0.2440   68.2400 C.3    11  ARG11       0.0307
     12  CG         9.4840    0.6700   69.0070 C.3    11  ARG11       0.0489
     13  CD        10.2700   -0.5350   69.4780 C.3    11  ARG11       0.2205
     14  NE        11.4010   -0.1150   70.3050 N.pl3  11  ARG11      -0.0865
     15  CZ        11.4320   -0.1350   71.6290 C.cat  11  ARG11       0.5346
     16  NH1       10.4080   -0.5620   72.3500 N.pl3  11  ARG11       0.1354
     17  NH2       12.4950    0.2730   72.2830 N.pl3  11  ARG11       0.1354
     18  N          9.9550    3.5790   71.2770 N.3    14  SER14      -0.1202
     19  CA        11.2440    3.7760   70.5910 C.3    14  SER14       0.2020
     20  C         12.2070    4.7010   71.3310 C.2    14  SER14       0.2619
     21  O         11.8770    5.8170   71.7120 O.2    14  SER14      -0.2717
     22  CB        10.9990    4.3900   69.2460 C.3    14  SER14       0.2103
     23  OG        12.1690    4.9440   68.6320 O.3    14  SER14      -0.2182
     24  N         13.4330    4.2350   71.4960 N.am   15  LEU15      -0.1965
     25  CA        14.4680    5.0240   72.1410 C.3    15  LEU15       0.1728
     26  C         14.9410    6.1250   71.2060 C.2    15  LEU15       0.2616
     27  O         15.2570    7.2280   71.6410 O.2    15  LEU15      -0.2715
     28  CB        15.6430    4.1470   72.5250 C.3    15  LEU15       0.0311
     29  CG        15.3150    2.9850   73.4450 C.3    15  LEU15       0.0022
     30  CD1       16.5760    2.2120   73.7690 C.3    15  LEU15       0.0001
     31  CD2       14.5730    3.4750   74.6760 C.3    15  LEU15       0.0001
     32  N         14.9650    5.8340   69.9060 N.am   16  ASN16      -0.1972
     33  CA        15.3460    6.8650   68.9520 C.3    16  ASN16       0.1688
     34  C         14.3190    7.9920   68.8830 C.2    16  ASN16       0.2292
     35  O         14.6680    9.1610   68.7290 O.2    16  ASN16      -0.2864
     36  CB        15.6650    6.2680   67.6090 C.3    16  ASN16       0.1181
     37  CG        17.0230    5.5740   67.6460 C.2    16  ASN16       0.2629
     38  OD1       18.0670    6.2080   67.4570 O.2    16  ASN16      -0.2716
     39  ND2       17.0190    4.3040   67.9710 N.am   16  ASN16      -0.0877
     40  N         18.1100    3.7540   64.6420 N.3    73  PRO73      -0.2102
     41  CA        18.5830    2.5530   65.3240 C.3    73  PRO73       0.1504
     42  C         19.4760    1.7420   64.4160 C.2    73  PRO73       0.2576
     43  O         19.6420    2.0700   63.2410 O.2    73  PRO73      -0.2718
     44  CB        17.3200    1.7550   65.6030 C.3    73  PRO73       0.0282
     45  CG        16.3560    2.2140   64.5990 C.3    73  PRO73       0.0208
     46  CD        16.7650    3.5640   64.0760 C.3    73  PRO73       0.0893
     47  N         20.1020    0.7150   65.0010 N.am   74  GLU74      -0.1966
     48  CA        20.8860   -0.2610   64.2550 C.3    74  GLU74       0.1733
     49  C         20.1640   -1.5750   64.2720 C.2    74  GLU74       0.2616
     50  O         19.8390   -2.1350   65.3410 O.2    74  GLU74      -0.2715
     51  CB        22.2530   -0.3860   64.9280 C.3    74  GLU74       0.0429
     52  CG        23.2250   -1.3160   64.2240 C.3    74  GLU74       0.1163
     53  CD        24.5910   -1.1840   64.8320 C.2    74  GLU74       0.3649
     54  OE1       25.2520   -0.1630   64.5590 O.co2  74  GLU74      -0.2457
     55  OE2       24.9700   -2.0620   65.6470 O.co2  74  GLU74      -0.2457
     56  N         19.9070   -2.0880   63.0650 N.am   75  TYR75      -0.1960
     57  CA        19.3650   -3.4290   62.8570 C.3    75  TYR75       0.1771
     58  C         20.3900   -4.2610   62.0680 C.2    75  TYR75       0.2620
     59  O         20.7000   -3.9180   60.9250 O.2    75  TYR75      -0.2715
     60  CB        18.0770   -3.4250   62.0580 C.3    75  TYR75       0.0574
     61  CG        16.8500   -2.8180   62.6950 C.ar   75  TYR75      -0.0198
     62  CD1       16.7710   -2.4870   64.0400 C.ar   75  TYR75      -0.0009
     63  CD2       15.7570   -2.5730   61.8920 C.ar   75  TYR75      -0.0009
     64  CE1       15.6260   -1.9560   64.6020 C.ar   75  TYR75       0.0417
     65  CE2       14.5750   -2.0840   62.4170 C.ar   75  TYR75       0.0417
     66  CZ        14.5340   -1.7610   63.7780 C.ar   75  TYR75       0.1957
     67  OH        13.3410   -1.2380   64.2380 O.3    75  TYR75      -0.2866
     68  N         20.9120   -5.3280   62.6560 N.am   76  ASN76      -0.1958
     69  CA        21.8170   -6.2170   61.9900 C.3    76  ASN76       0.1819
     70  C         22.9850   -5.4620   61.3660 C.2    76  ASN76       0.2621
     71  O         23.3940   -5.7200   60.2480 O.2    76  ASN76      -0.2715
     72  CB        21.0430   -7.0600   60.9900 C.3    76  ASN76       0.1195
     73  CG        19.9940   -7.8960   61.6870 C.2    76  ASN76       0.2630
     74  OD1       18.7890   -7.8030   61.3420 O.2    76  ASN76      -0.2716
     75  ND2       20.4010   -8.7280   62.5740 N.am   76  ASN76      -0.0877
     76  N         23.5010   -4.5260   62.1600 N.am   77  ARG77      -0.1977
     77  CA        24.7440   -3.8040   61.8260 C.3    77  ARG77       0.1597
     78  C         24.6470   -2.8490   60.6720 C.2    77  ARG77       0.2287
     79  O         25.6750   -2.3680   60.1780 O.2    77  ARG77      -0.2864
     80  CB        25.9470   -4.7590   61.6840 C.3    77  ARG77       0.0334
     81  CG        26.1520   -5.6850   62.8780 C.3    77  ARG77       0.0492
     82  CD        26.2200   -4.9690   64.2030 C.3    77  ARG77       0.2205
     83  NE        26.3760   -5.8840   65.3150 N.pl3  77  ARG77      -0.0865
     84  CZ        26.2990   -5.5360   66.5960 C.cat  77  ARG77       0.5346
     85  NH1       26.1250   -4.2850   66.9550 N.pl3  77  ARG77       0.1354
     86  NH2       26.4230   -6.4780   67.5190 N.pl3  77  ARG77       0.1354
     87  N         20.7790    5.8200   68.6150 N.3   108  THR108     -0.1203
     88  CA        20.9600    5.1690   69.9030 C.3   108  THR108      0.1994
     89  C         20.5620    3.7030   69.8770 C.2   108  THR108      0.2619
     90  O         19.7110    3.2820   69.0840 O.2   108  THR108     -0.2717
     91  CB        20.2030    5.9140   71.0280 C.3   108  THR108      0.1784
     92  OG1       20.6040    5.4150   72.3070 O.3   108  THR108     -0.2211
     93  CG2       18.7470    5.8060   70.8980 C.3   108  THR108      0.0376
     94  N         21.2660    2.9650   70.7060 N.am  109  SER109     -0.1938
     95  CA        21.0180    1.5790   71.0000 C.3   109  SER109      0.2040
     96  C         21.1130    1.3590   72.4890 C.2   109  SER109      0.2485
     97  O         21.8650    2.0440   73.1510 O.2   109  SER109     -0.2729
     98  CB        22.0670    0.7100   70.2900 C.3   109  SER109      0.2129
     99  OG        21.9400   -0.6280   70.6500 O.3   109  SER109     -0.2179
    100  N         20.4160    0.3550   73.0100 N.am  110  PRO110     -0.2715
    101  CA        20.6950   -0.0400   74.4010 C.3   110  PRO110      0.1536
    102  C         22.1190   -0.6010   74.6020 C.2   110  PRO110      0.2599
    103  O         22.6380   -0.5900   75.7160 O.2   110  PRO110     -0.2715
    104  CB        19.6360   -1.1080   74.7070 C.3   110  PRO110      0.0310
    105  CG        19.0600   -1.5030   73.4090 C.3   110  PRO110      0.0237
    106  CD        19.3580   -0.4550   72.3930 C.3   110  PRO110      0.0939
    107  N         22.7060   -1.1290   73.5410 N.am  111  GLY111     -0.1955
    108  CA        24.0710   -1.6740   73.6060 C.3   111  GLY111      0.1869
    109  C         25.1520   -0.5930   73.5120 C.2   111  GLY111      0.2309
    110  O         24.9200    0.5350   73.0580 O.2   111  GLY111     -0.2863
    111  N         27.6230   -0.1980   71.5260 N.3   113  ILE113     -0.1245
    112  CA        28.0310    0.2460   70.2050 C.3   113  ILE113      0.1561
    113  C         27.2540    1.5090   69.7660 C.2   113  ILE113      0.2260
    114  O         27.7150    2.2290   68.9140 O.2   113  ILE113     -0.2867
    115  CB        28.0700   -0.9200   69.1880 C.3   113  ILE113      0.0252
    116  CG1       29.2040   -1.8820   69.6150 C.3   113  ILE113      0.0019
    117  CG2       28.3030   -0.4560   67.7570 C.3   113  ILE113      0.0019
    118  CD1       29.2500   -3.1750   68.8650 C.3   113  ILE113      0.0001
    119  N         24.6830    2.2280   68.0100 N.3   115  ALA115     -0.1245
    120  CA        24.2580    2.2870   66.6220 C.3   115  ALA115      0.1562
    121  C         25.3190    2.8280   65.6620 C.2   115  ALA115      0.2260
    122  O         25.0010    3.2990   64.5730 O.2   115  ALA115     -0.2867
    123  CB        22.9080    3.0240   66.4570 C.3   115  ALA115      0.0290
@<TRIPOS>BOND
     1    79    78    2
     2    71    70    2
     3    78    77    1
     4    59    58    2
     5    72    73    1
     6    72    69    1
     7    74    73    2
     8    70    69    1
     9    70    76   am
    10    80    77    1
    11    80    81    1
    12    73    75   am
    13    77    76    1
    14    63    65   ar
    15    63    61   ar
    16    69    68    1
    17    60    61    1
    18    60    57    1
    19    58    68   am
    20    58    57    1
    21    65    66   ar
    22    61    62   ar
    23    57    56    1
    24    81    82    1
    25    56    49   am
    26    43    42    2
    27     1     2    1
    28    66    67    1
    29    66    64   ar
    30    62    64   ar
    31    46    45    1
    32    46    40    1
    33    82    83    1
    34    52    53    1
    35    52    51    1
    36    48    49    1
    37    48    51    1
    38    48    47    1
    39    49    50    2
    40     2     3    1
    41     2     5    1
    42    42    47   am
    43    42    41    1
    44     3     4    2
    45    54    53   ar
    46   122   121    2
    47    45    44    1
    48    40    41    1
    49    53    55   ar
    50    83    84    2
    51    41    44    1
    52   121   120    1
    53     5     6    1
    54   123   120    1
    55    84    85    1
    56    84    86    1
    57   120   119    1
    58     7     8    1
    59    38    37    2
    60    36    37    1
    61    36    33    1
    62    37    39   am
    63   117   115    1
    64     8    11    1
    65     8     9    1
    66    11    12    1
    67    87    88    1
    68    23    22    1
    69    35    34    2
    70     9    10    2
    71   118   116    1
    72    34    33    1
    73   114   113    2
    74    33    32    1
    75    12    13    1
    76    90    89    2
    77   115   116    1
    78   115   112    1
    79    22    19    1
    80    13    14    1
    81   113   112    1
    82    89    88    1
    83    89    94   am
    84    88    91    1
    85    32    26   am
    86   112   111    1
    87    98    99    1
    88    98    95    1
    89    14    15    2
    90    19    18    1
    91    19    20    1
    92    94    95    1
    93    93    91    1
    94    95    96    1
    95    91    92    1
    96    26    27    2
    97    26    25    1
    98    20    24   am
    99    20    21    2
   100    24    25    1
   101    15    17    1
   102    15    16    1
   103    25    28    1
   104   106   100    1
   105   106   105    1
   106    96   100   am
   107    96    97    2
   108    28    29    1
   109   100   101    1
   110   110   109    2
   111   105   104    1
   112    29    30    1
   113    29    31    1
   114   109   108    1
   115   107   108    1
   116   107   102   am
   117   101   102    1
   118   101   104    1
   119   102   103    2
