@<TRIPOS>MOLECULE
tmp/3u8fA01.pdb
 132 127 0 0 0
SMALL
GASTEIGER

@<TRIPOS>ATOM
      1  N         -5.9320   28.6810   -0.5240 N.3    69  VAL69      -0.1231
      2  CA        -4.9710   27.6760   -1.0220 C.3    69  VAL69       0.1692
      3  C         -5.3250   26.2420   -0.5880 C.2    69  VAL69       0.2592
      4  O         -4.4530   25.3630   -0.5130 O.2    69  VAL69      -0.2718
      5  CB        -3.4710   28.0120   -0.7030 C.3    69  VAL69       0.0266
      6  CG1       -2.5760   27.5500   -1.8540 C.3    69  VAL69       0.0020
      7  CG2       -3.2580   29.5100   -0.4610 C.3    69  VAL69       0.0020
      8  N         -6.6060   26.0120   -0.3170 N.am   70  TYR70      -0.1962
      9  CA        -7.0790   24.6830    0.0530 C.3    70  TYR70       0.1771
     10  C         -7.3590   23.8490   -1.1940 C.2    70  TYR70       0.2619
     11  O         -8.1030   24.2670   -2.0810 O.2    70  TYR70      -0.2715
     12  CB        -8.3370   24.7590    0.9290 C.3    70  TYR70       0.0574
     13  CG        -8.1730   25.3850    2.3080 C.ar   70  TYR70      -0.0198
     14  CD1       -9.2910   25.8260    3.0230 C.ar   70  TYR70      -0.0009
     15  CD2       -6.9180   25.5360    2.9000 C.ar   70  TYR70      -0.0009
     16  CE1       -9.1620   26.4050    4.2880 C.ar   70  TYR70       0.0417
     17  CE2       -6.7790   26.1130    4.1670 C.ar   70  TYR70       0.0417
     18  CZ        -7.9040   26.5450    4.8500 C.ar   70  TYR70       0.1957
     19  OH        -7.7760   27.1130    6.1010 O.3    70  TYR70      -0.2866
     20  N         -6.7460   22.6710   -1.2650 N.am   71  ILE71      -0.1963
     21  CA        -7.0320   21.7300   -2.3430 C.3    71  ILE71       0.1727
     22  C         -8.4290   21.1530   -2.1130 C.2    71  ILE71       0.2616
     23  O         -8.7330   20.6780   -1.0200 O.2    71  ILE71      -0.2715
     24  CB        -5.9680   20.6060   -2.4120 C.3    71  ILE71       0.0290
     25  CG1       -4.6380   21.1740   -2.9310 C.3    71  ILE71       0.0022
     26  CG2       -6.4640   19.4440   -3.2770 C.3    71  ILE71       0.0023
     27  CD1       -3.4410   20.2390   -2.7930 C.3    71  ILE71       0.0001
     28  N         -9.2740   21.2140   -3.1380 N.am   72  MET72      -0.1977
     29  CA       -10.6700   20.7880   -3.0050 C.3    72  MET72       0.1605
     30  C        -10.9270   19.4080   -3.6040 C.2    72  MET72       0.2287
     31  O        -11.7630   18.6470   -3.1120 O.2    72  MET72      -0.2864
     32  CB       -11.5990   21.8140   -3.6540 C.3    72  MET72       0.0413
     33  CG       -11.6400   23.1690   -2.9550 C.3    72  MET72       0.0598
     34  SD       -12.4070   23.0950   -1.3250 S.3    72  MET72      -0.1393
     35  CE       -10.9950   22.9210   -0.2550 C.3    72  MET72       0.0692
     36  N        -12.9380   15.9670   -1.6960 N.3    83  PHE83      -0.1241
     37  CA       -13.0060   15.7350   -0.2560 C.3    83  PHE83       0.1605
     38  C        -14.4480   15.7230    0.2450 C.2    83  PHE83       0.2264
     39  O        -15.3270   16.3590   -0.3470 O.2    83  PHE83      -0.2867
     40  CB       -12.1950   16.7880    0.5020 C.3    83  PHE83       0.0534
     41  CG       -10.7060   16.6040    0.3950 C.ar   83  PHE83      -0.0203
     42  CD1      -10.1010   15.4320    0.8460 C.ar   83  PHE83      -0.0042
     43  CD2       -9.9050   17.6080   -0.1430 C.ar   83  PHE83      -0.0042
     44  CE1       -8.7190   15.2590    0.7530 C.ar   83  PHE83      -0.0003
     45  CE2       -8.5230   17.4480   -0.2350 C.ar   83  PHE83      -0.0003
     46  CZ        -7.9300   16.2690    0.2150 C.ar   83  PHE83      -0.0000
     47  N        -16.4840   17.2490    2.3020 N.3    85  GLU85      -0.1245
     48  CA       -16.7130   18.4920    3.0400 C.3    85  GLU85       0.1567
     49  C        -17.5230   19.4580    2.1670 C.2    85  GLU85       0.2260
     50  O        -17.4390   19.3910    0.9380 O.2    85  GLU85      -0.2867
     51  CB       -15.3840   19.1230    3.4850 C.3    85  GLU85       0.0388
     52  CG       -14.4560   19.5280    2.3460 C.3    85  GLU85       0.1160
     53  CD       -13.1640   20.1540    2.8290 C.2    85  GLU85       0.3649
     54  OE1      -12.3330   19.4320    3.4200 O.co2  85  GLU85      -0.2457
     55  OE2      -12.9770   21.3710    2.6010 O.co2  85  GLU85      -0.2457
     56  N        -17.3250   22.6400    1.3290 N.3    87  ALA87      -0.1245
     57  CA       -16.5460   23.4950    0.4340 C.3    87  ALA87       0.1562
     58  C        -16.1060   22.7650   -0.8320 C.2    87  ALA87       0.2260
     59  O        -16.0640   23.3580   -1.9120 O.2    87  ALA87      -0.2867
     60  CB       -15.3420   24.0670    1.1630 C.3    87  ALA87       0.0290
     61  N        -12.5450   14.3490    4.8780 N.3   108  SER108     -0.1202
     62  CA       -12.3430   15.7530    4.5420 C.3   108  SER108      0.2020
     63  C        -10.8610   16.0080    4.2610 C.2   108  SER108      0.2619
     64  O        -10.0340   15.0940    4.3490 O.2   108  SER108     -0.2717
     65  CB       -12.8180   16.6480    5.6870 C.3   108  SER108      0.2103
     66  OG       -11.9590   16.5170    6.8040 O.3   108  SER108     -0.2182
     67  N        -10.5300   17.2540    3.9380 N.am  109  GLY109     -0.1942
     68  CA        -9.1660   17.6210    3.5790 C.3   109  GLY109      0.2014
     69  C         -8.2730   18.0640    4.7220 C.2   109  GLY109      0.2639
     70  O         -7.0840   18.2990    4.5190 O.2   109  GLY109     -0.2714
     71  N         -8.8230   18.1830    5.9260 N.am  110  ASN110     -0.1958
     72  CA        -8.0220   18.6750    7.0450 C.3   110  ASN110      0.1819
     73  C         -6.9610   17.6730    7.4980 C.2   110  ASN110      0.2621
     74  O         -7.1690   16.4540    7.4320 O.2   110  ASN110     -0.2715
     75  CB        -8.8940   19.1710    8.2040 C.3   110  ASN110      0.1195
     76  CG        -9.5000   18.0480    9.0110 C.2   110  ASN110      0.2630
     77  OD1       -8.8340   17.4290    9.8470 O.2   110  ASN110     -0.2716
     78  ND2      -10.7830   17.8020    8.7950 N.am  110  ASN110     -0.0877
     79  N         -5.8200   18.2010    7.9360 N.am  111  TYR111     -0.1960
     80  CA        -4.6620   17.3860    8.2980 C.3   111  TYR111      0.1771
     81  C         -4.9910   16.2370    9.2500 C.2   111  TYR111      0.2619
     82  O         -4.5260   15.1150    9.0540 O.2   111  TYR111     -0.2715
     83  CB        -3.5570   18.2620    8.8930 C.3   111  TYR111      0.0574
     84  CG        -2.6650   18.9430    7.8710 C.ar  111  TYR111     -0.0198
     85  CD1       -2.2090   18.2590    6.7440 C.ar  111  TYR111     -0.0009
     86  CD2       -2.2490   20.2620    8.0510 C.ar  111  TYR111     -0.0009
     87  CE1       -1.3730   18.8750    5.8130 C.ar  111  TYR111      0.0417
     88  CE2       -1.4110   20.8880    7.1270 C.ar  111  TYR111      0.0417
     89  CZ        -0.9790   20.1870    6.0110 C.ar  111  TYR111      0.1957
     90  OH        -0.1530   20.7920    5.0940 O.3   111  TYR111     -0.2866
     91  N         -5.8000   16.5180   10.2690 N.am  112  GLU112     -0.1977
     92  CA        -6.1560   15.5050   11.2620 C.3   112  GLU112      0.1602
     93  C         -6.8990   14.3160   10.6530 C.2   112  GLU112      0.2287
     94  O         -6.5480   13.1670   10.9270 O.2   112  GLU112     -0.2864
     95  CB        -6.9480   16.1190   12.4210 C.3   112  GLU112      0.0415
     96  CG        -6.1690   17.1540   13.2400 C.3   112  GLU112      0.1163
     97  CD        -5.1450   16.5430   14.1980 C.2   112  GLU112      0.3649
     98  OE1       -5.0570   17.0250   15.3470 O.co2 112  GLU112     -0.2457
     99  OE2       -4.4230   15.5930   13.8150 O.co2 112  GLU112     -0.2457
    100  N         -0.4100   18.3050   -0.6380 N.3   155  ILE155     -0.1245
    101  CA        -0.7420   19.5640    0.0410 C.3   155  ILE155      0.1561
    102  C          0.5180   20.3080    0.4920 C.2   155  ILE155      0.2260
    103  O          0.6460   21.5160    0.2740 O.2   155  ILE155     -0.2867
    104  CB        -1.6920   19.3230    1.2450 C.3   155  ILE155      0.0252
    105  CG1       -3.0710   18.8790    0.7430 C.3   155  ILE155      0.0019
    106  CG2       -1.8250   20.5870    2.1070 C.3   155  ILE155      0.0019
    107  CD1       -3.8890   18.1400    1.7710 C.3   155  ILE155      0.0001
    108  N          0.6510   23.6550   -1.8510 N.3   159  ALA159     -0.1231
    109  CA         0.0340   24.7230   -1.0490 C.3   159  ALA159      0.1694
    110  C          0.9290   25.2880    0.0620 C.2   159  ALA159      0.2591
    111  O          1.0770   26.5070    0.1820 O.2   159  ALA159     -0.2718
    112  CB        -1.3070   24.2510   -0.4700 C.3   159  ALA159      0.0304
    113  N          1.5330   24.4110    0.8650 N.am  160  GLU160     -0.1979
    114  CA         2.3320   24.8620    2.0070 C.3   160  GLU160      0.1602
    115  C          3.6150   25.5540    1.5630 C.2   160  GLU160      0.2287
    116  O          4.0360   26.5380    2.1780 O.2   160  GLU160     -0.2864
    117  CB         2.6280   23.7170    2.9890 C.3   160  GLU160      0.0415
    118  CG         1.3760   23.0510    3.5890 C.3   160  GLU160      0.1163
    119  CD         0.5910   23.9210    4.5750 C.2   160  GLU160      0.3649
    120  OE1        0.8190   25.1480    4.6460 O.co2 160  GLU160     -0.2457
    121  OE2       -0.2710   23.3660    5.2910 O.co2 160  GLU160     -0.2457
    122  N          2.7970   29.0280    0.5210 N.3   163  ARG163     -0.1245
    123  CA         2.5700   29.8800    1.6970 C.3   163  ARG163      0.1563
    124  C          3.8410   30.2990    2.4340 C.2   163  ARG163      0.2260
    125  O          3.9020   31.3980    2.9940 O.2   163  ARG163     -0.2867
    126  CB         1.6420   29.1810    2.6890 C.3   163  ARG163      0.0307
    127  CG         0.2270   28.9890    2.2040 C.3   163  ARG163      0.0489
    128  CD        -0.4560   27.9560    3.0630 C.3   163  ARG163      0.2205
    129  NE        -1.8550   27.7450    2.7010 N.pl3 163  ARG163     -0.0865
    130  CZ        -2.5270   26.6290    2.9720 C.cat 163  ARG163      0.5346
    131  NH1       -1.9220   25.6200    3.5900 N.pl3 163  ARG163      0.1354
    132  NH2       -3.7960   26.5130    2.6160 N.pl3 163  ARG163      0.1354
@<TRIPOS>BOND
     1    32    29    1
     2    32    33    1
     3    30    31    2
     4    30    29    1
     5    26    24    1
     6    28    29    1
     7    28    22   am
     8    33    34    1
     9    25    27    1
    10    25    24    1
    11    24    21    1
    12    21    22    1
    13    21    20    1
    14    22    23    2
    15    11    10    2
    16    59    58    2
    17     6     5    1
    18   108   109    1
    19    36    37    1
    20    34    35    1
    21    20    10   am
    22    10     9    1
    23   109   112    1
    24   109   110    1
    25     2     5    1
    26     2     3    1
    27     2     1    1
    28    58    57    1
    29     5     7    1
    30   100   101    1
    31     3     4    2
    32     3     8   am
    33    39    38    2
    34     8     9    1
    35    37    38    1
    36    37    40    1
    37    45    43   ar
    38    45    46   ar
    39    43    41   ar
    40   101   102    1
    41   101   104    1
    42     9    12    1
    43   110   111    2
    44   110   113   am
    45    46    44   ar
    46   103   102    2
    47    41    40    1
    48    41    42   ar
    49    57    60    1
    50    57    56    1
    51   122   123    1
    52   105   104    1
    53   105   107    1
    54    44    42   ar
    55   113   114    1
    56    12    13    1
    57    50    49    2
    58   104   106    1
    59   115   114    1
    60   115   116    2
    61   123   124    1
    62   123   126    1
    63   114   117    1
    64    49    48    1
    65   127   126    1
    66   127   128    1
    67    47    48    1
    68    13    15   ar
    69    13    14   ar
    70    52    53    1
    71    52    51    1
    72   124   125    2
    73    55    53   ar
    74   132   130    1
    75   129   130    2
    76   129   128    1
    77    53    54   ar
    78    15    17   ar
    79   130   131    1
    80   117   118    1
    81    14    16   ar
    82    48    51    1
    83    68    67    1
    84    68    69    1
    85   118   119    1
    86    67    63   am
    87    17    18   ar
    88    63    64    2
    89    63    62    1
    90    16    18   ar
    91    70    69    2
    92    62    61    1
    93    62    65    1
    94   119   120   ar
    95   119   121   ar
    96    69    71   am
    97    18    19    1
    98    90    89    1
    99    65    66    1
   100    87    89   ar
   101    87    85   ar
   102    71    72    1
   103    89    88   ar
   104    85    84   ar
   105    72    73    1
   106    72    75    1
   107    88    86   ar
   108    74    73    2
   109    73    79   am
   110    84    86   ar
   111    84    83    1
   112    79    80    1
   113    75    76    1
   114    80    83    1
   115    80    81    1
   116    78    76   am
   117    76    77    2
   118    82    81    2
   119    81    91   am
   120    91    92    1
   121    93    94    2
   122    93    92    1
   123    92    95    1
   124    95    96    1
   125    96    97    1
   126    99    97   ar
   127    97    98   ar
