@<TRIPOS>MOLECULE
tmp/3u8lD01.pdb
 101 103 0 0 0
SMALL
GASTEIGER

@<TRIPOS>ATOM
      1  N         41.1130   17.7930   34.2780 N.3    89  TYR89      -0.1241
      2  CA        41.1660   17.0960   32.9970 C.3    89  TYR89       0.1605
      3  C         40.5510   15.6990   33.0070 C.2    89  TYR89       0.2264
      4  O         40.0440   15.2530   31.9900 O.2    89  TYR89      -0.2867
      5  CB        42.6030   17.0210   32.4790 C.3    89  TYR89       0.0534
      6  CG        43.1190   18.3130   31.8940 C.ar   89  TYR89      -0.0201
      7  CD1       43.3570   19.4190   32.7020 C.ar   89  TYR89      -0.0009
      8  CD2       43.3850   18.4290   30.5390 C.ar   89  TYR89      -0.0009
      9  CE1       43.8390   20.5970   32.1700 C.ar   89  TYR89       0.0417
     10  CE2       43.8650   19.6110   30.0000 C.ar   89  TYR89       0.0417
     11  CZ        44.0880   20.6850   30.8150 C.ar   89  TYR89       0.1957
     12  OH        44.5730   21.8510   30.2720 O.3    89  TYR89      -0.2866
     13  N         44.2170   25.6760   33.7930 N.3   142  SER142     -0.1202
     14  CA        43.4090   26.5600   32.9740 C.3   142  SER142      0.2020
     15  C         43.0040   25.8620   31.6920 C.2   142  SER142      0.2619
     16  O         43.8330   25.2620   31.0160 O.2   142  SER142     -0.2717
     17  CB        44.1790   27.8380   32.6420 C.3   142  SER142      0.2103
     18  OG        43.4920   28.5990   31.6680 O.3   142  SER142     -0.2182
     19  N         41.7210   25.9270   31.3640 N.am  143  TRP143     -0.1961
     20  CA        41.2450   25.3320   30.1230 C.3   143  TRP143      0.1771
     21  C         41.7440   26.0560   28.8620 C.2   143  TRP143      0.2620
     22  O         42.1700   25.4020   27.9160 O.2   143  TRP143     -0.2715
     23  CB        39.7200   25.2320   30.1090 C.3   143  TRP143      0.0590
     24  CG        39.2410   24.1900   29.1420 C.ar  143  TRP143      0.0006
     25  CD1       38.4960   24.3920   28.0160 C.ar  143  TRP143      0.0946
     26  CD2       39.5160   22.7820   29.1960 C.ar  143  TRP143      0.0152
     27  NE1       38.2800   23.1960   27.3790 N.ar  143  TRP143     -0.2442
     28  CE2       38.8970   22.1950   28.0760 C.ar  143  TRP143      0.0810
     29  CE3       40.2240   21.9630   30.0810 C.ar  143  TRP143      0.0012
     30  CZ2       38.9610   20.8260   27.8180 C.ar  143  TRP143      0.0191
     31  CZ3       40.2880   20.6000   29.8190 C.ar  143  TRP143      0.0001
     32  CH2       39.6640   20.0500   28.6950 C.ar  143  TRP143      0.0015
     33  N         41.7290   27.3930   28.8590 N.am  144  THR144     -0.1951
     34  CA        41.9790   28.1410   27.6300 C.3   144  THR144      0.1897
     35  C         43.1440   29.1420   27.6950 C.2   144  THR144      0.2313
     36  O         43.4750   29.7590   26.6800 O.2   144  THR144     -0.2863
     37  CB        40.7250   28.9230   27.1770 C.3   144  THR144      0.1794
     38  OG1       40.4710   30.0030   28.0860 O.3   144  THR144     -0.2208
     39  CG2       39.5070   28.0130   27.1090 C.3   144  THR144      0.0378
     40  N         47.1300   29.7950   28.2100 N.3   146  HIS146     -0.1241
     41  CA        48.4490   29.1920   28.2540 C.3   146  HIS146      0.1621
     42  C         49.3450   29.8260   29.3300 C.2   146  HIS146      0.2264
     43  O         48.9300   30.7480   30.0430 O.2   146  HIS146     -0.2867
     44  CB        49.1000   29.1980   26.8660 C.3   146  HIS146      0.0745
     45  CG        49.1940   30.5590   26.2430 C.ar  146  HIS146      0.0817
     46  ND1       50.0770   31.5180   26.6860 N.ar  146  HIS146     -0.2268
     47  CD2       48.5260   31.1120   25.2020 C.ar  146  HIS146      0.1154
     48  CE1       49.9350   32.6150   25.9560 C.ar  146  HIS146      0.1986
     49  NE2       49.0050   32.3920   25.0470 N.ar  146  HIS146     -0.2212
     50  N         50.1500   20.4450   24.1140 N.3   179  TYR179     -0.1241
     51  CA        49.1670   19.5510   23.5270 C.3   179  TYR179      0.1605
     52  C         49.3110   19.6350   22.0160 C.2   179  TYR179      0.2264
     53  O         49.8260   20.6280   21.4990 O.2   179  TYR179     -0.2867
     54  CB        47.7410   19.9590   23.9600 C.3   179  TYR179      0.0534
     55  CG        47.5250   19.8790   25.4610 C.ar  179  TYR179     -0.0201
     56  CD1       46.9850   18.7400   26.0500 C.ar  179  TYR179     -0.0009
     57  CD2       47.8920   20.9300   26.2910 C.ar  179  TYR179     -0.0009
     58  CE1       46.8030   18.6560   27.4240 C.ar  179  TYR179      0.0417
     59  CE2       47.7220   20.8540   27.6620 C.ar  179  TYR179      0.0417
     60  CZ        47.1750   19.7150   28.2270 C.ar  179  TYR179      0.1957
     61  OH        47.0060   19.6440   29.5990 O.3   179  TYR179     -0.2866
     62  N         47.0810   20.0620   19.6250 N.3   181  CYS181     -0.1221
     63  CA        46.2200   21.0890   19.0260 C.3   181  CYS181      0.1808
     64  C         46.7530   22.5230   19.0790 C.2   181  CYS181      0.2601
     65  O         46.2040   23.4070   18.4160 O.2   181  CYS181     -0.2717
     66  CB        44.8790   21.1210   19.7710 C.3   181  CYS181      0.0970
     67  SG        44.8950   22.2830   21.2000 S.3   181  CYS181     -0.0800
     68  N         47.7680   22.7680   19.9060 N.am  182  CYS182     -0.1956
     69  CA        48.1120   24.1340   20.2870 C.3   182  CYS182      0.1828
     70  C         49.6170   24.3030   20.4560 C.2   182  CYS182      0.2467
     71  O         50.2960   23.4140   20.9820 O.2   182  CYS182     -0.2730
     72  CB        47.3940   24.5290   21.5950 C.3   182  CYS182      0.0996
     73  SG        45.6110   24.1440   21.6860 S.3   182  CYS182     -0.0798
     74  N         50.1360   25.4620   20.0240 N.am  183  PRO183     -0.2715
     75  CA        51.5710   25.7910   20.0540 C.3   183  PRO183      0.1536
     76  C         52.1540   26.1650   21.4370 C.2   183  PRO183      0.2598
     77  O         53.3630   26.0330   21.6350 O.2   183  PRO183     -0.2715
     78  CB        51.6800   26.9770   19.0780 C.3   183  PRO183      0.0310
     79  CG        50.2950   27.5820   19.0350 C.3   183  PRO183      0.0237
     80  CD        49.3280   26.4590   19.2940 C.3   183  PRO183      0.0939
     81  N         51.3260   26.6190   22.3740 N.am  184  GLU184     -0.1978
     82  CA        51.8460   27.1060   23.6560 C.3   184  GLU184      0.1602
     83  C         51.7350   26.0760   24.7860 C.2   184  GLU184      0.2287
     84  O         50.9890   25.1160   24.6900 O.2   184  GLU184     -0.2864
     85  CB        51.1160   28.3850   24.0650 C.3   184  GLU184      0.0415
     86  CG        50.9750   29.4040   22.9420 C.3   184  GLU184      0.1163
     87  CD        51.9360   30.5600   23.0770 C.2   184  GLU184      0.3649
     88  OE1       52.5470   30.7010   24.1550 O.co2 184  GLU184     -0.2457
     89  OE2       52.0710   31.3360   22.1070 O.co2 184  GLU184     -0.2457
     90  N         50.6550   24.7870   28.5510 N.3   186  TYR186     -0.1241
     91  CA        49.6210   24.9730   29.5560 C.3   186  TYR186      0.1605
     92  C         50.0380   24.3240   30.8600 C.2   186  TYR186      0.2264
     93  O         50.4760   23.1720   30.8880 O.2   186  TYR186     -0.2867
     94  CB        48.2990   24.3810   29.0760 C.3   186  TYR186      0.0534
     95  CG        47.7470   25.1280   27.9020 C.ar  186  TYR186     -0.0201
     96  CD1       48.2500   24.9090   26.6240 C.ar  186  TYR186     -0.0009
     97  CD2       46.7400   26.0720   28.0690 C.ar  186  TYR186     -0.0009
     98  CE1       47.7590   25.5970   25.5390 C.ar  186  TYR186      0.0417
     99  CE2       46.2410   26.7660   26.9910 C.ar  186  TYR186      0.0417
    100  CZ        46.7570   26.5160   25.7200 C.ar  186  TYR186      0.1957
    101  OH        46.2810   27.1890   24.6230 O.3   186  TYR186     -0.2866
@<TRIPOS>BOND
     1    65    64    2
     2    63    64    1
     3    63    62    1
     4    63    66    1
     5    79    78    1
     6    79    80    1
     7    78    75    1
     8    64    68   am
     9    80    74    1
    10    66    67    1
    11    68    69    1
    12    74    75    1
    13    74    70   am
    14    75    76    1
    15    69    70    1
    16    69    72    1
    17    70    71    2
    18    67    73    1
    19    76    77    2
    20    76    81   am
    21    53    52    2
    22    72    73    1
    23    52    51    1
    24    89    87   ar
    25    81    82    1
    26    86    87    1
    27    86    85    1
    28    87    88   ar
    29    51    54    1
    30    51    50    1
    31    82    85    1
    32    82    83    1
    33    54    55    1
    34   101   100    1
    35    84    83    2
    36    49    47   ar
    37    49    48   ar
    38    47    45   ar
    39    55    56   ar
    40    55    57   ar
    41    98   100   ar
    42    98    96   ar
    43   100    99   ar
    44    48    46   ar
    45    56    58   ar
    46    45    46   ar
    47    45    44    1
    48    57    59   ar
    49    96    95   ar
    50    36    35    2
    51    44    41    1
    52    99    97   ar
    53    39    37    1
    54    37    34    1
    55    37    38    1
    56    27    25   ar
    57    27    28   ar
    58    58    60   ar
    59    34    35    1
    60    34    33    1
    61    59    60   ar
    62    30    28   ar
    63    30    32   ar
    64    95    97   ar
    65    95    94    1
    66    22    21    2
    67    25    24   ar
    68    28    26   ar
    69    40    41    1
    70    60    61    1
    71    41    42    1
    72    90    91    1
    73    32    31   ar
    74    33    21   am
    75    21    20    1
    76    94    91    1
    77    24    26   ar
    78    24    23    1
    79    26    29   ar
    80    42    43    2
    81    91    92    1
    82    31    29   ar
    83    10     8   ar
    84    10    11   ar
    85    23    20    1
    86    20    19    1
    87    12    11    1
    88     8     6   ar
    89    11     9   ar
    90    92    93    2
    91    16    15    2
    92    19    15   am
    93    18    17    1
    94    15    14    1
    95     6     5    1
    96     6     7   ar
    97     4     3    2
    98     9     7   ar
    99     5     2    1
   100    17    14    1
   101    14    13    1
   102     2     3    1
   103     2     1    1
