@<TRIPOS>MOLECULE
tmp/3u8lB03.pdb
 122 118 0 0 0
SMALL
GASTEIGER

@<TRIPOS>ATOM
      1  N         -7.0590   22.5690   44.6550 N.3    32  SER32      -0.1202
      2  CA        -7.6030   21.2320   44.4990 C.3    32  SER32       0.2020
      3  C         -6.6430   20.4320   43.6380 C.2    32  SER32       0.2619
      4  O         -6.1200   20.9530   42.6570 O.2    32  SER32      -0.2717
      5  CB        -8.9880   21.2980   43.8420 C.3    32  SER32       0.2103
      6  OG        -9.3190   20.0750   43.1950 O.3    32  SER32      -0.2182
      7  N         -6.4140   19.1750   44.0110 N.am   33  LEU33      -0.1965
      8  CA        -5.5540   18.2760   43.2530 C.3    33  LEU33       0.1728
      9  C         -6.3760   17.2610   42.4520 C.2    33  LEU33       0.2616
     10  O         -7.2280   16.5600   43.0150 O.2    33  LEU33      -0.2715
     11  CB        -4.6140   17.5090   44.1970 C.3    33  LEU33       0.0311
     12  CG        -3.7660   18.2970   45.1950 C.3    33  LEU33       0.0022
     13  CD1       -2.7230   17.3840   45.8200 C.3    33  LEU33       0.0001
     14  CD2       -3.0970   19.5190   44.5620 C.3    33  LEU33       0.0001
     15  N         -6.1190   17.1770   41.1470 N.am   34  LYS34      -0.1963
     16  CA        -6.7010   16.1260   40.3050 C.3    34  LYS34       0.1728
     17  C         -5.5900   15.1430   40.0060 C.2    34  LYS34       0.2616
     18  O         -4.5960   15.4830   39.3780 O.2    34  LYS34      -0.2715
     19  CB        -7.2500   16.6890   38.9930 C.3    34  LYS34       0.0311
     20  CG        -7.9630   18.0310   39.1240 C.3    34  LYS34       0.0038
     21  CD        -9.2650   17.8990   39.9020 C.3    34  LYS34       0.0206
     22  CE       -10.0000   19.2340   39.9620 C.3    34  LYS34       0.1093
     23  NZ       -11.1820   19.2140   40.8770 N.3    34  LYS34      -0.1314
     24  N         -5.7410   13.9200   40.4710 N.am   35  PHE35      -0.1974
     25  CA        -4.6790   12.9480   40.2910 C.3    35  PHE35       0.1639
     26  C         -4.6760   12.3630   38.8900 C.2    35  PHE35       0.2290
     27  O         -5.7100   11.9440   38.3730 O.2    35  PHE35      -0.2864
     28  CB        -4.7330   11.8730   41.3770 C.3    35  PHE35       0.0560
     29  CG        -4.4090   12.4040   42.7430 C.ar   35  PHE35      -0.0200
     30  CD1       -3.0870   12.5420   43.1450 C.ar   35  PHE35      -0.0042
     31  CD2       -5.4160   12.8140   43.6060 C.ar   35  PHE35      -0.0042
     32  CE1       -2.7760   13.0570   44.3960 C.ar   35  PHE35      -0.0003
     33  CE2       -5.1130   13.3240   44.8500 C.ar   35  PHE35      -0.0003
     34  CZ        -3.7980   13.4440   45.2500 C.ar   35  PHE35      -0.0000
     35  N        -11.8150   23.6770   46.0180 N.3   155  THR155     -0.1218
     36  CA       -12.8260   24.0750   45.0410 C.3   155  THR155      0.1862
     37  C        -13.8960   22.9990   45.0340 C.2   155  THR155      0.2287
     38  O        -13.6210   21.8450   45.3740 O.2   155  THR155     -0.2866
     39  CB       -12.2630   24.1650   43.6090 C.3   155  THR155      0.1770
     40  OG1      -10.8350   24.0140   43.6210 O.3   155  THR155     -0.2211
     41  CG2      -12.6510   25.4970   42.9630 C.3   155  THR155      0.0375
     42  N        -16.3030   20.1810   43.3970 N.3   157  GLU157     -0.1245
     43  CA       -15.8420   19.1620   42.4710 C.3   157  GLU157      0.1567
     44  C        -16.5450   19.1910   41.1110 C.2   157  GLU157      0.2260
     45  O        -17.5960   19.8180   40.9520 O.2   157  GLU157     -0.2867
     46  CB       -15.9870   17.7830   43.1160 C.3   157  GLU157      0.0388
     47  CG       -15.1400   16.7090   42.4680 C.3   157  GLU157      0.1160
     48  CD       -15.8160   15.3590   42.5020 C.2   157  GLU157      0.3649
     49  OE1      -16.7860   15.2150   43.2800 O.co2 157  GLU157     -0.2457
     50  OE2      -15.3870   14.4530   41.7500 O.co2 157  GLU157     -0.2457
     51  N        -13.8000   14.8400   37.3970 N.3   161  ASP161     -0.1225
     52  CA       -12.5600   14.7800   38.1730 C.3   161  ASP161      0.1805
     53  C        -11.9410   13.3960   38.2940 C.2   161  ASP161      0.2598
     54  O        -10.7280   13.2430   38.1580 O.2   161  ASP161     -0.2718
     55  CB       -12.7600   15.4040   39.5580 C.3   161  ASP161      0.1424
     56  CG       -12.9100   16.9170   39.4930 C.2   161  ASP161      0.3668
     57  OD1      -12.6100   17.4970   38.4220 O.co2 161  ASP161     -0.2456
     58  OD2      -13.3150   17.5270   40.5090 O.co2 161  ASP161     -0.2456
     59  N        -12.7690   12.3920   38.5530 N.am  162  SER162     -0.1952
     60  CA       -12.2730   11.0340   38.7280 C.3   162  SER162      0.1924
     61  C        -11.7410   10.4530   37.4160 C.2   162  SER162      0.2314
     62  O        -11.0370    9.4390   37.4010 O.2   162  SER162     -0.2863
     63  CB       -13.3860   10.1540   39.2970 C.3   162  SER162      0.2116
     64  OG       -13.9640   10.7740   40.4380 O.3   162  SER162     -0.2180
     65  N         -7.6640   10.3210   35.8110 N.3   165  PHE165     -0.1241
     66  CA        -6.7140    9.2980   36.2460 C.3   165  PHE165      0.1605
     67  C         -6.3820    8.2750   35.1520 C.2   165  PHE165      0.2264
     68  O         -7.2730    7.7310   34.5040 O.2   165  PHE165     -0.2867
     69  CB        -7.1950    8.5840   37.5140 C.3   165  PHE165      0.0534
     70  CG        -6.1090    7.8110   38.2040 C.ar  165  PHE165     -0.0203
     71  CD1       -5.0660    8.4850   38.8410 C.ar  165  PHE165     -0.0042
     72  CD2       -6.1030    6.4150   38.1970 C.ar  165  PHE165     -0.0042
     73  CE1       -4.0430    7.7860   39.4710 C.ar  165  PHE165     -0.0003
     74  CE2       -5.0800    5.7030   38.8270 C.ar  165  PHE165     -0.0003
     75  CZ        -4.0470    6.3930   39.4610 C.ar  165  PHE165     -0.0000
     76  N         -7.7190    4.4960   41.9780 N.3   173  ILE173     -0.1231
     77  CA        -8.1910    5.3740   43.0380 C.3   173  ILE173      0.1692
     78  C         -9.5770    4.9390   43.5060 C.2   173  ILE173      0.2592
     79  O        -10.5020    4.7780   42.6960 O.2   173  ILE173     -0.2718
     80  CB        -8.2590    6.8280   42.5640 C.3   173  ILE173      0.0266
     81  CG1       -6.8510    7.3440   42.2690 C.3   173  ILE173      0.0019
     82  CG2       -8.9770    7.6810   43.5850 C.3   173  ILE173      0.0020
     83  CD1       -6.8280    8.7760   41.7690 C.3   173  ILE173      0.0001
     84  N         -9.7080    4.7530   44.8120 N.am  174  LEU174     -0.1966
     85  CA       -10.9710    4.3690   45.4090 C.3   174  LEU174      0.1728
     86  C        -11.7550    5.6100   45.7870 C.2   174  LEU174      0.2616
     87  O        -12.9790    5.6130   45.7140 O.2   174  LEU174     -0.2715
     88  CB       -10.7340    3.4930   46.6500 C.3   174  LEU174      0.0311
     89  CG        -9.9440    2.2120   46.3830 C.3   174  LEU174      0.0022
     90  CD1       -9.7350    1.4340   47.6790 C.3   174  LEU174      0.0001
     91  CD2      -10.6750    1.3580   45.3490 C.3   174  LEU174      0.0001
     92  N        -11.0430    6.6630   46.1910 N.am  175  ASP175     -0.1957
     93  CA       -11.6810    7.8770   46.7120 C.3   175  ASP175      0.1840
     94  C        -10.6810    8.9920   47.0060 C.2   175  ASP175      0.2622
     95  O         -9.5550    8.7420   47.4320 O.2   175  ASP175     -0.2715
     96  CB       -12.4700    7.5590   47.9910 C.3   175  ASP175      0.1450
     97  CG       -13.5290    8.6060   48.3020 C.2   175  ASP175      0.3671
     98  OD1      -13.9010    9.3660   47.3850 O.co2 175  ASP175     -0.2456
     99  OD2      -13.9970    8.6610   49.4600 O.co2 175  ASP175     -0.2456
    100  N        -11.1050   10.2260   46.7760 N.am  176  VAL176     -0.1963
    101  CA       -10.3130   11.3910   47.1320 C.3   176  VAL176      0.1727
    102  C        -11.1670   12.3620   47.9440 C.2   176  VAL176      0.2617
    103  O        -12.2140   12.8050   47.4760 O.2   176  VAL176     -0.2715
    104  CB        -9.8030   12.1130   45.8870 C.3   176  VAL176      0.0290
    105  CG1       -9.0430   13.3930   46.2790 C.3   176  VAL176      0.0023
    106  CG2       -8.9260   11.1870   45.0640 C.3   176  VAL176      0.0023
    107  N        -10.7330   12.6860   49.1590 N.am  177  THR177     -0.1937
    108  CA       -11.4340   13.6900   49.9570 C.3   177  THR177      0.2028
    109  C        -10.5040   14.8270   50.3620 C.2   177  THR177      0.2642
    110  O         -9.2860   14.6660   50.4060 O.2   177  THR177     -0.2714
    111  CB       -12.0680   13.0840   51.2280 C.3   177  THR177      0.1808
    112  OG1      -11.0470   12.4870   52.0380 O.3   177  THR177     -0.2208
    113  CG2      -13.1110   12.0270   50.8680 C.3   177  THR177      0.0379
    114  N        -11.0880   15.9720   50.6770 N.am  178  GLN178     -0.1976
    115  CA       -10.3100   17.1370   51.0890 C.3   178  GLN178      0.1601
    116  C        -10.8350   17.6750   52.4130 C.2   178  GLN178      0.2287
    117  O        -11.9560   17.3780   52.8220 O.2   178  GLN178     -0.2864
    118  CB       -10.3590   18.2220   50.0080 C.3   178  GLN178      0.0394
    119  CG       -10.5130   17.6620   48.5880 C.3   178  GLN178      0.0908
    120  CD        -9.8980   18.5580   47.5230 C.2   178  GLN178      0.2608
    121  OE1       -9.0820   18.1120   46.7140 O.2   178  GLN178     -0.2717
    122  NE2      -10.2910   19.8250   47.5160 N.am  178  GLN178     -0.0878
@<TRIPOS>BOND
     1    68    67    2
     2    67    66    1
     3    65    66    1
     4    66    69    1
     5    51    52    1
     6    62    61    2
     7    61    60    1
     8    69    70    1
     9    54    53    2
    10    52    53    1
    11    52    55    1
    12    72    70   ar
    13    72    74   ar
    14    70    71   ar
    15    53    59   am
    16    27    26    2
    17    57    56   ar
    18    59    60    1
    19    60    63    1
    20    74    75   ar
    21    71    73   ar
    22    26    25    1
    23    19    20    1
    24    19    16    1
    25    20    21    1
    26    63    64    1
    27    18    17    2
    28    75    73   ar
    29    56    55    1
    30    56    58   ar
    31    21    22    1
    32    22    23    1
    33    17    16    1
    34    17    24   am
    35    25    24    1
    36    25    28    1
    37    16    15    1
    38    45    44    2
    39    44    43    1
    40    15     9   am
    41    28    29    1
    42    50    48   ar
    43    83    81    1
    44    76    77    1
    45    81    80    1
    46     9    10    2
    47     9     8    1
    48    47    48    1
    49    47    46    1
    50    43    46    1
    51    43    42    1
    52    48    49   ar
    53    80    77    1
    54    80    82    1
    55     4     3    2
    56    79    78    2
    57    29    30   ar
    58    29    31   ar
    59    41    39    1
    60    77    78    1
    61    30    32   ar
    62     6     5    1
    63     8     7    1
    64     8    11    1
    65    78    84   am
    66    31    33   ar
    67    39    40    1
    68    39    36    1
    69     3     7   am
    70     3     2    1
    71     5     2    1
    72    11    12    1
    73    32    34   ar
    74     2     1    1
    75    14    12    1
    76    84    85    1
    77    33    34   ar
    78    37    36    1
    79    37    38    2
    80    36    35    1
    81   106   104    1
    82    12    13    1
    83    91    89    1
    84    85    86    1
    85    85    88    1
    86    87    86    2
    87    86    92   am
    88   104   105    1
    89   104   101    1
    90    92    93    1
    91    89    88    1
    92    89    90    1
    93    93    94    1
    94    93    96    1
    95   121   120    2
    96   100    94   am
    97   100   101    1
    98    94    95    2
    99   101   102    1
   100    98    97   ar
   101   103   102    2
   102   122   120   am
   103   120   119    1
   104   102   107   am
   105    96    97    1
   106    97    99   ar
   107   119   118    1
   108   107   108    1
   109   108   109    1
   110   108   111    1
   111   118   115    1
   112   109   110    2
   113   109   114   am
   114   114   115    1
   115   113   111    1
   116   115   116    1
   117   111   112    1
   118   116   117    2
