@<TRIPOS>MOLECULE
tmp/3u8pA00.pdb
 230 220 0 0 0
SMALL
GASTEIGER

@<TRIPOS>ATOM
      1  N          4.9780   20.3380   68.7660 N.3    38  GLY38      -0.1210
      2  CA         4.4600   18.9750   68.7220 C.3    38  GLY38       0.1956
      3  C          5.3410   18.1960   69.6890 C.2    38  GLY38       0.2612
      4  O          6.5270   18.4600   69.7910 O.2    38  GLY38      -0.2717
      5  N          4.7730   17.2660   70.4410 N.am   39  GLY39      -0.1942
      6  CA         5.5520   16.5270   71.4340 C.3    39  GLY39       0.2014
      7  C          5.0450   15.1230   71.6290 C.2    39  GLY39       0.2639
      8  O          3.9020   14.8200   71.3310 O.2    39  GLY39      -0.2714
      9  N          5.9250   14.2660   72.1190 N.am   40  SER40      -0.1949
     10  CA         5.6170   12.8620   72.4020 C.3    40  SER40       0.1924
     11  C          6.0690   12.6480   73.8290 C.2    40  SER40       0.2314
     12  O          7.1820   13.0160   74.1610 O.2    40  SER40      -0.2863
     13  CB         6.4130   11.9670   71.4480 C.3    40  SER40       0.2116
     14  OG         6.3360   10.5830   71.7810 O.3    40  SER40      -0.2180
     15  N          9.0220    9.9270   73.6680 N.3    43  LEU43      -0.1231
     16  CA        10.3150   10.3370   73.1390 C.3    43  LEU43       0.1693
     17  C         10.9670   11.3050   74.0930 C.2    43  LEU43       0.2591
     18  O         12.1270   11.1320   74.4690 O.2    43  LEU43      -0.2718
     19  CB        10.1980   10.9690   71.7510 C.3    43  LEU43       0.0284
     20  CG        10.3950    9.9970   70.5920 C.3    43  LEU43       0.0019
     21  CD1       10.1980   10.6910   69.2640 C.3    43  LEU43       0.0001
     22  CD2       11.7590    9.3530   70.6370 C.3    43  LEU43       0.0001
     23  N         10.2170   12.3350   74.4640 N.am   44  GLU44      -0.1979
     24  CA        10.6210   13.2330   75.5400 C.3    44  GLU44       0.1602
     25  C         11.3290   12.4900   76.6720 C.2    44  GLU44       0.2287
     26  O         12.4140   12.8910   77.0940 O.2    44  GLU44      -0.2864
     27  CB         9.4050   13.9620   76.1110 C.3    44  GLU44       0.0415
     28  CG         9.1880   15.3140   75.5030 C.3    44  GLU44       0.1163
     29  CD         7.8010   15.8710   75.7620 C.2    44  GLU44       0.3649
     30  OE1        7.2560   16.5460   74.8660 O.co2  44  GLU44      -0.2457
     31  OE2        7.2670   15.6470   76.8660 O.co2  44  GLU44      -0.2457
     32  N         14.4710   10.6100   75.4870 N.3    47  MET47      -0.1230
     33  CA        15.4830   11.6340   75.2630 C.3    47  MET47       0.1702
     34  C         16.0500   12.1950   76.5800 C.2    47  MET47       0.2592
     35  O         17.2580   12.4770   76.6670 O.2    47  MET47      -0.2718
     36  CB        14.9590   12.7680   74.3560 C.3    47  MET47       0.0401
     37  CG        14.7980   12.3660   72.8740 C.3    47  MET47       0.0596
     38  SD        16.3000   11.8550   72.0150 S.3    47  MET47      -0.1393
     39  CE        15.5980   10.5970   70.9850 C.3    47  MET47       0.0692
     40  N         15.1900   12.3540   77.5910 N.am   48  GLU48      -0.1979
     41  CA        15.6410   12.6690   78.9500 C.3    48  GLU48       0.1602
     42  C         16.6450   11.6290   79.4620 C.2    48  GLU48       0.2287
     43  O         17.7100   11.9710   79.9600 O.2    48  GLU48      -0.2864
     44  CB        14.4540   12.7530   79.9080 C.3    48  GLU48       0.0415
     45  CG        14.8360   13.1520   81.3380 C.3    48  GLU48       0.1163
     46  CD        13.6350   13.3230   82.2510 C.2    48  GLU48       0.3649
     47  OE1       13.6630   14.2350   83.1050 O.co2  48  GLU48      -0.2457
     48  OE2       12.6640   12.5480   82.1140 O.co2  48  GLU48      -0.2457
     49  N         18.5740    9.4900   77.7490 N.3    50  LEU50      -0.1231
     50  CA        19.7900    9.7180   76.9710 C.3    50  LEU50       0.1693
     51  C         20.5310   10.9440   77.4720 C.2    50  LEU50       0.2592
     52  O         21.6980   10.8630   77.8360 O.2    50  LEU50      -0.2718
     53  CB        19.4680    9.8690   75.4890 C.3    50  LEU50       0.0284
     54  CG        19.1840    8.5430   74.7790 C.3    50  LEU50       0.0019
     55  CD1       18.4780    8.8000   73.4690 C.3    50  LEU50       0.0001
     56  CD2       20.4580    7.7820   74.5580 C.3    50  LEU50       0.0001
     57  N         19.8460   12.0710   77.5480 N.am   51  ASN51      -0.1974
     58  CA        20.5280   13.3000   77.9270 C.3    51  ASN51       0.1688
     59  C         21.2310   13.2370   79.2900 C.2    51  ASN51       0.2292
     60  O         22.3560   13.7240   79.4330 O.2    51  ASN51      -0.2864
     61  CB        19.5770   14.4960   77.8860 C.3    51  ASN51       0.1181
     62  CG        20.3170   15.8170   77.9070 C.2    51  ASN51       0.2629
     63  OD1       21.4860   15.8810   77.5360 O.2    51  ASN51      -0.2716
     64  ND2       19.6450   16.8770   78.3510 N.am   51  ASN51      -0.0877
     65  N         24.4180   10.8290   79.5280 N.3    54  LEU54      -0.1245
     66  CA        25.5810   11.4070   78.8760 C.3    54  LEU54       0.1561
     67  C         26.3290   12.2940   79.8620 C.2    54  LEU54       0.2260
     68  O         27.5470   12.2320   79.9450 O.2    54  LEU54      -0.2867
     69  CB        25.1590   12.2270   77.6520 C.3    54  LEU54       0.0270
     70  CG        26.2560   12.6030   76.6490 C.3    54  LEU54       0.0019
     71  CD1       26.8680   11.3670   76.0070 C.3    54  LEU54       0.0001
     72  CD2       25.6960   13.5310   75.5930 C.3    54  LEU54       0.0001
     73  N         21.3980    4.1640   78.4150 N.3    73  MET73      -0.1245
     74  CA        21.2080    4.8520   77.1450 C.3    73  MET73       0.1570
     75  C         20.8120    3.8630   76.0530 C.2    73  MET73       0.2261
     76  O         19.9450    4.1450   75.2330 O.2    73  MET73      -0.2867
     77  CB        22.5060    5.5600   76.7480 C.3    73  MET73       0.0387
     78  CG        22.8750    6.6840   77.6850 C.3    73  MET73       0.0595
     79  SD        24.3550    7.6130   77.2410 S.3    73  MET73      -0.1393
     80  CE        23.7780    8.5960   75.8540 C.3    73  MET73       0.0692
     81  N          8.2770   10.3630   65.7240 N.3    85  PRO85      -0.2103
     82  CA         8.5340   11.6880   66.2320 C.3    85  PRO85       0.1489
     83  C          7.4400   12.6130   65.7280 C.2    85  PRO85       0.2417
     84  O          6.8680   12.3540   64.6810 O.2    85  PRO85      -0.2734
     85  CB         9.8940   12.0280   65.6370 C.3    85  PRO85       0.0282
     86  CG         9.9780   11.2200   64.3820 C.3    85  PRO85       0.0208
     87  CD         9.1910    9.9840   64.6340 C.3    85  PRO85       0.0893
     88  N          7.0980   13.6500   66.4930 N.am   86  PRO86      -0.2729
     89  CA         6.0420   14.5120   66.0070 C.3    86  PRO86       0.1401
     90  C          6.2210   14.9950   64.5880 C.2    86  PRO86       0.2269
     91  O          5.2380   15.0000   63.8590 O.2    86  PRO86      -0.2865
     92  CB         6.0420   15.6540   67.0110 C.3    86  PRO86       0.0296
     93  CG         6.4930   15.0220   68.2670 C.3    86  PRO86       0.0237
     94  CD         7.5420   14.0460   67.8400 C.3    86  PRO86       0.0939
     95  N         15.0370    7.7120   60.3610 N.3   101  PHE101     -0.1241
     96  CA        14.8960    7.9950   61.7820 C.3   101  PHE101      0.1605
     97  C         15.3940    6.7740   62.5760 C.2   101  PHE101      0.2264
     98  O         16.2730    6.8940   63.4570 O.2   101  PHE101     -0.2867
     99  CB        13.4380    8.3260   62.0980 C.3   101  PHE101      0.0534
    100  CG        13.1800    8.5560   63.5420 C.ar  101  PHE101     -0.0203
    101  CD1       13.4680    9.7770   64.1140 C.ar  101  PHE101     -0.0042
    102  CD2       12.6510    7.5340   64.3340 C.ar  101  PHE101     -0.0042
    103  CE1       13.2390    9.9820   65.4480 C.ar  101  PHE101     -0.0003
    104  CE2       12.4170    7.7240   65.6700 C.ar  101  PHE101     -0.0003
    105  CZ        12.7110    8.9420   66.2390 C.ar  101  PHE101     -0.0000
    106  N         19.0590    6.2600   62.4490 N.3   104  GLY104     -0.1210
    107  CA        19.7860    7.1240   63.3640 C.3   104  GLY104      0.1956
    108  C         20.1210    6.4150   64.6560 C.2   104  GLY104      0.2611
    109  O         21.2160    6.5840   65.1820 O.2   104  GLY104     -0.2717
    110  N         19.1810    5.6160   65.1620 N.am  105  PHE105     -0.1976
    111  CA        19.4050    4.8700   66.3980 C.3   105  PHE105      0.1639
    112  C         20.2660    3.6210   66.1750 C.2   105  PHE105      0.2290
    113  O         20.9590    3.1850   67.1030 O.2   105  PHE105     -0.2864
    114  CB        18.0760    4.5360   67.0930 C.3   105  PHE105      0.0560
    115  CG        17.3450    5.7550   67.5920 C.ar  105  PHE105     -0.0200
    116  CD1       16.1900    6.1990   66.9690 C.ar  105  PHE105     -0.0042
    117  CD2       17.8410    6.4890   68.6610 C.ar  105  PHE105     -0.0042
    118  CE1       15.5320    7.3300   67.4090 C.ar  105  PHE105     -0.0003
    119  CE2       17.1860    7.6340   69.1040 C.ar  105  PHE105     -0.0003
    120  CZ        16.0270    8.0470   68.4760 C.ar  105  PHE105     -0.0000
    121  N         23.5460    5.1080   66.5720 N.3   108  LEU108     -0.1245
    122  CA        23.7500    5.4980   67.9700 C.3   108  LEU108      0.1561
    123  C         24.0800    4.2870   68.8600 C.2   108  LEU108      0.2260
    124  O         25.0890    4.2770   69.5770 O.2   108  LEU108     -0.2867
    125  CB        22.5330    6.2450   68.5160 C.3   108  LEU108      0.0270
    126  CG        22.8350    7.1370   69.7230 C.3   108  LEU108      0.0019
    127  CD1       23.4020    8.4610   69.2740 C.3   108  LEU108      0.0001
    128  CD2       21.5880    7.3380   70.5590 C.3   108  LEU108      0.0001
    129  N         28.8250   10.4540   70.0790 N.3   134  LEU134     -0.1245
    130  CA        27.3560   10.3980   70.0660 C.3   134  LEU134      0.1561
    131  C         26.7220   11.7620   69.7560 C.2   134  LEU134      0.2260
    132  O         25.7150   11.8320   69.0600 O.2   134  LEU134     -0.2867
    133  CB        26.8240    9.9060   71.4120 C.3   134  LEU134      0.0270
    134  CG        27.1780    8.5080   71.9200 C.3   134  LEU134      0.0019
    135  CD1       26.7020    8.3530   73.3550 C.3   134  LEU134      0.0001
    136  CD2       26.5630    7.4510   71.0360 C.3   134  LEU134      0.0001
    137  N         25.8500   12.5170   66.1870 N.3   137  THR137     -0.1203
    138  CA        24.6770   11.8270   65.7040 C.3   137  THR137      0.1994
    139  C         23.4280   12.5150   66.1810 C.2   137  THR137      0.2617
    140  O         22.5030   12.7430   65.3970 O.2   137  THR137     -0.2717
    141  CB        24.6550   10.4230   66.2190 C.3   137  THR137      0.1784
    142  OG1       25.8720    9.7760   65.8290 O.3   137  THR137     -0.2211
    143  CG2       23.4550    9.6710   65.6780 C.3   137  THR137      0.0376
    144  N         23.4070   12.8560   67.4700 N.am  138  ARG138     -0.1979
    145  CA        22.3370   13.6590   68.0460 C.3   138  ARG138      0.1597
    146  C         22.1110   14.9330   67.2210 C.2   138  ARG138      0.2287
    147  O         20.9740   15.2090   66.8080 O.2   138  ARG138     -0.2864
    148  CB        22.6780   14.0010   69.4900 C.3   138  ARG138      0.0334
    149  CG        21.7100   14.9720   70.1780 C.3   138  ARG138      0.0492
    150  CD        22.3460   15.6080   71.3640 C.3   138  ARG138      0.2205
    151  NE        23.3110   16.6410   70.9880 N.pl3 138  ARG138     -0.0865
    152  CZ        24.1790   17.1880   71.8350 C.cat 138  ARG138      0.5346
    153  NH1       25.0110   18.1420   71.4440 N.pl3 138  ARG138      0.1354
    154  NH2       24.2110   16.7840   73.0990 N.pl3 138  ARG138      0.1354
    155  N         20.7600   14.1500   63.6550 N.3   141  TYR141     -0.1227
    156  CA        19.3740   13.6890   63.7200 C.3   141  TYR141      0.1736
    157  C         18.4040   14.6810   64.3520 C.2   141  TYR141      0.2595
    158  O         17.2640   14.7990   63.9020 O.2   141  TYR141     -0.2718
    159  CB        19.2980   12.3000   64.3220 C.3   141  TYR141      0.0548
    160  CG        19.7110   11.3040   63.2650 C.ar  141  TYR141     -0.0200
    161  CD1       18.7710   10.7230   62.4400 C.ar  141  TYR141     -0.0009
    162  CD2       21.0560   11.0450   63.0010 C.ar  141  TYR141     -0.0009
    163  CE1       19.1530    9.8590   61.4240 C.ar  141  TYR141      0.0417
    164  CE2       21.4310   10.1970   62.0050 C.ar  141  TYR141      0.0417
    165  CZ        20.4760    9.6150   61.2210 C.ar  141  TYR141      0.1957
    166  OH        20.8380    8.7540   60.2390 O.3   141  TYR141     -0.2866
    167  N         18.8460   15.4590   65.3360 N.am  142  HIS142     -0.1975
    168  CA        17.9700   16.5130   65.8260 C.3   142  HIS142      0.1656
    169  C         17.6570   17.4790   64.7130 C.2   142  HIS142      0.2291
    170  O         16.5160   17.9270   64.5750 O.2   142  HIS142     -0.2864
    171  CB        18.5560   17.2380   67.0100 C.3   142  HIS142      0.0771
    172  CG        18.4370   16.4800   68.2930 C.ar  142  HIS142      0.0820
    173  ND1       19.0080   16.9220   69.4690 N.ar  142  HIS142     -0.2267
    174  CD2       17.8300   15.3010   68.5810 C.ar  142  HIS142      0.1154
    175  CE1       18.7410   16.0510   70.4300 C.ar  142  HIS142      0.1986
    176  NE2       18.0300   15.0610   69.9190 N.ar  142  HIS142     -0.2212
    177  N         14.9110   15.7870   62.5620 N.3   145  TYR145     -0.1227
    178  CA        13.6760   15.2580   63.1250 C.3   145  TYR145      0.1736
    179  C         13.1430   15.9210   64.4200 C.2   145  TYR145      0.2595
    180  O         11.9930   15.6870   64.7890 O.2   145  TYR145     -0.2718
    181  CB        13.8550   13.7510   63.3070 C.3   145  TYR145      0.0548
    182  CG        14.1760   13.0960   61.9910 C.ar  145  TYR145     -0.0200
    183  CD1       15.3620   12.4360   61.7900 C.ar  145  TYR145     -0.0009
    184  CD2       13.3000   13.2000   60.9190 C.ar  145  TYR145     -0.0009
    185  CE1       15.6620   11.8710   60.5450 C.ar  145  TYR145      0.0417
    186  CE2       13.5820   12.6540   59.6950 C.ar  145  TYR145      0.0417
    187  CZ        14.7560   11.9920   59.5050 C.ar  145  TYR145      0.1957
    188  OH        15.0240   11.4500   58.2760 O.3   145  TYR145     -0.2866
    189  N         13.9420   16.7510   65.0870 N.am  146  ARG146     -0.1966
    190  CA        13.5390   17.3080   66.3600 C.3   146  ARG146      0.1729
    191  C         12.8300   18.6010   66.1270 C.2   146  ARG146      0.2616
    192  O         13.2260   19.3590   65.2850 O.2   146  ARG146     -0.2715
    193  CB        14.7430   17.5660   67.2490 C.3   146  ARG146      0.0348
    194  CG        14.4230   18.3740   68.4940 C.3   146  ARG146      0.0492
    195  CD        15.6310   18.4610   69.3370 C.3   146  ARG146      0.2205
    196  NE        15.3880   19.2130   70.5480 N.pl3 146  ARG146     -0.0865
    197  CZ        16.3400   19.5460   71.4110 C.cat 146  ARG146      0.5346
    198  NH1       16.0270   20.2170   72.5060 N.pl3 146  ARG146      0.1354
    199  NH2       17.6020   19.2050   71.1830 N.pl3 146  ARG146      0.1354
    200  N         11.7970   18.8670   66.9110 N.am  147  GLY147     -0.1955
    201  CA        10.9120   19.9870   66.6630 C.3   147  GLY147      0.1869
    202  C         11.4370   21.2800   67.2100 C.2   147  GLY147      0.2309
    203  O         12.1410   21.3080   68.2100 O.2   147  GLY147     -0.2863
    204  N          9.2260   27.3020   70.8670 N.3   178  ARG178     -0.1245
    205  CA         8.0280   26.4860   70.8310 C.3   178  ARG178      0.1563
    206  C          7.2060   26.7370   72.0890 C.2   178  ARG178      0.2260
    207  O          7.5960   26.3100   73.1780 O.2   178  ARG178     -0.2867
    208  CB         8.3630   24.9960   70.8100 C.3   178  ARG178      0.0307
    209  CG         9.1010   24.4620   69.6210 C.3   178  ARG178      0.0489
    210  CD         9.0780   22.9450   69.6580 C.3   178  ARG178      0.2205
    211  NE         9.4240   22.4670   70.9840 N.pl3 178  ARG178     -0.0865
    212  CZ         9.2280   21.2310   71.4340 C.cat 178  ARG178      0.5346
    213  NH1        8.6790   20.2820   70.6890 N.pl3 178  ARG178      0.1354
    214  NH2        9.5860   20.9410   72.6680 N.pl3 178  ARG178      0.1354
    215  N         18.6860   24.9450   74.0290 N.3   309  GLN309     -0.1245
    216  CA        19.8260   24.1100   73.6690 C.3   309  GLN309      0.1566
    217  C         20.4080   24.5580   72.3320 C.2   309  GLN309      0.2260
    218  O         19.6540   24.8180   71.3940 O.2   309  GLN309     -0.2867
    219  CB        19.3840   22.6700   73.5510 C.3   309  GLN309      0.0367
    220  CG        19.1490   22.0020   74.8840 C.3   309  GLN309      0.0905
    221  CD        19.1780   20.4990   74.7650 C.2   309  GLN309      0.2608
    222  OE1       18.6810   19.9360   73.7940 O.2   309  GLN309     -0.2717
    223  NE2       19.7850   19.8430   75.7290 N.am  309  GLN309     -0.0878
    224  N         12.1590   25.8620   74.0830 N.3   330  THR330     -0.1218
    225  CA        10.7700   25.5880   74.4970 C.3   330  THR330      0.1862
    226  C         10.3130   26.3650   75.7340 C.2   330  THR330      0.2287
    227  O         10.9600   26.3280   76.7880 O.2   330  THR330     -0.2866
    228  CB        10.5640   24.0960   74.7600 C.3   330  THR330      0.1770
    229  OG1       11.0260   23.3460   73.6330 O.3   330  THR330     -0.2211
    230  CG2        9.1050   23.8050   74.9760 C.3   330  THR330      0.0375
@<TRIPOS>BOND
     1   188   187    1
     2   187   186   ar
     3   187   185   ar
     4   186   184   ar
     5   166   165    1
     6    95    96    1
     7   185   183   ar
     8   184   182   ar
     9   165   163   ar
    10   165   164   ar
    11   163   161   ar
    12    96    99    1
    13    96    97    1
    14   183   182   ar
    15   182   181    1
    16   164   162   ar
    17    99   100    1
    18   161   160   ar
    19   106   107    1
    20   177   178    1
    21    97    98    2
    22   162   160   ar
    23   178   181    1
    24   178   179    1
    25   160   159    1
    26   107   108    1
    27   100   101   ar
    28   100   102   ar
    29   155   156    1
    30   156   159    1
    31   156   157    1
    32    91    90    2
    33   158   157    2
    34   101   103   ar
    35   102   104   ar
    36   157   167   am
    37    86    87    1
    38    86    85    1
    39   179   180    2
    40   179   189   am
    41   170   169    2
    42    90    89    1
    43    87    81    1
    44   108   110   am
    45   108   109    2
    46    84    83    2
    47   169   168    1
    48   189   190    1
    49   110   111    1
    50   192   191    2
    51   167   168    1
    52   140   139    2
    53   103   105   ar
    54    85    82    1
    55   104   105   ar
    56   143   141    1
    57   138   139    1
    58   138   137    1
    59   138   141    1
    60    81    82    1
    61    83    82    1
    62    83    88   am
    63   168   171    1
    64   142   141    1
    65    89    88    1
    66    89    92    1
    67   191   190    1
    68   191   200   am
    69   112   111    1
    70   112   113    2
    71   139   144   am
    72   190   193    1
    73   111   114    1
    74    88    94    1
    75   121   122    1
    76   201   200    1
    77   201   202    1
    78   147   146    2
    79   116   118   ar
    80   116   115   ar
    81   171   172    1
    82    92    93    1
    83   114   115    1
    84   202   203    2
    85   146   145    1
    86   193   194    1
    87   118   120   ar
    88   144   145    1
    89   115   117   ar
    90    94    93    1
    91   122   125    1
    92   122   123    1
    93   145   148    1
    94   172   174   ar
    95   172   173   ar
    96   120   119   ar
    97   194   195    1
    98   125   126    1
    99   174   176   ar
   100   117   119   ar
   101     2     1    1
   102     2     3    1
   103   123   124    2
   104   132   131    2
   105    21    20    1
   106   127   126    1
   107   195   196    1
   108   173   175   ar
   109   148   149    1
   110   209   210    1
   111   209   208    1
   112   210   211    1
   113     3     4    2
   114     3     5   am
   115   126   128    1
   116   131   130    1
   117   176   175   ar
   118   130   129    1
   119   130   133    1
   120   149   150    1
   121     5     6    1
   122   196   197    2
   123    20    22    1
   124    20    19    1
   125   213   212    1
   126   208   205    1
   127   205   204    1
   128   205   206    1
   129   211   212    2
   130    39    38    1
   131   151   150    1
   132   151   152    2
   133   136   134    1
   134   199   197    1
   135     8     7    2
   136   218   217    2
   137   197   198    1
   138   133   134    1
   139   212   214    1
   140     6     7    1
   141   153   152    1
   142    13    14    1
   143    13    10    1
   144     7     9   am
   145    19    16    1
   146   152   154    1
   147   134   135    1
   148    38    37    1
   149   206   207    2
   150     9    10    1
   151   217   216    1
   152    10    11    1
   153    37    36    1
   154    16    15    1
   155    16    17    1
   156    55    54    1
   157   219   216    1
   158   219   220    1
   159   229   228    1
   160   216   215    1
   161   222   221    2
   162    11    12    2
   163   224   225    1
   164    17    23   am
   165    17    18    2
   166    36    33    1
   167    23    24    1
   168   225   228    1
   169   225   226    1
   170    56    54    1
   171   228   230    1
   172   221   220    1
   173   221   223   am
   174    54    53    1
   175    30    29   ar
   176    76    75    2
   177    33    32    1
   178    33    34    1
   179    53    50    1
   180    28    29    1
   181    28    27    1
   182    24    27    1
   183    24    25    1
   184    72    70    1
   185   226   227    2
   186    29    31   ar
   187    80    79    1
   188    71    70    1
   189    75    74    1
   190    34    35    2
   191    34    40   am
   192    70    69    1
   193    25    26    2
   194    77    74    1
   195    77    78    1
   196    50    51    1
   197    50    49    1
   198    74    73    1
   199    79    78    1
   200    51    57   am
   201    51    52    2
   202    63    62    2
   203    57    58    1
   204    40    41    1
   205    69    66    1
   206    61    62    1
   207    61    58    1
   208    62    64   am
   209    58    59    1
   210    66    65    1
   211    66    67    1
   212    41    42    1
   213    41    44    1
   214    59    60    2
   215    42    43    2
   216    67    68    2
   217    44    45    1
   218    45    46    1
   219    48    46   ar
   220    46    47   ar
