@<TRIPOS>MOLECULE
tmp/3u8qA04.pdb
 75 73 0 0 0
SMALL
GASTEIGER

@<TRIPOS>ATOM
      1  N         18.1280   16.2270   10.8460 N.3    89  THR89      -0.1203
      2  CA        17.7490   14.8610   10.5240 C.3    89  THR89       0.1994
      3  C         16.2650   14.8940   10.1560 C.2    89  THR89       0.2618
      4  O         15.5010   15.6690   10.7310 O.2    89  THR89      -0.2717
      5  CB        18.0030   13.9220   11.7160 C.3    89  THR89       0.1784
      6  OG1       17.1840   14.3140   12.8230 O.3    89  THR89      -0.2211
      7  CG2       19.4720   13.9850   12.1270 C.3    89  THR89       0.0376
      8  N         15.8610   14.0710    9.1910 N.am   90  GLU90      -0.1965
      9  CA        14.4710   14.0410    8.7320 C.3    90  GLU90       0.1733
     10  C         13.5430   13.0550    9.4320 C.2    90  GLU90       0.2616
     11  O         12.3740   13.3560    9.6750 O.2    90  GLU90      -0.2715
     12  CB        14.4290   13.7600    7.2290 C.3    90  GLU90       0.0429
     13  CG        14.3750   15.0150    6.3850 C.3    90  GLU90       0.1163
     14  CD        14.9100   14.8060    4.9880 C.2    90  GLU90       0.3649
     15  OE1       14.1990   14.2110    4.1510 O.co2  90  GLU90      -0.2457
     16  OE2       16.0550   15.2350    4.7350 O.co2  90  GLU90      -0.2457
     17  N         14.0750   11.8860    9.7630 N.am   91  GLY91      -0.1955
     18  CA        13.2800   10.8520   10.3940 C.3    91  GLY91       0.1869
     19  C         13.1430    9.7380    9.3890 C.2    91  GLY91       0.2309
     20  O         13.3500    9.9520    8.1960 O.2    91  GLY91      -0.2863
     21  N          6.4170    8.6370   10.9910 N.3   250  VAL250     -0.1245
     22  CA         7.7700    9.1090   10.7390 C.3   250  VAL250      0.1561
     23  C          8.4410    8.9520   12.0980 C.2   250  VAL250      0.2260
     24  O          7.9630    9.4840   13.1030 O.2   250  VAL250     -0.2867
     25  CB         7.7820   10.5890   10.3240 C.3   250  VAL250      0.0252
     26  CG1        9.2190   11.0890   10.2160 C.3   250  VAL250      0.0019
     27  CG2        7.0650   10.7530    8.9990 C.3   250  VAL250      0.0019
     28  N         11.7200    9.2120   14.8540 N.3   252  PRO252     -0.2102
     29  CA        12.9180   10.0250   15.0360 C.3   252  PRO252      0.1504
     30  C         14.1840    9.1610   14.8490 C.2   252  PRO252      0.2575
     31  O         14.2410    8.0190   15.3060 O.2   252  PRO252     -0.2718
     32  CB        12.7450   10.5760   16.4510 C.3   252  PRO252      0.0282
     33  CG        11.9730    9.4690   17.1450 C.3   252  PRO252      0.0208
     34  CD        10.9490    9.1050   16.1030 C.3   252  PRO252      0.0893
     35  N         15.1780    9.7090   14.1540 N.am  253  ASN253     -0.1975
     36  CA        16.4270    9.0170   13.8860 C.3   253  ASN253      0.1688
     37  C         17.0450    8.4560   15.1480 C.2   253  ASN253      0.2292
     38  O         16.8880    9.0300   16.2320 O.2   253  ASN253     -0.2864
     39  CB        17.4370    9.9790   13.2340 C.3   253  ASN253      0.1181
     40  CG        17.1450   10.2260   11.7650 C.2   253  ASN253      0.2629
     41  OD1       16.1330    9.7620   11.2350 O.2   253  ASN253     -0.2716
     42  ND2       18.0370   10.9420   11.0960 N.am  253  ASN253     -0.0877
     43  N         12.1310   16.7800   23.4810 N.3   318  GLU318     -0.1231
     44  CA        12.1500   17.6520   22.3140 C.3   318  GLU318      0.1699
     45  C         12.7050   16.8880   21.1190 C.2   318  GLU318      0.2592
     46  O         12.2170   17.0340   20.0030 O.2   318  GLU318     -0.2718
     47  CB        13.0110   18.8850   22.5700 C.3   318  GLU318      0.0402
     48  CG        12.3970   19.8400   23.5630 C.3   318  GLU318      0.1161
     49  CD        13.3210   20.9830   23.8910 C.2   318  GLU318      0.3649
     50  OE1       14.4870   20.7110   24.2490 O.co2 318  GLU318     -0.2457
     51  OE2       12.8850   22.1490   23.7940 O.co2 318  GLU318     -0.2457
     52  N         13.7300   16.0720   21.3540 N.am  319  TYR319     -0.1962
     53  CA        14.3240   15.2980   20.2700 C.3   319  TYR319      0.1771
     54  C         13.3250   14.2940   19.6990 C.2   319  TYR319      0.2619
     55  O         13.2350   14.1200   18.4820 O.2   319  TYR319     -0.2715
     56  CB        15.5660   14.5300   20.7370 C.3   319  TYR319      0.0574
     57  CG        16.1720   13.7160   19.6110 C.ar  319  TYR319     -0.0198
     58  CD1       16.9270   14.3290   18.6090 C.ar  319  TYR319     -0.0009
     59  CD2       15.9250   12.3490   19.5060 C.ar  319  TYR319     -0.0009
     60  CE1       17.4130   13.6020   17.5260 C.ar  319  TYR319      0.0417
     61  CE2       16.4090   11.6090   18.4300 C.ar  319  TYR319      0.0417
     62  CZ        17.1490   12.2420   17.4430 C.ar  319  TYR319      0.1957
     63  OH        17.6060   11.5180   16.3660 O.3   319  TYR319     -0.2866
     64  N         12.5890   13.6180   20.5740 N.am  320  LEU320     -0.1963
     65  CA        11.6170   12.6340   20.1180 C.3   320  LEU320      0.1728
     66  C         10.3480   13.2660   19.5540 C.2   320  LEU320      0.2616
     67  O          9.7080   12.6840   18.6820 O.2   320  LEU320     -0.2715
     68  CB        11.2480   11.6810   21.2600 C.3   320  LEU320      0.0311
     69  CG        12.3260   10.7240   21.7820 C.3   320  LEU320      0.0022
     70  CD1       11.7570    9.8880   22.9230 C.3   320  LEU320      0.0001
     71  CD2       12.8250    9.8180   20.6540 C.3   320  LEU320      0.0001
     72  N          9.9990   14.4590   20.0360 N.am  321  GLY321     -0.1955
     73  CA         8.7850   15.1130   19.5750 C.3   321  GLY321      0.1869
     74  C          7.6540   14.7910   20.5370 C.2   321  GLY321      0.2309
     75  O          7.5020   13.6510   20.9710 O.2   321  GLY321     -0.2863
@<TRIPOS>BOND
     1    15    14   ar
     2    16    14   ar
     3    14    13    1
     4    13    12    1
     5    12     9    1
     6    20    19    2
     7     9     8    1
     8     9    10    1
     9    27    25    1
    10     8     3   am
    11    19    18    1
    12    10    11    2
    13    10    17   am
    14    17    18    1
    15     3     2    1
    16     3     4    2
    17    26    25    1
    18    25    22    1
    19     2     1    1
    20     2     5    1
    21    22    21    1
    22    22    23    1
    23    42    40   am
    24    41    40    2
    25     5     7    1
    26     5     6    1
    27    40    39    1
    28    23    24    2
    29    39    36    1
    30    36    35    1
    31    36    37    1
    32    35    30   am
    33    30    29    1
    34    30    31    2
    35    28    29    1
    36    28    34    1
    37    29    32    1
    38    37    38    2
    39    34    33    1
    40    63    62    1
    41    32    33    1
    42    62    60   ar
    43    62    61   ar
    44    60    58   ar
    45    61    59   ar
    46    55    54    2
    47    58    57   ar
    48    67    66    2
    49    59    57   ar
    50    66    72   am
    51    66    65    1
    52    73    72    1
    53    73    74    1
    54    57    56    1
    55    54    53    1
    56    54    64   am
    57    46    45    2
    58    65    64    1
    59    65    68    1
    60    53    56    1
    61    53    52    1
    62    74    75    2
    63    71    69    1
    64    45    52   am
    65    45    44    1
    66    68    69    1
    67    69    70    1
    68    44    47    1
    69    44    43    1
    70    47    48    1
    71    48    49    1
    72    51    49   ar
    73    49    50   ar
