@<TRIPOS>MOLECULE
tmp/3u8rB00.pdb
 239 240 0 0 0
SMALL
GASTEIGER

@<TRIPOS>ATOM
      1  N         11.3460   -9.7960  -27.3930 N.3    27  LEU27      -0.1231
      2  CA        12.4830  -10.6720  -27.1310 C.3    27  LEU27       0.1693
      3  C         12.6190  -11.0590  -25.6720 C.2    27  LEU27       0.2592
      4  O         12.8330  -12.2310  -25.3430 O.2    27  LEU27      -0.2718
      5  CB        13.7830   -9.9780  -27.5280 C.3    27  LEU27       0.0284
      6  CG        14.1440   -9.9530  -28.9900 C.3    27  LEU27       0.0019
      7  CD1       15.5390   -9.3640  -29.1310 C.3    27  LEU27       0.0001
      8  CD2       14.0780  -11.3720  -29.5640 C.3    27  LEU27       0.0001
      9  N         12.5140  -10.0650  -24.7950 N.am   28  CYS28      -0.1970
     10  CA        12.9490  -10.2370  -23.4290 C.3    28  CYS28       0.1712
     11  C         12.4370   -9.0910  -22.6020 C.2    28  CYS28       0.2296
     12  O         11.9440   -8.0760  -23.1250 O.2    28  CYS28      -0.2864
     13  CB        14.4980  -10.1900  -23.3450 C.3    28  CYS28       0.0983
     14  SG        15.3160  -11.7970  -23.6070 S.3    28  CYS28      -0.0798
     15  N         22.0680  -13.4620  -22.2750 N.3    43  HIS43      -0.1226
     16  CA        21.5500  -14.4370  -23.2300 C.3    43  HIS43       0.1752
     17  C         20.4260  -13.9010  -24.1080 C.2    43  HIS43       0.2596
     18  O         20.1180  -14.5000  -25.1460 O.2    43  HIS43      -0.2718
     19  CB        21.1390  -15.7410  -22.5170 C.3    43  HIS43       0.0759
     20  CG        19.7720  -15.6840  -21.9260 C.ar   43  HIS43       0.0818
     21  ND1       19.5530  -15.4710  -20.5880 N.ar   43  HIS43      -0.2268
     22  CD2       18.5500  -15.7830  -22.4980 C.ar   43  HIS43       0.1154
     23  CE1       18.2530  -15.4370  -20.3560 C.ar   43  HIS43       0.1986
     24  NE2       17.6220  -15.6300  -21.4990 N.ar   43  HIS43      -0.2212
     25  N         19.8170  -12.7850  -23.6990 N.am   44  CYS44      -0.1970
     26  CA        18.8390  -12.1020  -24.5390 C.3    44  CYS44       0.1712
     27  C         19.4790  -11.5000  -25.7760 C.2    44  CYS44       0.2296
     28  O         18.8070  -11.3240  -26.8170 O.2    44  CYS44      -0.2864
     29  CB        18.1560  -10.9930  -23.7440 C.3    44  CYS44       0.0983
     30  SG        17.0290  -11.6250  -22.4890 S.3    44  CYS44      -0.0798
     31  N         23.4580  -15.5450  -27.7320 N.3    47  TYR47      -0.1241
     32  CA        23.3500  -16.9660  -27.4120 C.3    47  TYR47       0.1605
     33  C         23.6210  -17.7530  -28.6830 C.2    47  TYR47       0.2264
     34  O         22.7000  -18.1900  -29.3920 O.2    47  TYR47      -0.2867
     35  CB        21.9930  -17.3390  -26.7940 C.3    47  TYR47       0.0534
     36  CG        22.0560  -18.7360  -26.2080 C.ar   47  TYR47      -0.0201
     37  CD1       22.8910  -19.0190  -25.1310 C.ar   47  TYR47      -0.0009
     38  CD2       21.3130  -19.7740  -26.7430 C.ar   47  TYR47      -0.0009
     39  CE1       22.9950  -20.3010  -24.6250 C.ar   47  TYR47       0.0417
     40  CE2       21.4010  -21.0510  -26.2230 C.ar   47  TYR47       0.0417
     41  CZ        22.2370  -21.3010  -25.1520 C.ar   47  TYR47       0.1957
     42  OH        22.3550  -22.5680  -24.6090 O.3    47  TYR47      -0.2866
     43  N         21.8560  -20.9150  -30.3990 N.3    50  TRP50      -0.1241
     44  CA        20.6070  -20.7340  -31.1280 C.3    50  TRP50       0.1605
     45  C         20.7250  -19.6060  -32.1420 C.2    50  TRP50       0.2264
     46  O         19.7170  -19.0320  -32.5510 O.2    50  TRP50      -0.2867
     47  CB        19.4450  -20.4460  -30.1720 C.3    50  TRP50       0.0550
     48  CG        19.1360  -21.5640  -29.2250 C.ar   50  TRP50       0.0003
     49  CD1       19.7680  -22.7770  -29.1390 C.ar   50  TRP50       0.0946
     50  CD2       18.1200  -21.5710  -28.2210 C.ar   50  TRP50       0.0152
     51  NE1       19.2060  -23.5340  -28.1360 N.ar   50  TRP50      -0.2442
     52  CE2       18.1960  -22.8120  -27.5540 C.ar   50  TRP50       0.0810
     53  CE3       17.1510  -20.6500  -27.8220 C.ar   50  TRP50       0.0012
     54  CZ2       17.3330  -23.1570  -26.5170 C.ar   50  TRP50       0.0191
     55  CZ3       16.3020  -20.9870  -26.7820 C.ar   50  TRP50       0.0001
     56  CH2       16.3960  -22.2320  -26.1440 C.ar   50  TRP50       0.0015
     57  N         21.7300  -16.5550  -31.8930 N.3    52  LYS52      -0.1245
     58  CA        21.3560  -15.2170  -31.4120 C.3    52  LYS52       0.1561
     59  C         22.5960  -14.3660  -31.1930 C.2    52  LYS52       0.2260
     60  O         23.4760  -14.7120  -30.3950 O.2    52  LYS52      -0.2867
     61  CB        20.5650  -15.2870  -30.1010 C.3    52  LYS52       0.0271
     62  CG        19.3780  -16.2510  -30.1150 C.3    52  LYS52       0.0035
     63  CD        18.2960  -15.8400  -31.0960 C.3    52  LYS52       0.0206
     64  CE        17.2920  -16.9640  -31.2880 C.3    52  LYS52       0.1093
     65  NZ        16.2560  -16.5790  -32.2860 N.3    52  LYS52      -0.1314
     66  N         28.2190  -18.4400  -22.0670 N.3    92  TRP92      -0.1241
     67  CA        27.1130  -18.9770  -22.8430 C.3    92  TRP92       0.1605
     68  C         27.3220  -20.4320  -23.2170 C.2    92  TRP92       0.2264
     69  O         26.3660  -21.1260  -23.4830 O.2    92  TRP92      -0.2867
     70  CB        26.8610  -18.1480  -24.1100 C.3    92  TRP92       0.0550
     71  CG        28.0520  -17.9900  -25.0180 C.ar   92  TRP92       0.0003
     72  CD1       28.9210  -16.9360  -25.0540 C.ar   92  TRP92       0.0946
     73  CD2       28.4930  -18.9080  -26.0270 C.ar   92  TRP92       0.0152
     74  NE1       29.8710  -17.1320  -26.0330 N.ar   92  TRP92      -0.2442
     75  CE2       29.6340  -18.3390  -26.6400 C.ar   92  TRP92       0.0810
     76  CE3       28.0360  -20.1470  -26.4770 C.ar   92  TRP92       0.0012
     77  CZ2       30.3220  -18.9800  -27.6700 C.ar   92  TRP92       0.0191
     78  CZ3       28.7280  -20.7820  -27.5020 C.ar   92  TRP92       0.0001
     79  CH2       29.8480  -20.1910  -28.0870 C.ar   92  TRP92       0.0015
     80  N         28.3370  -22.9440  -21.3330 N.3    94  GLU94      -0.1231
     81  CA        28.0740  -23.9300  -20.2930 C.3    94  GLU94       0.1699
     82  C         26.7540  -23.7190  -19.5730 C.2    94  GLU94       0.2592
     83  O         25.8010  -24.4430  -19.8120 O.2    94  GLU94      -0.2718
     84  CB        29.2120  -23.9570  -19.2620 C.3    94  GLU94       0.0402
     85  CG        29.0160  -25.0410  -18.2140 C.3    94  GLU94       0.1161
     86  CD        30.0130  -24.9770  -17.0630 C.2    94  GLU94       0.3649
     87  OE1       30.8780  -24.0700  -17.0150 O.co2  94  GLU94      -0.2457
     88  OE2       29.9230  -25.8590  -16.1840 O.co2  94  GLU94      -0.2457
     89  N         26.6910  -22.7130  -18.7000 N.am   95  ASN95      -0.1960
     90  CA        25.6060  -22.6130  -17.7340 C.3    95  ASN95       0.1819
     91  C         25.0710  -21.1900  -17.5760 C.2    95  ASN95       0.2621
     92  O         24.4020  -20.8960  -16.5880 O.2    95  ASN95      -0.2715
     93  CB        26.0740  -23.1040  -16.3660 C.3    95  ASN95       0.1195
     94  CG        27.2990  -22.3690  -15.8750 C.2    95  ASN95       0.2630
     95  OD1       27.8630  -21.5150  -16.5810 O.2    95  ASN95      -0.2716
     96  ND2       27.7280  -22.6890  -14.6740 N.am   95  ASN95      -0.0877
     97  N         25.3960  -20.3110  -18.5120 N.am   96  LEU96      -0.1977
     98  CA        24.9780  -18.9040  -18.4160 C.3    96  LEU96       0.1596
     99  C         25.5290  -18.2020  -17.1700 C.2    96  LEU96       0.2287
    100  O         24.9170  -17.2680  -16.6410 O.2    96  LEU96      -0.2864
    101  CB        23.4470  -18.7540  -18.4770 C.3    96  LEU96       0.0297
    102  CG        22.7070  -19.2610  -19.7200 C.3    96  LEU96       0.0022
    103  CD1       21.2840  -18.7210  -19.7020 C.3    96  LEU96       0.0001
    104  CD2       23.3680  -18.9820  -21.0410 C.3    96  LEU96       0.0001
    105  N         22.3820  -28.9860  -13.9690 N.3   171  ILE171     -0.1245
    106  CA        23.1320  -27.8520  -14.4690 C.3   171  ILE171      0.1561
    107  C         24.0260  -27.2830  -13.3520 C.2   171  ILE171      0.2260
    108  O         23.6520  -27.2880  -12.1910 O.2   171  ILE171     -0.2867
    109  CB        22.1800  -26.7950  -15.0370 C.3   171  ILE171      0.0252
    110  CG1       21.4480  -27.3920  -16.2490 C.3   171  ILE171      0.0019
    111  CG2       22.9530  -25.5210  -15.4170 C.3   171  ILE171      0.0019
    112  CD1       20.1790  -26.6460  -16.6210 C.3   171  ILE171      0.0001
    113  N          6.2870  -18.9550  -11.3690 N.3   191  ASP191     -0.1225
    114  CA         7.6110  -18.9570  -11.9820 C.3   191  ASP191      0.1805
    115  C          7.6350  -17.8920  -13.0480 C.2   191  ASP191      0.2598
    116  O          6.5910  -17.4190  -13.5020 O.2   191  ASP191     -0.2718
    117  CB         7.9180  -20.3350  -12.5950 C.3   191  ASP191      0.1424
    118  CG         9.4110  -20.5650  -12.8700 C.2   191  ASP191      0.3668
    119  OD1       10.2780  -19.7340  -12.5020 O.co2 191  ASP191     -0.2456
    120  OD2        9.7060  -21.6450  -13.4380 O.co2 191  ASP191     -0.2456
    121  N          8.8470  -17.4870  -13.4280 N.am  192  ALA192     -0.1966
    122  CA         9.0370  -16.7690  -14.6790 C.3   192  ALA192      0.1728
    123  C          8.9620  -17.7750  -15.8080 C.2   192  ALA192      0.2616
    124  O          9.0340  -18.9870  -15.5880 O.2   192  ALA192     -0.2715
    125  CB        10.3850  -16.0840  -14.7080 C.3   192  ALA192      0.0334
    126  N          8.8420  -17.2880  -17.0340 N.am  193  CYS193     -0.1954
    127  CA         8.7860  -18.2010  -18.1610 C.3   193  CYS193      0.1843
    128  C          9.4050  -17.5720  -19.3990 C.2   193  CYS193      0.2625
    129  O          9.9590  -16.4770  -19.3490 O.2   193  CYS193     -0.2714
    130  CB         7.3300  -18.6490  -18.4090 C.3   193  CYS193      0.0997
    131  SG         7.1400  -20.2630  -19.2960 S.3   193  CYS193     -0.0797
    132  N          9.3060  -18.2660  -20.5220 N.am  194  GLU194     -0.1963
    133  CA         9.9130  -17.7700  -21.7410 C.3   194  GLU194      0.1733
    134  C          9.2430  -16.4510  -22.1450 C.2   194  GLU194      0.2616
    135  O          8.0190  -16.3410  -22.1430 O.2   194  GLU194     -0.2715
    136  CB         9.8450  -18.8560  -22.8310 C.3   194  GLU194      0.0429
    137  CG        10.6110  -20.1300  -22.3860 C.3   194  GLU194      0.1163
    138  CD        10.7060  -21.2430  -23.4160 C.2   194  GLU194      0.3649
    139  OE1       10.0610  -21.1580  -24.4890 O.co2 194  GLU194     -0.2457
    140  OE2       11.4480  -22.2160  -23.1270 O.co2 194  GLU194     -0.2457
    141  N         10.0540  -15.4460  -22.4700 N.am  195  GLY195     -0.1955
    142  CA         9.5500  -14.0990  -22.6780 C.3   195  GLY195      0.1869
    143  C          9.8190  -13.1630  -21.5120 C.2   195  GLY195      0.2309
    144  O          9.8800  -11.9510  -21.6870 O.2   195  GLY195     -0.2863
    145  N         12.5960  -13.5300  -19.6380 N.3   197  SER197     -0.1217
    146  CA        13.9890  -13.4960  -19.2760 C.3   197  SER197      0.1889
    147  C         14.5800  -12.1180  -19.5170 C.2   197  SER197      0.2288
    148  O         14.0840  -11.3190  -20.3070 O.2   197  SER197     -0.2866
    149  CB        14.7670  -14.6440  -19.8800 C.3   197  SER197      0.2089
    150  OG        14.9620  -14.4670  -21.2330 O.3   197  SER197     -0.2183
    151  N         16.1170  -12.4770  -14.4810 N.3   217  VAL217     -0.1231
    152  CA        15.5980  -13.7670  -14.9380 C.3   217  VAL217      0.1692
    153  C         16.5880  -14.3720  -15.9550 C.2   217  VAL217      0.2593
    154  O         16.8400  -13.7790  -17.0120 O.2   217  VAL217     -0.2718
    155  CB        14.2360  -13.5960  -15.6100 C.3   217  VAL217      0.0266
    156  CG1       13.7330  -14.9360  -16.1370 C.3   217  VAL217      0.0020
    157  CG2       13.1990  -13.0390  -14.6480 C.3   217  VAL217      0.0020
    158  N         17.1340  -15.5440  -15.6350 N.am  218  SER218     -0.1938
    159  CA        18.2530  -16.0930  -16.4030 C.3   218  SER218      0.2055
    160  C         17.9670  -17.4410  -17.0470 C.2   218  SER218      0.2643
    161  O         18.0300  -17.5610  -18.2800 O.2   218  SER218     -0.2714
    162  CB        19.4970  -16.1640  -15.5230 C.3   218  SER218      0.2130
    163  OG        20.6240  -16.6920  -16.2180 O.3   218  SER218     -0.2179
    164  N         17.6450  -18.4660  -16.2650 N.am  219  TRP219     -0.1959
    165  CA        17.4220  -19.7890  -16.8570 C.3   219  TRP219      0.1771
    166  C         16.5360  -20.6540  -15.9900 C.2   219  TRP219      0.2620
    167  O         16.2490  -20.3200  -14.8500 O.2   219  TRP219     -0.2715
    168  CB        18.7530  -20.5040  -17.1250 C.3   219  TRP219      0.0590
    169  CG        19.6760  -20.7690  -15.9560 C.ar  219  TRP219      0.0006
    170  CD1       20.6570  -19.9500  -15.4790 C.ar  219  TRP219      0.0946
    171  CD2       19.7500  -21.9700  -15.1640 C.ar  219  TRP219      0.0152
    172  NE1       21.3280  -20.5480  -14.4400 N.ar  219  TRP219     -0.2442
    173  CE2       20.7950  -21.7930  -14.2330 C.ar  219  TRP219      0.0810
    174  CE3       19.0530  -23.1840  -15.1770 C.ar  219  TRP219      0.0012
    175  CZ2       21.1490  -22.7680  -13.3090 C.ar  219  TRP219      0.0191
    176  CZ3       19.4050  -24.1480  -14.2460 C.ar  219  TRP219      0.0001
    177  CH2       20.4450  -23.9360  -13.3380 C.ar  219  TRP219      0.0015
    178  N         16.1070  -21.7690  -16.5700 N.am  220  GLY220     -0.1940
    179  CA        15.2450  -22.7000  -15.8790 C.3   220  GLY220      0.2014
    180  C         15.0040  -23.8670  -16.8060 C.2   220  GLY220      0.2639
    181  O         15.3740  -23.8570  -17.9660 O.2   220  GLY220     -0.2714
    182  N         14.3810  -24.8710  -16.2530 N.am  221  GLU221     -0.1963
    183  CA        14.0550  -26.0760  -17.0210 C.3   221  GLU221      0.1733
    184  C         12.5430  -26.1630  -17.1000 C.2   221  GLU221      0.2617
    185  O         11.8850  -26.5090  -16.1330 O.2   221  GLU221     -0.2715
    186  CB        14.6770  -27.3190  -16.3720 C.3   221  GLU221      0.0429
    187  CG        16.2010  -27.3080  -16.5040 C.3   221  GLU221      0.1163
    188  CD        16.8880  -28.3830  -15.6930 C.2   221  GLU221      0.3649
    189  OE1       17.0870  -28.1740  -14.4850 O.co2 221  GLU221     -0.2457
    190  OE2       17.2280  -29.4410  -16.2570 O.co2 221  GLU221     -0.2457
    191  N         11.9980  -25.7980  -18.2540 N.am  222  GLY222     -0.1940
    192  CA        10.5800  -25.5620  -18.3740 C.3   222  GLY222      0.2014
    193  C         10.1510  -24.3820  -17.5270 C.2   222  GLY222      0.2639
    194  O         10.9610  -23.4980  -17.2270 O.2   222  GLY222     -0.2714
    195  N          8.8860  -24.3820  -17.1130 N.am  223  CYS223     -0.1967
    196  CA         8.3490  -23.3110  -16.2790 C.3   223  CYS223      0.1712
    197  C          7.3790  -23.9100  -15.2780 C.2   223  CYS223      0.2296
    198  O          6.5120  -24.7320  -15.6350 O.2   223  CYS223     -0.2864
    199  CB         7.5950  -22.2670  -17.1250 C.3   223  CYS223      0.0983
    200  SG         8.5040  -21.6280  -18.5280 S.3   223  CYS223     -0.0798
    201  N         13.1320  -24.8790  -10.0060 N.3   229  TYR229     -0.1227
    202  CA        13.1470  -23.5040   -9.5470 C.3   229  TYR229      0.1736
    203  C         13.6550  -22.6250  -10.6720 C.2   229  TYR229      0.2596
    204  O         14.3700  -23.0870  -11.5520 O.2   229  TYR229     -0.2718
    205  CB        14.0370  -23.3630   -8.2930 C.3   229  TYR229      0.0548
    206  CG        13.5330  -24.2650   -7.2090 C.ar  229  TYR229     -0.0200
    207  CD1       12.5220  -23.8540   -6.3630 C.ar  229  TYR229     -0.0009
    208  CD2       14.0030  -25.5470   -7.0970 C.ar  229  TYR229     -0.0009
    209  CE1       11.9930  -24.6910   -5.4160 C.ar  229  TYR229      0.0417
    210  CE2       13.4860  -26.4090   -6.1490 C.ar  229  TYR229      0.0417
    211  CZ        12.4650  -25.9720   -5.3150 C.ar  229  TYR229      0.1957
    212  OH        11.9210  -26.8160   -4.3850 O.3   229  TYR229     -0.2866
    213  N         13.2800  -21.3610  -10.6320 N.am  230  GLY230     -0.1942
    214  CA        13.8390  -20.4220  -11.5890 C.3   230  GLY230      0.2014
    215  C         15.1930  -19.9370  -11.1050 C.2   230  GLY230      0.2639
    216  O         15.4010  -19.7580   -9.9010 O.2   230  GLY230     -0.2714
    217  N         16.0990  -19.6910  -12.0420 N.am  231  PHE231     -0.1959
    218  CA        17.4350  -19.1920  -11.7170 C.3   231  PHE231      0.1771
    219  C         17.6370  -17.7830  -12.2080 C.2   231  PHE231      0.2619
    220  O         17.1270  -17.3970  -13.2790 O.2   231  PHE231     -0.2715
    221  CB        18.5330  -20.1430  -12.2500 C.3   231  PHE231      0.0574
    222  CG        18.6390  -21.3950  -11.4370 C.ar  231  PHE231     -0.0200
    223  CD1       17.7320  -22.4250  -11.6180 C.ar  231  PHE231     -0.0042
    224  CD2       19.5990  -21.5140  -10.4470 C.ar  231  PHE231     -0.0042
    225  CE1       17.7970  -23.5630  -10.8070 C.ar  231  PHE231     -0.0003
    226  CE2       19.6730  -22.6430   -9.6610 C.ar  231  PHE231     -0.0003
    227  CZ        18.7620  -23.6600   -9.8400 C.ar  231  PHE231     -0.0000
    228  N         18.3400  -17.0120  -11.3760 N.am  232  TYR232     -0.1974
    229  CA        18.4900  -15.5740  -11.5290 C.3   232  TYR232      0.1639
    230  C         19.9370  -15.1690  -11.4010 C.2   232  TYR232      0.2290
    231  O         20.6580  -15.7060  -10.5760 O.2   232  TYR232     -0.2864
    232  CB        17.6780  -14.8750  -10.4290 C.3   232  TYR232      0.0560
    233  CG        16.2060  -15.1600  -10.5200 C.ar  232  TYR232     -0.0198
    234  CD1       15.6660  -16.3310   -9.9650 C.ar  232  TYR232     -0.0009
    235  CD2       15.3590  -14.3130  -11.2040 C.ar  232  TYR232     -0.0009
    236  CE1       14.3210  -16.6260  -10.1030 C.ar  232  TYR232      0.0417
    237  CE2       14.0170  -14.6000  -11.3460 C.ar  232  TYR232      0.0417
    238  CZ        13.4990  -15.7570  -10.8140 C.ar  232  TYR232      0.1957
    239  OH        12.1670  -16.0520  -10.9540 O.3   232  TYR232     -0.2866
@<TRIPOS>BOND
     1    46    45    2
     2    65    64    1
     3    45    44    1
     4    57    58    1
     5    58    59    1
     6    58    61    1
     7    64    63    1
     8    59    60    2
     9    44    43    1
    10    44    47    1
    11    63    62    1
    12    47    48    1
    13    62    61    1
    14     8     6    1
    15    34    33    2
    16    48    49   ar
    17    48    50   ar
    18    49    51   ar
    19     7     6    1
    20     6     5    1
    21    33    32    1
    22    50    53   ar
    23    50    52   ar
    24    51    52   ar
    25    79    77   ar
    26    79    78   ar
    27    53    55   ar
    28    31    32    1
    29    77    75   ar
    30    52    54   ar
    31     5     2    1
    32    78    76   ar
    33    32    35    1
    34     1     2    1
    35     2     3    1
    36    28    27    2
    37    35    36    1
    38    55    56   ar
    39    38    40   ar
    40    38    36   ar
    41    75    74   ar
    42    75    73   ar
    43    54    56   ar
    44    76    73   ar
    45    40    41   ar
    46    36    37   ar
    47    74    72   ar
    48    73    71   ar
    49    27    26    1
    50     3     4    2
    51     3     9   am
    52    41    39   ar
    53    41    42    1
    54    18    17    2
    55    37    39   ar
    56    72    71   ar
    57    71    70    1
    58     9    10    1
    59    26    29    1
    60    26    25    1
    61   139   138   ar
    62    70    67    1
    63    17    25   am
    64    17    16    1
    65    29    30    1
    66    14    13    1
    67    14    30    1
    68    69    68    2
    69    10    13    1
    70    10    11    1
    71   138   140   ar
    72   138   137    1
    73    16    19    1
    74    16    15    1
    75    68    67    1
    76    12    11    2
    77    67    66    1
    78   136   137    1
    79   136   133    1
    80   142   141    1
    81   142   143    1
    82    19    20    1
    83    22    20   ar
    84    22    24   ar
    85   141   134   am
    86   134   135    2
    87   134   133    1
    88    20    21   ar
    89   133   132    1
    90   144   143    2
    91    24    23   ar
    92    80    81    1
    93   150   149    1
    94   104   102    1
    95    21    23   ar
    96   132   128   am
    97   148   147    2
    98    81    82    1
    99    81    84    1
   100   149   146    1
   101    83    82    2
   102   102   103    1
   103   102   101    1
   104   145   146    1
   105    82    89   am
   106   147   146    1
   107   128   129    2
   108   128   127    1
   109   131   200    1
   110   131   130    1
   111    84    85    1
   112    89    90    1
   113   200   199    1
   114    97    98    1
   115    97    91   am
   116   101    98    1
   117    98    99    1
   118   130   127    1
   119   192   191    1
   120   192   193    1
   121   161   160    2
   122   191   184   am
   123    85    86    1
   124   127   126    1
   125   181   180    2
   126    90    91    1
   127    90    93    1
   128    91    92    2
   129   193   194    2
   130   193   195   am
   131    99   100    2
   132   168   165    1
   133   168   169    1
   134   199   196    1
   135   195   196    1
   136   184   183    1
   137   184   185    2
   138    86    87   ar
   139    86    88   ar
   140   160   159    1
   141   160   164   am
   142   126   123   am
   143   183   186    1
   144   183   182    1
   145   154   153    2
   146   165   164    1
   147   165   166    1
   148   180   182   am
   149   180   179    1
   150   112   110    1
   151    95    94    2
   152   178   166   am
   153   178   179    1
   154   187   186    1
   155   187   188    1
   156   159   158    1
   157   159   162    1
   158    93    94    1
   159   196   197    1
   160   190   188   ar
   161   110   109    1
   162   163   162    1
   163   156   155    1
   164   166   167    2
   165   169   170   ar
   166   169   171   ar
   167   153   158   am
   168   153   152    1
   169    94    96   am
   170   123   124    2
   171   123   122    1
   172   188   189   ar
   173   198   197    2
   174   155   152    1
   175   155   157    1
   176   170   172   ar
   177   111   109    1
   178   174   171   ar
   179   174   176   ar
   180   171   173   ar
   181   109   106    1
   182   152   151    1
   183   125   122    1
   184   122   121    1
   185   106   105    1
   186   106   107    1
   187   172   173   ar
   188   176   177   ar
   189   173   175   ar
   190   116   115    2
   191   120   118   ar
   192   121   115   am
   193   107   108    2
   194   177   175   ar
   195   220   219    2
   196   115   114    1
   197   118   117    1
   198   118   119   ar
   199   117   114    1
   200   221   218    1
   201   221   222    1
   202   219   218    1
   203   219   228   am
   204   217   218    1
   205   217   215   am
   206   114   113    1
   207   223   222   ar
   208   223   225   ar
   209   214   215    1
   210   214   213    1
   211   204   203    2
   212   229   230    1
   213   229   228    1
   214   229   232    1
   215   222   224   ar
   216   230   231    2
   217   237   235   ar
   218   237   238   ar
   219   235   233   ar
   220   215   216    2
   221   239   238    1
   222   238   236   ar
   223   225   227   ar
   224   203   213   am
   225   203   202    1
   226   233   232    1
   227   233   234   ar
   228   224   226   ar
   229   236   234   ar
   230   201   202    1
   231   227   226   ar
   232   202   205    1
   233   205   206    1
   234   206   208   ar
   235   206   207   ar
   236   208   210   ar
   237   207   209   ar
   238   210   211   ar
   239   209   211   ar
   240   211   212    1
