@<TRIPOS>MOLECULE
tmp/3u8tB00.pdb
 233 233 0 0 0
SMALL
GASTEIGER

@<TRIPOS>ATOM
      1  N         11.1400   -9.6770  -27.2920 N.3    27  LEU27      -0.1231
      2  CA        12.1830  -10.6800  -27.0170 C.3    27  LEU27       0.1693
      3  C         12.2930  -11.0320  -25.5660 C.2    27  LEU27       0.2592
      4  O         12.4250  -12.2020  -25.2170 O.2    27  LEU27      -0.2718
      5  CB        13.5660  -10.1700  -27.4220 C.3    27  LEU27       0.0284
      6  CG        13.7590  -10.0750  -28.9210 C.3    27  LEU27       0.0019
      7  CD1       15.1030   -9.4490  -29.1780 C.3    27  LEU27       0.0001
      8  CD2       13.6380  -11.4860  -29.5080 C.3    27  LEU27       0.0001
      9  N         12.2780  -10.0230  -24.7060 N.am   28  CYS28      -0.1970
     10  CA        12.7240  -10.2470  -23.3430 C.3    28  CYS28       0.1712
     11  C         12.2760   -9.1000  -22.4960 C.2    28  CYS28       0.2296
     12  O         11.9730   -8.0310  -23.0220 O.2    28  CYS28      -0.2864
     13  CB        14.2990  -10.2440  -23.2750 C.3    28  CYS28       0.0983
     14  SG        14.9030  -11.9500  -23.5230 S.3    28  CYS28      -0.0798
     15  N         21.6990  -13.8590  -22.1860 N.3    43  HIS43      -0.1241
     16  CA        21.1310  -14.8150  -23.1440 C.3    43  HIS43       0.1621
     17  C         20.0310  -14.2280  -24.0160 C.2    43  HIS43       0.2264
     18  O         19.7040  -14.8130  -25.0430 O.2    43  HIS43      -0.2867
     19  CB        20.6430  -16.1370  -22.4880 C.3    43  HIS43       0.0745
     20  CG        19.2680  -16.0500  -21.8940 C.ar   43  HIS43       0.0817
     21  ND1       19.0430  -15.7550  -20.5580 N.ar   43  HIS43      -0.2268
     22  CD2       18.0500  -16.2420  -22.4480 C.ar   43  HIS43       0.1154
     23  CE1       17.7390  -15.7530  -20.3320 C.ar   43  HIS43       0.1986
     24  NE2       17.1140  -16.0300  -21.4660 N.ar   43  HIS43      -0.2212
     25  N         23.2890  -16.0120  -27.7080 N.3    47  TYR47      -0.1241
     26  CA        23.1360  -17.4360  -27.4180 C.3    47  TYR47       0.1605
     27  C         23.4310  -18.2120  -28.7190 C.2    47  TYR47       0.2264
     28  O         22.5170  -18.6310  -29.4540 O.2    47  TYR47      -0.2867
     29  CB        21.7560  -17.7820  -26.8570 C.3    47  TYR47       0.0534
     30  CG        21.8130  -19.1780  -26.2870 C.ar   47  TYR47      -0.0201
     31  CD1       22.6130  -19.4620  -25.1590 C.ar   47  TYR47      -0.0009
     32  CD2       21.1150  -20.1860  -26.8450 C.ar   47  TYR47      -0.0009
     33  CE1       22.7050  -20.7680  -24.6550 C.ar   47  TYR47       0.0417
     34  CE2       21.1980  -21.4820  -26.3450 C.ar   47  TYR47       0.0417
     35  CZ        22.0040  -21.7550  -25.2370 C.ar   47  TYR47       0.1957
     36  OH        22.0880  -23.0670  -24.7840 O.3    47  TYR47      -0.2866
     37  N         21.6010  -21.1830  -30.4350 N.3    50  TRP50      -0.1241
     38  CA        20.3610  -20.8900  -31.1360 C.3    50  TRP50       0.1605
     39  C         20.5930  -19.8730  -32.2260 C.2    50  TRP50       0.2264
     40  O         19.6370  -19.2730  -32.6880 O.2    50  TRP50      -0.2867
     41  CB        19.2930  -20.3610  -30.1780 C.3    50  TRP50       0.0550
     42  CG        18.7800  -21.4020  -29.2270 C.ar   50  TRP50       0.0003
     43  CD1       19.0440  -22.7400  -29.2550 C.ar   50  TRP50       0.0946
     44  CD2       17.9050  -21.1870  -28.1100 C.ar   50  TRP50       0.0152
     45  NE1       18.3980  -23.3730  -28.2120 N.ar   50  TRP50      -0.2442
     46  CE2       17.6800  -22.4430  -27.5070 C.ar   50  TRP50       0.0810
     47  CE3       17.3130  -20.0590  -27.5550 C.ar   50  TRP50       0.0012
     48  CZ2       16.8870  -22.5970  -26.3670 C.ar   50  TRP50       0.0191
     49  CZ3       16.5210  -20.2060  -26.4160 C.ar   50  TRP50       0.0001
     50  CH2       16.3080  -21.4710  -25.8420 C.ar   50  TRP50       0.0015
     51  N         21.7100  -16.8980  -31.9280 N.3    52  LYS52      -0.1245
     52  CA        21.2430  -15.5860  -31.4980 C.3    52  LYS52       0.1561
     53  C         22.4710  -14.7090  -31.2240 C.2    52  LYS52       0.2260
     54  O         23.3590  -15.0720  -30.4300 O.2    52  LYS52      -0.2867
     55  CB        20.3500  -15.7080  -30.2530 C.3    52  LYS52       0.0271
     56  CG        19.8140  -14.4000  -29.7370 C.3    52  LYS52       0.0035
     57  CD        19.2310  -14.5540  -28.3170 C.3    52  LYS52       0.0206
     58  CE        17.9540  -15.4170  -28.2770 C.3    52  LYS52       0.1093
     59  NZ        17.4740  -15.5000  -26.8200 N.3    52  LYS52      -0.1314
     60  N         27.7930  -19.1130  -21.8790 N.3    92  TRP92      -0.1241
     61  CA        26.6340  -19.6310  -22.6040 C.3    92  TRP92       0.1605
     62  C         26.8510  -21.0950  -22.9810 C.2    92  TRP92       0.2264
     63  O         25.8960  -21.7760  -23.3020 O.2    92  TRP92      -0.2867
     64  CB        26.4000  -18.8570  -23.9160 C.3    92  TRP92       0.0550
     65  CG        27.6120  -18.6950  -24.7790 C.ar   92  TRP92       0.0003
     66  CD1       28.5150  -17.6600  -24.7570 C.ar   92  TRP92       0.0946
     67  CD2       28.0560  -19.5850  -25.8160 C.ar   92  TRP92       0.0152
     68  NE1       29.4960  -17.8560  -25.7160 N.ar   92  TRP92      -0.2442
     69  CE2       29.2300  -19.0310  -26.3740 C.ar   92  TRP92       0.0810
     70  CE3       27.5740  -20.7860  -26.3180 C.ar   92  TRP92       0.0012
     71  CZ2       29.9430  -19.6620  -27.4090 C.ar   92  TRP92       0.0191
     72  CZ3       28.2740  -21.4120  -27.3550 C.ar   92  TRP92       0.0001
     73  CH2       29.4390  -20.8440  -27.8870 C.ar   92  TRP92       0.0015
     74  N         27.7720  -23.5980  -21.1510 N.3    94  GLU94      -0.1231
     75  CA        27.4560  -24.5580  -20.0800 C.3    94  GLU94       0.1699
     76  C         26.1470  -24.3290  -19.3120 C.2    94  GLU94       0.2592
     77  O         25.2260  -25.1300  -19.4190 O.2    94  GLU94      -0.2718
     78  CB        28.6280  -24.6740  -19.0660 C.3    94  GLU94       0.0402
     79  CG        28.3830  -25.7900  -18.0760 C.3    94  GLU94       0.1161
     80  CD        29.3380  -25.7660  -16.8880 C.2    94  GLU94       0.3649
     81  OE1       30.2830  -24.9380  -16.8420 O.co2  94  GLU94      -0.2457
     82  OE2       29.1510  -26.6150  -16.0080 O.co2  94  GLU94      -0.2457
     83  N         26.0610  -23.2570  -18.5190 N.am   95  ASN95      -0.1960
     84  CA        24.9720  -23.1200  -17.5400 C.3    95  ASN95       0.1819
     85  C         24.4910  -21.6740  -17.3980 C.2    95  ASN95       0.2621
     86  O         23.7810  -21.3520  -16.4240 O.2    95  ASN95      -0.2715
     87  CB        25.4250  -23.5800  -16.1420 C.3    95  ASN95       0.1195
     88  CG        26.7150  -22.9080  -15.7110 C.2    95  ASN95       0.2630
     89  OD1       27.2640  -22.0810  -16.4490 O.2    95  ASN95      -0.2716
     90  ND2       27.1860  -23.2080  -14.5030 N.am   95  ASN95      -0.0877
     91  N         24.8780  -20.8150  -18.3310 N.am   96  LEU96      -0.1977
     92  CA        24.4730  -19.3900  -18.2650 C.3    96  LEU96       0.1596
     93  C         24.9890  -18.7320  -16.9970 C.2    96  LEU96       0.2287
     94  O         24.3720  -17.7970  -16.4790 O.2    96  LEU96      -0.2864
     95  CB        22.9260  -19.2090  -18.3270 C.3    96  LEU96       0.0297
     96  CG        22.1820  -19.6280  -19.5940 C.3    96  LEU96       0.0022
     97  CD1       20.7520  -19.0410  -19.6150 C.3    96  LEU96       0.0001
     98  CD2       22.9150  -19.3180  -20.8520 C.3    96  LEU96       0.0001
     99  N         21.6830  -29.2700  -13.8030 N.3   171  ILE171     -0.1245
    100  CA        22.5200  -28.1390  -14.1920 C.3   171  ILE171      0.1561
    101  C         23.3710  -27.6440  -12.9810 C.2   171  ILE171      0.2260
    102  O         22.8980  -27.5620  -11.8700 O.2   171  ILE171     -0.2867
    103  CB        21.6410  -27.0360  -14.8020 C.3   171  ILE171      0.0252
    104  CG1       21.0020  -27.5980  -16.0860 C.3   171  ILE171      0.0019
    105  CG2       22.4640  -25.7590  -15.0840 C.3   171  ILE171      0.0019
    106  CD1       19.8050  -26.8150  -16.5670 C.3   171  ILE171      0.0001
    107  N          5.7770  -18.7180  -11.3550 N.3   191  ASP191     -0.1225
    108  CA         7.1390  -18.7770  -11.9070 C.3   191  ASP191      0.1805
    109  C          7.2130  -17.7640  -13.0480 C.2   191  ASP191      0.2598
    110  O          6.1780  -17.3440  -13.5820 O.2   191  ASP191     -0.2718
    111  CB         7.3880  -20.1750  -12.4930 C.3   191  ASP191      0.1424
    112  CG         8.8860  -20.4870  -12.7530 C.2   191  ASP191      0.3668
    113  OD1        9.7840  -19.6580  -12.4580 O.co2 191  ASP191     -0.2456
    114  OD2        9.1660  -21.5770  -13.3320 O.co2 191  ASP191     -0.2456
    115  N          8.4190  -17.3570  -13.3990 N.am  192  ALA192     -0.1966
    116  CA         8.6330  -16.6620  -14.6870 C.3   192  ALA192      0.1728
    117  C          8.5250  -17.7030  -15.7830 C.2   192  ALA192      0.2616
    118  O          8.5150  -18.9100  -15.4890 O.2   192  ALA192     -0.2715
    119  CB        10.0220  -15.9850  -14.7150 C.3   192  ALA192      0.0334
    120  N          8.3980  -17.2490  -17.0360 N.am  193  CYS193     -0.1954
    121  CA         8.3440  -18.1660  -18.1640 C.3   193  CYS193      0.1843
    122  C          8.9130  -17.4850  -19.4100 C.2   193  CYS193      0.2625
    123  O          9.5240  -16.4070  -19.3360 O.2   193  CYS193     -0.2714
    124  CB         6.8990  -18.5950  -18.4040 C.3   193  CYS193      0.0997
    125  SG         6.6340  -20.1710  -19.2580 S.3   193  CYS193     -0.0797
    126  N          8.7080  -18.1280  -20.5580 N.am  194  GLU194     -0.1963
    127  CA         9.3200  -17.6860  -21.8090 C.3   194  GLU194      0.1733
    128  C          8.8230  -16.2600  -22.0740 C.2   194  GLU194      0.2616
    129  O          7.6160  -15.9790  -22.0040 O.2   194  GLU194     -0.2715
    130  CB         8.9100  -18.6340  -22.9400 C.3   194  GLU194      0.0429
    131  CG         9.3440  -18.1930  -24.3450 C.3   194  GLU194      0.1163
    132  CD         8.8950  -19.1680  -25.4430 C.2   194  GLU194      0.3649
    133  OE1        9.0310  -18.8100  -26.6490 O.co2 194  GLU194     -0.2457
    134  OE2        8.4100  -20.2810  -25.1000 O.co2 194  GLU194     -0.2457
    135  N          9.7420  -15.3590  -22.3670 N.am  195  GLY195     -0.1955
    136  CA         9.3880  -13.9710  -22.5950 C.3   195  GLY195      0.1869
    137  C          9.6280  -13.0850  -21.4050 C.2   195  GLY195      0.2309
    138  O          9.7600  -11.8600  -21.5750 O.2   195  GLY195     -0.2863
    139  N         12.2970  -13.6420  -19.4660 N.3   197  SER197     -0.1217
    140  CA        13.7550  -13.6570  -19.3190 C.3   197  SER197      0.1889
    141  C         14.2920  -12.2370  -19.4060 C.2   197  SER197      0.2288
    142  O         13.8280  -11.4710  -20.2380 O.2   197  SER197     -0.2866
    143  CB        14.3330  -14.4030  -20.5490 C.3   197  SER197      0.2089
    144  OG        13.6460  -15.6210  -20.7150 O.3   197  SER197     -0.2183
    145  N         15.7470  -12.5040  -14.3850 N.3   217  VAL217     -0.1231
    146  CA        15.2150  -13.8220  -14.8360 C.3   217  VAL217      0.1692
    147  C         16.1850  -14.4890  -15.8200 C.2   217  VAL217      0.2593
    148  O         16.4370  -13.9380  -16.8960 O.2   217  VAL217     -0.2718
    149  CB        13.8340  -13.6660  -15.5000 C.3   217  VAL217      0.0266
    150  CG1       13.3370  -15.0140  -16.1180 C.3   217  VAL217      0.0020
    151  CG2       12.8400  -13.0870  -14.4800 C.3   217  VAL217      0.0020
    152  N         16.7190  -15.6640  -15.4670 N.am  218  SER218     -0.1938
    153  CA        17.7810  -16.2640  -16.2720 C.3   218  SER218      0.2055
    154  C         17.4070  -17.5820  -16.9170 C.2   218  SER218      0.2643
    155  O         17.4220  -17.7560  -18.1600 O.2   218  SER218     -0.2714
    156  CB        19.0720  -16.4350  -15.4140 C.3   218  SER218      0.2130
    157  OG        20.1240  -17.0050  -16.2240 O.3   218  SER218     -0.2179
    158  N         17.0370  -18.5560  -16.1070 N.am  219  TRP219     -0.1959
    159  CA        16.7530  -19.8550  -16.7170 C.3   219  TRP219      0.1771
    160  C         15.8020  -20.6990  -15.8520 C.2   219  TRP219      0.2620
    161  O         15.5250  -20.3550  -14.6940 O.2   219  TRP219     -0.2715
    162  CB        18.0290  -20.6160  -17.1020 C.3   219  TRP219      0.0590
    163  CG        18.9570  -20.9660  -15.9700 C.ar  219  TRP219      0.0006
    164  CD1       19.9490  -20.1930  -15.4480 C.ar  219  TRP219      0.0946
    165  CD2       18.9880  -22.2030  -15.2530 C.ar  219  TRP219      0.0152
    166  NE1       20.6080  -20.8910  -14.4390 N.ar  219  TRP219     -0.2442
    167  CE2       20.0190  -22.1160  -14.2980 C.ar  219  TRP219      0.0810
    168  CE3       18.2370  -23.3830  -15.3380 C.ar  219  TRP219      0.0012
    169  CZ2       20.3350  -23.1660  -13.4230 C.ar  219  TRP219      0.0191
    170  CZ3       18.5380  -24.4210  -14.4640 C.ar  219  TRP219      0.0001
    171  CH2       19.5800  -24.3070  -13.5200 C.ar  219  TRP219      0.0015
    172  N         15.2320  -21.7400  -16.4590 N.am  220  GLY220     -0.1940
    173  CA        14.3410  -22.6320  -15.7370 C.3   220  GLY220      0.2014
    174  C         14.1440  -23.8650  -16.5950 C.2   220  GLY220      0.2639
    175  O         14.4940  -23.8730  -17.7850 O.2   220  GLY220     -0.2714
    176  N         13.5870  -24.9100  -16.0290 N.am  221  GLU221     -0.1963
    177  CA        13.3210  -26.0970  -16.8660 C.3   221  GLU221      0.1733
    178  C         11.8040  -26.2060  -16.9120 C.2   221  GLU221      0.2617
    179  O         11.1670  -26.5690  -15.9220 O.2   221  GLU221     -0.2715
    180  CB        13.9670  -27.3460  -16.3010 C.3   221  GLU221      0.0429
    181  CG        15.4890  -27.1910  -16.2270 C.3   221  GLU221      0.1163
    182  CD        16.1670  -28.3410  -15.5040 C.2   221  GLU221      0.3649
    183  OE1       16.2250  -28.3090  -14.2660 O.co2 221  GLU221     -0.2457
    184  OE2       16.6740  -29.2570  -16.1820 O.co2 221  GLU221     -0.2457
    185  N         11.2360  -25.8040  -18.0440 N.am  222  GLY222     -0.1940
    186  CA         9.7900  -25.6250  -18.1470 C.3   222  GLY222      0.2014
    187  C          9.4370  -24.3640  -17.3720 C.2   222  GLY222      0.2639
    188  O         10.3070  -23.5240  -17.1460 O.2   222  GLY222     -0.2714
    189  N          8.1810  -24.2400  -16.9360 N.am  223  CYS223     -0.1967
    190  CA         7.7360  -23.1120  -16.1040 C.3   223  CYS223      0.1712
    191  C          6.7600  -23.6560  -15.0800 C.2   223  CYS223      0.2296
    192  O          5.8380  -24.4070  -15.4290 O.2   223  CYS223     -0.2864
    193  CB         6.9560  -22.0930  -16.9250 C.3   223  CYS223      0.0983
    194  SG         7.9080  -21.5220  -18.3600 S.3   223  CYS223     -0.0798
    195  N         12.5280  -24.8660   -9.9250 N.3   229  TYR229     -0.1227
    196  CA        12.5400  -23.4730   -9.4510 C.3   229  TYR229      0.1736
    197  C         13.0450  -22.5630  -10.5640 C.2   229  TYR229      0.2596
    198  O         13.7780  -23.0090  -11.4300 O.2   229  TYR229     -0.2718
    199  CB        13.4560  -23.3300   -8.2090 C.3   229  TYR229      0.0548
    200  CG        12.9270  -24.2270   -7.0940 C.ar  229  TYR229     -0.0200
    201  CD1       11.9220  -23.7700   -6.1940 C.ar  229  TYR229     -0.0009
    202  CD2       13.3170  -25.5530   -7.0080 C.ar  229  TYR229     -0.0009
    203  CE1       11.3570  -24.6150   -5.2220 C.ar  229  TYR229      0.0417
    204  CE2       12.7670  -26.3860   -6.0480 C.ar  229  TYR229      0.0417
    205  CZ        11.7790  -25.9150   -5.1630 C.ar  229  TYR229      0.1957
    206  OH        11.2320  -26.7810   -4.2360 O.3   229  TYR229     -0.2866
    207  N         12.6990  -21.2810  -10.5060 N.am  230  GLY230     -0.1942
    208  CA        13.2540  -20.3450  -11.4690 C.3   230  GLY230      0.2014
    209  C         14.6280  -19.9690  -11.0100 C.2   230  GLY230      0.2639
    210  O         14.8790  -19.8020   -9.7750 O.2   230  GLY230     -0.2714
    211  N         15.5410  -19.7910  -11.9590 N.am  231  PHE231     -0.1959
    212  CA        16.8690  -19.3560  -11.5770 C.3   231  PHE231      0.1771
    213  C         17.1230  -17.9200  -12.0510 C.2   231  PHE231      0.2619
    214  O         16.6330  -17.5270  -13.1480 O.2   231  PHE231     -0.2715
    215  CB        17.9160  -20.3050  -12.1350 C.3   231  PHE231      0.0574
    216  CG        18.0180  -21.5740  -11.3370 C.ar  231  PHE231     -0.0200
    217  CD1       17.1130  -22.5900  -11.5300 C.ar  231  PHE231     -0.0042
    218  CD2       18.9990  -21.7150  -10.3490 C.ar  231  PHE231     -0.0042
    219  CE1       17.2000  -23.7790  -10.7740 C.ar  231  PHE231     -0.0003
    220  CE2       19.1140  -22.9120   -9.6040 C.ar  231  PHE231     -0.0003
    221  CZ        18.1940  -23.9280   -9.8090 C.ar  231  PHE231     -0.0000
    222  N         17.8770  -17.1880  -11.2390 N.am  232  TYR232     -0.1974
    223  CA        18.0330  -15.7050  -11.3840 C.3   232  TYR232      0.1639
    224  C         19.5050  -15.3570  -11.3050 C.2   232  TYR232      0.2290
    225  O         20.2360  -15.9460  -10.5040 O.2   232  TYR232     -0.2864
    226  CB        17.2680  -14.9680  -10.2660 C.3   232  TYR232      0.0560
    227  CG        15.7640  -15.2530  -10.3670 C.ar  232  TYR232     -0.0198
    228  CD1       15.2190  -16.4330   -9.8080 C.ar  232  TYR232     -0.0009
    229  CD2       14.9240  -14.4000  -11.1040 C.ar  232  TYR232     -0.0009
    230  CE1       13.8400  -16.7550   -9.9760 C.ar  232  TYR232      0.0417
    231  CE2       13.5470  -14.6720  -11.2280 C.ar  232  TYR232      0.0417
    232  CZ        13.0300  -15.8600  -10.6740 C.ar  232  TYR232      0.1957
    233  OH        11.7030  -16.1290  -10.8510 O.3   232  TYR232     -0.2866
@<TRIPOS>BOND
     1    40    39    2
     2    39    38    1
     3    51    52    1
     4    52    53    1
     5    52    55    1
     6    53    54    2
     7    38    37    1
     8    38    41    1
     9    55    56    1
    10    41    42    1
    11    56    57    1
    12     8     6    1
    13    28    27    2
    14    43    42   ar
    15    43    45   ar
    16    42    44   ar
    17     7     6    1
    18     6     5    1
    19    27    26    1
    20    57    58    1
    21    58    59    1
    22    45    46   ar
    23    44    47   ar
    24    44    46   ar
    25    73    71   ar
    26    73    72   ar
    27    25    26    1
    28    47    49   ar
    29    46    48   ar
    30     5     2    1
    31    26    29    1
    32    71    69   ar
    33    72    70   ar
    34     1     2    1
    35     2     3    1
    36    29    30    1
    37    32    34   ar
    38    32    30   ar
    39   133   132   ar
    40    49    50   ar
    41    69    67   ar
    42    69    68   ar
    43    48    50   ar
    44    34    35   ar
    45    70    67   ar
    46    30    31   ar
    47    67    65   ar
    48    68    66   ar
    49     3     4    2
    50     3     9   am
    51   132   134   ar
    52   132   131    1
    53    35    36    1
    54    35    33   ar
    55    31    33   ar
    56    18    17    2
    57    65    66   ar
    58    65    64    1
    59     9    10    1
    60   131   130    1
    61    17    16    1
    62    64    61    1
    63    14    13    1
    64    10    13    1
    65    10    11    1
    66    63    62    2
    67    16    19    1
    68    16    15    1
    69    12    11    2
    70    62    61    1
    71   130   127    1
    72    61    60    1
    73   136   135    1
    74   136   137    1
    75    19    20    1
    76    22    20   ar
    77    22    24   ar
    78   135   128   am
    79   128   129    2
    80   128   127    1
    81    20    21   ar
    82   127   126    1
    83   138   137    2
    84    24    23   ar
    85    74    75    1
    86    98    96    1
    87   144   143    1
    88    21    23   ar
    89   126   122   am
    90   143   140    1
    91   142   141    2
    92    75    76    1
    93    75    78    1
    94    97    96    1
    95    96    95    1
    96   139   140    1
    97    77    76    2
    98   122   123    2
    99   122   121    1
   100   141   140    1
   101    76    83   am
   102   125   124    1
   103   125   194    1
   104    78    79    1
   105    83    84    1
   106   124   121    1
   107   194   193    1
   108    91    92    1
   109    91    85   am
   110    95    92    1
   111    92    93    1
   112   121   120    1
   113   155   154    2
   114   186   185    1
   115   186   187    1
   116    79    80    1
   117   185   178   am
   118   175   174    2
   119    84    85    1
   120    84    87    1
   121    85    86    2
   122   187   188    2
   123   187   189   am
   124   162   159    1
   125   162   163    1
   126   120   117   am
   127    93    94    2
   128   189   190    1
   129   193   190    1
   130   154   153    1
   131   154   158   am
   132   178   177    1
   133   178   179    2
   134   148   147    2
   135    80    81   ar
   136    80    82   ar
   137   177   180    1
   138   177   176    1
   139   159   158    1
   140   159   160    1
   141   174   176   am
   142   174   173    1
   143   106   104    1
   144   172   160   am
   145   172   173    1
   146    89    88    2
   147   180   181    1
   148   153   152    1
   149   153   156    1
   150   181   182    1
   151   157   156    1
   152   184   182   ar
   153    87    88    1
   154   150   149    1
   155   190   191    1
   156   104   103    1
   157   163   164   ar
   158   163   165   ar
   159   160   161    2
   160   147   152   am
   161   147   146    1
   162   117   118    2
   163   117   116    1
   164    88    90   am
   165   182   183   ar
   166   149   146    1
   167   149   151    1
   168   164   166   ar
   169   192   191    2
   170   168   165   ar
   171   168   170   ar
   172   165   167   ar
   173   105   103    1
   174   146   145    1
   175   103   100    1
   176   119   116    1
   177   116   115    1
   178   170   171   ar
   179   166   167   ar
   180   167   169   ar
   181   100    99    1
   182   100   101    1
   183   110   109    2
   184   171   169   ar
   185   115   109   am
   186   114   112   ar
   187   214   213    2
   188   109   108    1
   189   101   102    2
   190   112   111    1
   191   112   113   ar
   192   111   108    1
   193   215   212    1
   194   215   216    1
   195   213   212    1
   196   213   222   am
   197   211   212    1
   198   211   209   am
   199   108   107    1
   200   217   216   ar
   201   217   219   ar
   202   208   209    1
   203   208   207    1
   204   198   197    2
   205   223   224    1
   206   223   222    1
   207   223   226    1
   208   216   218   ar
   209   224   225    2
   210   231   229   ar
   211   231   232   ar
   212   229   227   ar
   213   209   210    2
   214   233   232    1
   215   219   221   ar
   216   232   230   ar
   217   197   207   am
   218   197   196    1
   219   227   226    1
   220   227   228   ar
   221   218   220   ar
   222   230   228   ar
   223   195   196    1
   224   221   220   ar
   225   196   199    1
   226   199   200    1
   227   200   202   ar
   228   200   201   ar
   229   202   204   ar
   230   201   203   ar
   231   204   205   ar
   232   203   205   ar
   233   205   206    1
