@<TRIPOS>MOLECULE
tmp/3u8wA00.pdb
 188 175 0 0 0
SMALL
GASTEIGER

@<TRIPOS>ATOM
      1  N         -1.2510  -31.8840  -40.0350 N.3    27  VAL27      -0.1245
      2  CA        -2.2510  -31.9260  -38.9620 C.3    27  VAL27       0.1561
      3  C         -2.5640  -30.5430  -38.3830 C.2    27  VAL27       0.2260
      4  O         -2.9810  -30.4190  -37.2260 O.2    27  VAL27      -0.2867
      5  CB        -1.8690  -32.9210  -37.8230 C.3    27  VAL27       0.0252
      6  CG1       -2.1120  -34.3550  -38.2610 C.3    27  VAL27       0.0019
      7  CG2       -0.4260  -32.7220  -37.3630 C.3    27  VAL27       0.0019
      8  N         -1.6690  -26.4090  -37.4800 N.3    29  SER29      -0.1202
      9  CA        -0.6610  -25.4170  -37.1040 C.3    29  SER29       0.2020
     10  C         -0.2310  -25.5590  -35.6470 C.2    29  SER29       0.2619
     11  O         -1.0330  -25.9150  -34.7790 O.2    29  SER29      -0.2717
     12  CB        -1.1870  -23.9940  -37.3530 C.3    29  SER29       0.2103
     13  OG        -1.2660  -23.7040  -38.7400 O.3    29  SER29      -0.2182
     14  N          1.0450  -25.2800  -35.3950 N.am   30  GLY30      -0.1942
     15  CA         1.5890  -25.2600  -34.0410 C.3    30  GLY30       0.2014
     16  C          2.1750  -23.9020  -33.7090 C.2    30  GLY30       0.2638
     17  O          2.0420  -22.9520  -34.4880 O.2    30  GLY30      -0.2714
     18  N          2.8290  -23.8120  -32.5530 N.am   31  ALA31      -0.1977
     19  CA         3.4520  -22.5680  -32.1090 C.3    31  ALA31       0.1597
     20  C          4.6140  -22.1740  -33.0240 C.2    31  ALA31       0.2287
     21  O          5.7230  -22.7110  -32.9180 O.2    31  ALA31      -0.2864
     22  CB         3.9050  -22.6760  -30.6530 C.3    31  ALA31       0.0319
     23  N          2.7340  -28.3130  -38.6740 N.3    35  VAL35      -0.1245
     24  CA         2.9700  -29.5900  -38.0160 C.3    35  VAL35       0.1561
     25  C          2.4600  -30.7500  -38.8710 C.2    35  VAL35       0.2260
     26  O          1.3570  -30.6890  -39.4200 O.2    35  VAL35      -0.2867
     27  CB         2.3100  -29.6260  -36.6060 C.3    35  VAL35       0.0252
     28  CG1        2.5720  -30.9520  -35.9040 C.3    35  VAL35       0.0019
     29  CG2        2.8140  -28.4610  -35.7420 C.3    35  VAL35       0.0019
     30  N          4.5700  -36.0490  -33.7840 N.3    48  ALA48      -0.1245
     31  CA         4.2910  -34.7680  -34.4070 C.3    48  ALA48       0.1562
     32  C          5.6120  -34.1010  -34.7630 C.2    48  ALA48       0.2260
     33  O          6.4930  -33.9540  -33.9110 O.2    48  ALA48      -0.2867
     34  CB         3.4790  -33.8950  -33.4730 C.3    48  ALA48       0.0290
     35  N          7.1580  -30.6440  -36.1650 N.3    50  LYS50      -0.1245
     36  CA         6.9260  -29.2260  -36.4320 C.3    50  LYS50       0.1561
     37  C          8.1190  -28.6190  -37.1620 C.2    50  LYS50       0.2260
     38  O          9.2460  -28.6500  -36.6620 O.2    50  LYS50      -0.2867
     39  CB         6.6620  -28.4510  -35.1330 C.3    50  LYS50       0.0271
     40  CG         6.3470  -26.9660  -35.3630 C.3    50  LYS50       0.0035
     41  CD         6.6230  -26.1090  -34.1380 C.3    50  LYS50       0.0206
     42  CE         5.4550  -26.0750  -33.1850 C.3    50  LYS50       0.1093
     43  NZ         5.7820  -25.2890  -31.9580 N.3    50  LYS50      -0.1314
     44  N         12.0950  -21.9800  -27.4960 N.3    68  GLU68      -0.1245
     45  CA        11.2690  -23.1890  -27.6160 C.3    68  GLU68       0.1567
     46  C         12.1110  -24.4630  -27.5300 C.2    68  GLU68       0.2260
     47  O         11.7350  -25.4080  -26.8440 O.2    68  GLU68      -0.2867
     48  CB        10.4030  -23.1930  -28.8840 C.3    68  GLU68       0.0388
     49  CG         9.5240  -24.4550  -28.9670 C.3    68  GLU68       0.1160
     50  CD         8.4250  -24.4130  -30.0160 C.2    68  GLU68       0.3649
     51  OE1        8.4620  -23.5690  -30.9330 O.co2  68  GLU68      -0.2457
     52  OE2        7.5100  -25.2540  -29.9160 O.co2  68  GLU68      -0.2457
     53  N         13.3630  -24.9920  -23.8950 N.3    71  LEU71      -0.1231
     54  CA        12.1970  -25.4370  -23.1270 C.3    71  LEU71       0.1693
     55  C         11.8880  -26.9170  -23.3450 C.2    71  LEU71       0.2591
     56  O         11.7550  -27.6770  -22.3870 O.2    71  LEU71      -0.2718
     57  CB        10.9680  -24.5880  -23.4940 C.3    71  LEU71       0.0284
     58  CG        10.3480  -23.5310  -22.5620 C.3    71  LEU71       0.0019
     59  CD1       11.1090  -23.2620  -21.2680 C.3    71  LEU71       0.0001
     60  CD2       10.0860  -22.2450  -23.3260 C.3    71  LEU71       0.0001
     61  N         11.7820  -27.3140  -24.6120 N.am   72  LEU72      -0.1980
     62  CA        11.4770  -28.6980  -24.9770 C.3    72  LEU72       0.1596
     63  C         12.5670  -29.6800  -24.5530 C.2    72  LEU72       0.2287
     64  O         12.2650  -30.7820  -24.0930 O.2    72  LEU72      -0.2864
     65  CB        11.2080  -28.8120  -26.4810 C.3    72  LEU72       0.0297
     66  CG         9.8770  -28.2420  -26.9770 C.3    72  LEU72       0.0022
     67  CD1        9.8600  -28.1630  -28.4930 C.3    72  LEU72       0.0001
     68  CD2        8.7120  -29.0820  -26.4660 C.3    72  LEU72       0.0001
     69  N          4.8710  -32.1540  -22.5640 N.3    81  ILE81      -0.1245
     70  CA         5.4410  -32.3660  -23.8890 C.3    81  ILE81       0.1561
     71  C          6.9680  -32.1790  -23.8450 C.2    81  ILE81       0.2260
     72  O          7.4790  -31.2580  -23.1920 O.2    81  ILE81      -0.2867
     73  CB         4.7350  -31.5220  -24.9910 C.3    81  ILE81       0.0252
     74  CG1        4.8560  -32.2010  -26.3650 C.3    81  ILE81       0.0019
     75  CG2        5.2230  -30.0730  -25.0120 C.3    81  ILE81       0.0019
     76  CD1        4.0020  -33.4780  -26.5180 C.3    81  ILE81       0.0001
     77  N         11.1890  -29.8750  -35.0220 N.3   101  LEU101     -0.1245
     78  CA        10.9900  -30.4040  -33.6720 C.3   101  LEU101      0.1561
     79  C         10.0710  -31.6200  -33.7140 C.2   101  LEU101      0.2260
     80  O          9.0240  -31.5970  -34.3660 O.2   101  LEU101     -0.2867
     81  CB        10.3860  -29.3280  -32.7500 C.3   101  LEU101      0.0270
     82  CG        11.1300  -27.9850  -32.6690 C.3   101  LEU101      0.0019
     83  CD1       10.2170  -26.8900  -32.1620 C.3   101  LEU101      0.0001
     84  CD2       12.3870  -28.0960  -31.8010 C.3   101  LEU101      0.0001
     85  N          7.9280  -34.3770  -31.3440 N.3   103  THR103     -0.1203
     86  CA         7.3390  -34.7000  -30.0430 C.3   103  THR103      0.1994
     87  C          6.4110  -35.9090  -30.1770 C.2   103  THR103      0.2618
     88  O          6.1170  -36.3470  -31.2910 O.2   103  THR103     -0.2717
     89  CB         6.5150  -33.5090  -29.4720 C.3   103  THR103      0.1784
     90  OG1        5.3470  -33.2890  -30.2780 O.3   103  THR103     -0.2211
     91  CG2        7.3510  -32.2280  -29.4140 C.3   103  THR103      0.0376
     92  N          5.9530  -36.4420  -29.0470 N.am  104  HIS104     -0.1961
     93  CA         4.8340  -37.3900  -29.0350 C.3   104  HIS104      0.1787
     94  C          3.6120  -36.7730  -29.7170 C.2   104  HIS104      0.2620
     95  O          3.3440  -35.5810  -29.5610 O.2   104  HIS104     -0.2715
     96  CB         4.4510  -37.7620  -27.6000 C.3   104  HIS104      0.0785
     97  CG         5.3960  -38.7160  -26.9410 C.ar  104  HIS104      0.0821
     98  ND1        5.3810  -40.0710  -27.1940 N.ar  104  HIS104     -0.2267
     99  CD2        6.3700  -38.5160  -26.0210 C.ar  104  HIS104      0.1154
    100  CE1        6.3150  -40.6620  -26.4690 C.ar  104  HIS104      0.1986
    101  NE2        6.9290  -39.7410  -25.7490 N.ar  104  HIS104     -0.2212
    102  N          2.8870  -37.5790  -30.4810 N.am  105  LEU105     -0.1963
    103  CA         1.6130  -37.1440  -31.0430 C.3   105  LEU105      0.1728
    104  C          0.4640  -37.7240  -30.2320 C.2   105  LEU105      0.2616
    105  O          0.1450  -38.9140  -30.3410 O.2   105  LEU105     -0.2715
    106  CB         1.4780  -37.5470  -32.5170 C.3   105  LEU105      0.0311
    107  CG         0.1500  -37.2390  -33.2210 C.3   105  LEU105      0.0022
    108  CD1       -0.0170  -35.7500  -33.4390 C.3   105  LEU105      0.0001
    109  CD2        0.0340  -37.9910  -34.5460 C.3   105  LEU105      0.0001
    110  N         -0.1360  -36.8760  -29.4020 N.am  106  MET106     -0.1963
    111  CA        -1.3890  -37.2040  -28.7460 C.3   106  MET106      0.1736
    112  C         -2.4780  -36.8720  -29.7560 C.2   106  MET106      0.2617
    113  O         -2.4300  -35.8220  -30.4000 O.2   106  MET106     -0.2715
    114  CB        -1.5810  -36.3930  -27.4560 C.3   106  MET106      0.0427
    115  CG        -0.3590  -36.3380  -26.5290 C.3   106  MET106      0.0599
    116  SD         0.0940  -37.8960  -25.7440 S.3   106  MET106     -0.1393
    117  CE        -1.0680  -37.9640  -24.3840 C.3   106  MET106      0.0692
    118  N         -3.4480  -37.7650  -29.9020 N.am  107  GLY107     -0.1940
    119  CA        -4.4970  -37.6190  -30.9170 C.3   107  GLY107      0.2014
    120  C         -5.2050  -36.2780  -31.0340 C.2   107  GLY107      0.2639
    121  O         -5.5120  -35.8320  -32.1430 O.2   107  GLY107     -0.2714
    122  N         -5.4700  -35.6360  -29.8940 N.am  108  ALA108     -0.1963
    123  CA        -6.3210  -34.4480  -29.8540 C.3   108  ALA108      0.1728
    124  C         -6.0030  -33.5270  -28.6740 C.2   108  ALA108      0.2616
    125  O         -5.1070  -33.8100  -27.8770 O.2   108  ALA108     -0.2715
    126  CB        -7.7850  -34.8740  -29.8060 C.3   108  ALA108      0.0334
    127  N         -6.7400  -32.4220  -28.5830 N.am  109  ASP109     -0.1971
    128  CA        -6.7080  -31.5620  -27.4030 C.3   109  ASP109      0.1709
    129  C         -7.9470  -31.7890  -26.5250 C.2   109  ASP109      0.2293
    130  O         -8.8650  -32.5230  -26.9140 O.2   109  ASP109     -0.2864
    131  CB        -6.5270  -30.0780  -27.7850 C.3   109  ASP109      0.1436
    132  CG        -7.7140  -29.4980  -28.5470 C.2   109  ASP109      0.3671
    133  OD1       -8.8580  -29.9450  -28.3390 O.co2 109  ASP109     -0.2456
    134  OD2       -7.5040  -28.5670  -29.3520 O.co2 109  ASP109     -0.2456
    135  N        -11.4030  -31.1710  -28.0340 N.3   112  ASN112     -0.1240
    136  CA       -11.8690  -32.2380  -28.9150 C.3   112  ASN112      0.1653
    137  C        -12.5580  -33.3760  -28.1750 C.2   112  ASN112      0.2266
    138  O        -13.5970  -33.8720  -28.6220 O.2   112  ASN112     -0.2867
    139  CB       -10.7150  -32.7990  -29.7550 C.3   112  ASN112      0.1155
    140  CG       -10.2290  -31.8290  -30.8180 C.2   112  ASN112      0.2627
    141  OD1       -9.0190  -31.6350  -30.9860 O.2   112  ASN112     -0.2716
    142  ND2      -11.1630  -31.2220  -31.5490 N.am  112  ASN112     -0.0877
    143  N         -6.9410  -26.0850  -25.1420 N.3   151  SER151     -0.1217
    144  CA        -6.3010  -26.2670  -26.4530 C.3   151  SER151      0.1889
    145  C         -4.8050  -26.6110  -26.3790 C.2   151  SER151      0.2288
    146  O         -4.2530  -27.1620  -27.3260 O.2   151  SER151     -0.2866
    147  CB        -6.5430  -25.0690  -27.3770 C.3   151  SER151      0.2089
    148  OG        -6.0430  -23.8750  -26.8190 O.3   151  SER151     -0.2183
    149  N         -2.8970  -31.8520  -24.5020 N.3   154  ALA154     -0.1245
    150  CA        -2.9630  -32.8930  -25.5130 C.3   154  ALA154      0.1562
    151  C         -3.3680  -34.2200  -24.8910 C.2   154  ALA154      0.2260
    152  O         -2.7460  -34.6860  -23.9330 O.2   154  ALA154     -0.2867
    153  CB        -1.6230  -33.0110  -26.2330 C.3   154  ALA154      0.0290
    154  N          1.1410  -28.7780  -23.2230 N.3   164  LEU164     -0.1231
    155  CA         1.8730  -28.1210  -24.3070 C.3   164  LEU164      0.1693
    156  C          2.0600  -26.6390  -24.0060 C.2   164  LEU164      0.2592
    157  O          1.4140  -26.0980  -23.1070 O.2   164  LEU164     -0.2718
    158  CB         1.1100  -28.2500  -25.6360 C.3   164  LEU164      0.0284
    159  CG         0.4860  -29.5790  -26.0850 C.3   164  LEU164      0.0019
    160  CD1       -0.4570  -29.3520  -27.2620 C.3   164  LEU164      0.0001
    161  CD2        1.5490  -30.5800  -26.4600 C.3   164  LEU164      0.0001
    162  N          2.9520  -25.9930  -24.7580 N.am  165  ASP165     -0.1960
    163  CA         2.9550  -24.5330  -24.9030 C.3   165  ASP165      0.1840
    164  C          3.3730  -23.7400  -23.6470 C.2   165  ASP165      0.2622
    165  O          3.0720  -22.5530  -23.5270 O.2   165  ASP165     -0.2715
    166  CB         1.5720  -24.0740  -25.4020 C.3   165  ASP165      0.1450
    167  CG         1.5920  -22.6900  -26.0040 C.2   165  ASP165      0.3671
    168  OD1        0.6230  -21.9390  -25.7730 O.co2 165  ASP165     -0.2456
    169  OD2        2.5660  -22.3510  -26.7080 O.co2 165  ASP165     -0.2456
    170  N          4.0680  -24.3950  -22.7240 N.am  166  PHE166     -0.1974
    171  CA         4.5830  -23.7340  -21.5200 C.3   166  PHE166      0.1639
    172  C          5.7010  -22.7480  -21.8500 C.2   166  PHE166      0.2290
    173  O          6.4660  -22.9630  -22.7910 O.2   166  PHE166     -0.2864
    174  CB         5.0940  -24.7710  -20.5070 C.3   166  PHE166      0.0560
    175  CG         5.8700  -25.8970  -21.1310 C.ar  166  PHE166     -0.0200
    176  CD1        7.2440  -25.7860  -21.3430 C.ar  166  PHE166     -0.0042
    177  CD2        5.2260  -27.0680  -21.5170 C.ar  166  PHE166     -0.0042
    178  CE1        7.9590  -26.8210  -21.9270 C.ar  166  PHE166     -0.0003
    179  CE2        5.9350  -28.1070  -22.1060 C.ar  166  PHE166     -0.0003
    180  CZ         7.3060  -27.9840  -22.3100 C.ar  166  PHE166     -0.0000
    181  N          6.1680  -19.8330  -23.2130 N.3   168  LEU168     -0.1245
    182  CA         6.2090  -18.9990  -24.3890 C.3   168  LEU168      0.1561
    183  C          5.4220  -17.7050  -24.1900 C.2   168  LEU168      0.2260
    184  O          5.9150  -16.6360  -24.4100 O.2   168  LEU168     -0.2867
    185  CB         5.6270  -19.7620  -25.5620 C.3   168  LEU168      0.0270
    186  CG         6.4880  -20.5750  -26.4880 C.3   168  LEU168      0.0019
    187  CD1        7.7860  -21.0050  -25.9620 C.3   168  LEU168      0.0001
    188  CD2        5.7460  -21.6270  -27.1170 C.3   168  LEU168      0.0001
@<TRIPOS>BOND
     1     1     2    1
     2    26    25    2
     3     2     3    1
     4     2     5    1
     5    25    24    1
     6    13    12    1
     7    23    24    1
     8     3     4    2
     9     6     5    1
    10    24    27    1
    11     5     7    1
    12     8     9    1
    13    12     9    1
    14    37    38    2
    15    37    36    1
    16     9    10    1
    17    27    28    1
    18    27    29    1
    19    36    35    1
    20    36    39    1
    21    10    14   am
    22    10    11    2
    23    14    15    1
    24    40    39    1
    25    40    41    1
    26    77    78    1
    27    32    31    1
    28    32    33    2
    29   109   107    1
    30    17    16    2
    31    31    30    1
    32    31    34    1
    33    80    79    2
    34    41    42    1
    35    15    16    1
    36    79    78    1
    37    16    18   am
    38    78    81    1
    39   108   107    1
    40   107   106    1
    41    42    43    1
    42    20    21    2
    43    20    19    1
    44    81    82    1
    45    82    83    1
    46    82    84    1
    47    18    19    1
    48   106   103    1
    49   121   120    2
    50    19    22    1
    51   142   140   am
    52    85    86    1
    53    88    87    2
    54   103   102    1
    55   103   104    1
    56   120   119    1
    57   120   122   am
    58   141   140    2
    59    51    50   ar
    60   119   118    1
    61   140   139    1
    62   102    94   am
    63   113   112    2
    64   105   104    2
    65    90    89    1
    66   104   110   am
    67    87    86    1
    68    87    92   am
    69    86    89    1
    70    50    52   ar
    71    50    49    1
    72   118   112   am
    73   122   123    1
    74   123   126    1
    75   123   124    1
    76   112   111    1
    77   139   136    1
    78    94    95    2
    79    94    93    1
    80    89    91    1
    81   110   111    1
    82   134   132   ar
    83    92    93    1
    84    93    96    1
    85    49    48    1
    86   136   137    1
    87   136   135    1
    88    48    45    1
    89   111   114    1
    90   124   127   am
    91   124   125    2
    92   138   137    2
    93   127   128    1
    94   132   133   ar
    95   132   131    1
    96    67    66    1
    97   131   128    1
    98    45    46    1
    99    45    44    1
   100    96    97    1
   101    46    47    2
   102   114   115    1
   103   128   129    1
   104   147   148    1
   105   147   144    1
   106   146   145    2
   107   160   159    1
   108    98    97   ar
   109    98   100   ar
   110   188   186    1
   111    66    65    1
   112    66    68    1
   113    97    99   ar
   114   130   129    2
   115   169   167   ar
   116   115   116    1
   117    76    74    1
   118   186   187    1
   119   186   185    1
   120    65    62    1
   121   100   101   ar
   122   161   159    1
   123   144   145    1
   124   144   143    1
   125    74    73    1
   126   153   150    1
   127   159   158    1
   128    99   101   ar
   129   167   168   ar
   130   167   166    1
   131   116   117    1
   132   158   155    1
   133   185   182    1
   134   150   151    1
   135   150   149    1
   136   166   163    1
   137    75    73    1
   138    73    70    1
   139    62    61    1
   140    62    63    1
   141   163   162    1
   142   163   164    1
   143   151   152    2
   144   162   156   am
   145    61    55   am
   146    63    64    2
   147   184   183    2
   148   182   183    1
   149   182   181    1
   150   155   156    1
   151   155   154    1
   152   156   157    2
   153    53    54    1
   154    70    71    1
   155    70    69    1
   156    71    72    2
   157   164   165    2
   158   164   170   am
   159    57    54    1
   160    57    58    1
   161    55    54    1
   162    55    56    2
   163    60    58    1
   164   173   172    2
   165   170   171    1
   166    58    59    1
   167   180   179   ar
   168   180   178   ar
   169   179   177   ar
   170   178   176   ar
   171   172   171    1
   172   171   174    1
   173   177   175   ar
   174   176   175   ar
   175   175   174    1
