@<TRIPOS>MOLECULE
tmp/3u90A00.pdb
 87 80 0 0 0
SMALL
GASTEIGER

@<TRIPOS>ATOM
      1  N         35.4440    6.9230   37.6560 N.3    23  LEU23      -0.1245
      2  CA        35.5380    5.4650   37.6290 C.3    23  LEU23       0.1561
      3  C         35.2990    4.8730   39.0190 C.2    23  LEU23       0.2260
      4  O         34.6590    3.8380   39.1430 O.2    23  LEU23      -0.2867
      5  CB        36.8840    5.0080   37.0580 C.3    23  LEU23       0.0270
      6  CG        37.1090    5.3430   35.5730 C.3    23  LEU23       0.0019
      7  CD1       38.5230    4.9700   35.1530 C.3    23  LEU23       0.0001
      8  CD2       36.0720    4.6440   34.6860 C.3    23  LEU23       0.0001
      9  N         31.6410    4.9190   39.4160 N.3    26  SER26      -0.1202
     10  CA        31.0490    3.8380   38.6310 C.3    26  SER26       0.2020
     11  C         31.1770    2.5020   39.3660 C.2    26  SER26       0.2618
     12  O         30.2360    1.6980   39.3880 O.2    26  SER26      -0.2717
     13  CB        31.7060    3.7580   37.2550 C.3    26  SER26       0.2103
     14  OG        31.0870    2.7640   36.4640 O.3    26  SER26      -0.2182
     15  N         32.3420    2.2750   39.9700 N.am   27  TYR27      -0.1975
     16  CA        32.6080    1.0420   40.7270 C.3    27  TYR27       0.1639
     17  C         31.6750    0.9640   41.9320 C.2    27  TYR27       0.2290
     18  O         31.1340   -0.0880   42.2490 O.2    27  TYR27      -0.2864
     19  CB        34.0690    1.0470   41.2160 C.3    27  TYR27       0.0560
     20  CG        34.6950   -0.3130   41.5200 C.ar   27  TYR27      -0.0198
     21  CD1       34.0680   -1.5100   41.1710 C.ar   27  TYR27      -0.0009
     22  CD2       35.9220   -0.3880   42.1660 C.ar   27  TYR27      -0.0009
     23  CE1       34.6810   -2.7630   41.4570 C.ar   27  TYR27       0.0417
     24  CE2       36.5270   -1.6120   42.4530 C.ar   27  TYR27       0.0417
     25  CZ        35.9070   -2.7930   42.1020 C.ar   27  TYR27       0.1957
     26  OH        36.5430   -3.9900   42.4060 O.3    27  TYR27      -0.2866
     27  N         28.2680   -0.0220   40.7550 N.3    30  LEU30      -0.1245
     28  CA        28.2350   -1.4340   40.3580 C.3    30  LEU30       0.1561
     29  C         27.9900   -2.2710   41.6150 C.2    30  LEU30       0.2260
     30  O         27.1800   -3.2060   41.6160 O.2    30  LEU30      -0.2867
     31  CB        29.5630   -1.8500   39.7140 C.3    30  LEU30       0.0270
     32  CG        29.6450   -3.3120   39.2550 C.3    30  LEU30       0.0019
     33  CD1       28.6730   -3.5390   38.0980 C.3    30  LEU30       0.0001
     34  CD2       31.0730   -3.6960   38.8400 C.3    30  LEU30       0.0001
     35  N         22.5550    0.3370   38.7870 N.3    51  ARG51      -0.1245
     36  CA        23.2910   -0.1370   37.6150 C.3    51  ARG51       0.1563
     37  C         23.3060    0.9110   36.4940 C.2    51  ARG51       0.2260
     38  O         24.3140    1.0890   35.8210 O.2    51  ARG51      -0.2867
     39  CB        22.7690   -1.4920   37.1240 C.3    51  ARG51       0.0307
     40  CG        23.0820   -2.6210   38.1100 C.3    51  ARG51       0.0489
     41  CD        22.7470   -3.9880   37.5440 C.3    51  ARG51       0.2205
     42  NE        23.6870   -4.4100   36.5110 N.pl3  51  ARG51      -0.0865
     43  CZ        23.5340   -5.5090   35.7790 C.cat  51  ARG51       0.5346
     44  NH1       22.4780   -6.2940   35.9740 N.pl3  51  ARG51       0.1354
     45  NH2       24.4330   -5.8230   34.8520 N.pl3  51  ARG51       0.1354
     46  N         25.9080    3.4610   37.3860 N.3    54  ALA54      -0.1231
     47  CA        27.2530    2.9520   37.1350 C.3    54  ALA54       0.1694
     48  C         27.6370    3.2530   35.6900 C.2    54  ALA54       0.2591
     49  O         28.7440    3.7000   35.3970 O.2    54  ALA54      -0.2718
     50  CB        27.3200    1.4440   37.4020 C.3    54  ALA54       0.0304
     51  N         26.6930    3.0240   34.7900 N.am   55  GLU55      -0.1979
     52  CA        26.9230    3.2550   33.3760 C.3    55  GLU55       0.1602
     53  C         27.1230    4.7400   33.0770 C.2    55  GLU55       0.2287
     54  O         28.0440    5.1060   32.3490 O.2    55  GLU55      -0.2864
     55  CB        25.7650    2.6790   32.5520 C.3    55  GLU55       0.0415
     56  CG        25.6900    3.1960   31.1370 C.3    55  GLU55       0.1163
     57  CD        24.6070    2.4960   30.3340 C.2    55  GLU55       0.3649
     58  OE1       24.0920    1.4550   30.8090 O.co2  55  GLU55      -0.2457
     59  OE2       24.2760    2.9880   29.2330 O.co2  55  GLU55      -0.2457
     60  N         30.6160    5.8100   34.1930 N.3    58  ARG58      -0.1245
     61  CA        31.6470    5.3200   33.2900 C.3    58  ARG58       0.1563
     62  C         31.7010    6.1800   32.0370 C.2    58  ARG58       0.2260
     63  O         32.7800    6.4760   31.5130 O.2    58  ARG58      -0.2867
     64  CB        31.3990    3.8670   32.9020 C.3    58  ARG58       0.0307
     65  CG        32.4760    3.3410   31.9800 C.3    58  ARG58       0.0489
     66  CD        32.1750    1.9530   31.4900 C.3    58  ARG58       0.2205
     67  NE        30.7860    1.8120   31.0730 N.pl3  58  ARG58      -0.0865
     68  CZ        30.2870    2.2850   29.9350 C.cat  58  ARG58       0.5346
     69  NH1       31.0570    2.9600   29.0850 N.pl3  58  ARG58       0.1354
     70  NH2       29.0050    2.0960   29.6520 N.pl3  58  ARG58       0.1354
     71  N         34.6970    8.4550   30.2500 N.3    62  GLU62      -0.1245
     72  CA        35.0810    8.3900   28.8430 C.3    62  GLU62       0.1567
     73  C         35.0220    9.7560   28.1670 C.2    62  GLU62       0.2260
     74  O         35.8570   10.0710   27.3340 O.2    62  GLU62      -0.2867
     75  CB        34.2310    7.3680   28.0710 C.3    62  GLU62       0.0388
     76  CG        34.4550    5.9280   28.5320 C.3    62  GLU62       0.1160
     77  CD        33.6170    4.9210   27.7550 C.2    62  GLU62       0.3649
     78  OE1       33.4850    3.7760   28.2350 O.co2  62  GLU62      -0.2457
     79  OE2       33.0960    5.2690   26.6720 O.co2  62  GLU62      -0.2457
     80  N         42.2840    2.0640   41.1940 N.3    80  LEU80      -0.1245
     81  CA        40.9200    2.4000   41.5550 C.3    80  LEU80       0.1561
     82  C         40.5800    1.7520   42.8840 C.2    80  LEU80       0.2260
     83  O         40.5550    0.5190   43.0040 O.2    80  LEU80      -0.2867
     84  CB        39.9470    1.9080   40.4790 C.3    80  LEU80       0.0270
     85  CG        40.0000    2.6310   39.1310 C.3    80  LEU80       0.0019
     86  CD1       39.1090    1.9070   38.1250 C.3    80  LEU80       0.0001
     87  CD2       39.5670    4.0830   39.2850 C.3    80  LEU80       0.0001
@<TRIPOS>BOND
     1    79    77   ar
     2    74    73    2
     3    77    78   ar
     4    77    76    1
     5    75    76    1
     6    75    72    1
     7    73    72    1
     8    72    71    1
     9    69    68    1
    10    59    57   ar
    11    70    68    1
    12    68    67    2
    13    57    58   ar
    14    57    56    1
    15    67    66    1
    16    56    55    1
    17    66    65    1
    18    63    62    2
    19    65    64    1
    20    62    61    1
    21    54    53    2
    22    55    52    1
    23    64    61    1
    24    53    52    1
    25    61    60    1
    26    52    51    1
    27     8     6    1
    28    51    48   am
    29    45    43    1
    30     7     6    1
    31    49    48    2
    32     6     5    1
    33    48    47    1
    34    43    44    1
    35    43    42    2
    36    38    37    2
    37    14    13    1
    38    37    36    1
    39    42    41    1
    40     5     2    1
    41    39    36    1
    42    39    40    1
    43    47    46    1
    44    47    50    1
    45    13    10    1
    46    41    40    1
    47    36    35    1
    48     2     1    1
    49     2     3    1
    50    33    32    1
    51    86    85    1
    52    10    11    1
    53    10     9    1
    54    34    32    1
    55     3     4    2
    56    85    87    1
    57    85    84    1
    58    32    31    1
    59    11    12    2
    60    11    15   am
    61    31    28    1
    62    15    16    1
    63    28    27    1
    64    28    29    1
    65    84    81    1
    66    16    19    1
    67    16    17    1
    68    21    23   ar
    69    21    20   ar
    70    80    81    1
    71    19    20    1
    72    23    25   ar
    73    20    22   ar
    74    81    82    1
    75    29    30    2
    76    17    18    2
    77    25    26    1
    78    25    24   ar
    79    22    24   ar
    80    82    83    2
