@<TRIPOS>MOLECULE
tmp/3u96A00.pdb
 107 101 0 0 0
SMALL
GASTEIGER

@<TRIPOS>ATOM
      1  N        -13.2410    5.6180   -5.3600 N.3    43  PHE43      -0.1241
      2  CA       -14.3200    6.0240   -4.4610 C.3    43  PHE43       0.1605
      3  C        -14.3120    7.5270   -4.3180 C.2    43  PHE43       0.2264
      4  O        -13.2770    8.1370   -4.1260 O.2    43  PHE43      -0.2867
      5  CB       -14.2130    5.3610   -3.0730 C.3    43  PHE43       0.0534
      6  CG       -14.1930    3.8630   -3.1400 C.ar   43  PHE43      -0.0203
      7  CD1      -15.3820    3.1510   -3.2760 C.ar   43  PHE43      -0.0042
      8  CD2      -12.9750    3.1700   -3.1510 C.ar   43  PHE43      -0.0042
      9  CE1      -15.3740    1.7520   -3.4000 C.ar   43  PHE43      -0.0003
     10  CE2      -12.9510    1.7670   -3.2590 C.ar   43  PHE43      -0.0003
     11  CZ       -14.1460    1.0570   -3.3760 C.ar   43  PHE43      -0.0000
     12  N        -15.0730    9.6520   -2.0940 N.3    45  ASP45      -0.1225
     13  CA       -14.6810   10.2080   -0.8110 C.3    45  ASP45       0.1805
     14  C        -13.2580    9.7940   -0.4000 C.2    45  ASP45       0.2597
     15  O        -12.8080   10.1350    0.7010 O.2    45  ASP45      -0.2718
     16  CB       -15.6500    9.6600    0.2390 C.3    45  ASP45       0.1424
     17  CG       -15.9530    8.1480    0.0280 C.2    45  ASP45       0.3668
     18  OD1      -16.3790    7.7370   -1.1010 O.co2  45  ASP45      -0.2456
     19  OD2      -15.7740    7.3600    0.9920 O.co2  45  ASP45      -0.2456
     20  N        -12.5820    9.0220   -1.2500 N.am   46  ILE46      -0.1980
     21  CA       -11.2330    8.5270   -0.9300 C.3    46  ILE46       0.1595
     22  C        -10.2480    9.1660   -1.8990 C.2    46  ILE46       0.2287
     23  O        -10.0580    8.6920   -3.0470 O.2    46  ILE46      -0.2864
     24  CB       -11.1140    6.9860   -1.0010 C.3    46  ILE46       0.0276
     25  CG1      -12.1000    6.2640   -0.0790 C.3    46  ILE46       0.0022
     26  CG2       -9.6820    6.5400   -0.6640 C.3    46  ILE46       0.0022
     27  CD1      -11.9720    6.5650    1.4300 C.3    46  ILE46       0.0001
     28  N        -12.5070  -10.6060   -4.7610 N.3   104  GLU104     -0.1245
     29  CA       -12.7510   -9.2220   -5.1630 C.3   104  GLU104      0.1567
     30  C        -12.3620   -8.9760   -6.6220 C.2   104  GLU104      0.2260
     31  O        -13.1070   -8.3450   -7.3540 O.2   104  GLU104     -0.2867
     32  CB       -11.9780   -8.2180   -4.2810 C.3   104  GLU104      0.0388
     33  CG       -12.4450   -8.0690   -2.8580 C.3   104  GLU104      0.1160
     34  CD       -11.4290   -7.2650   -2.0280 C.2   104  GLU104      0.3649
     35  OE1      -10.5190   -7.8890   -1.4280 O.co2 104  GLU104     -0.2457
     36  OE2      -11.5250   -6.0230   -2.0130 O.co2 104  GLU104     -0.2457
     37  N         -4.7060   -2.1910   -1.6280 N.3   217  CYS217     -0.1221
     38  CA        -5.7940   -3.1330   -1.4340 C.3   217  CYS217      0.1808
     39  C         -6.8780   -2.7530   -2.4600 C.2   217  CYS217      0.2601
     40  O         -6.6080   -2.7560   -3.6650 O.2   217  CYS217     -0.2717
     41  CB        -6.3090   -3.0710    0.0250 C.3   217  CYS217      0.0970
     42  SG        -6.4400   -1.3810    0.7440 S.3   217  CYS217     -0.0800
     43  N         -8.0780   -2.3890   -2.0060 N.am  218  ARG218     -0.1965
     44  CA        -9.1030   -1.8830   -2.9420 C.3   218  ARG218      0.1729
     45  C         -9.1040   -0.3460   -2.9760 C.2   218  ARG218      0.2616
     46  O         -8.8350    0.2880   -4.0050 O.2   218  ARG218     -0.2715
     47  CB       -10.4930   -2.4480   -2.6080 C.3   218  ARG218      0.0348
     48  CG       -11.5870   -2.1340   -3.6350 C.3   218  ARG218      0.0492
     49  CD       -12.8510   -2.9500   -3.3760 C.3   218  ARG218      0.2205
     50  NE       -13.9690   -2.3740   -4.1100 N.pl3 218  ARG218     -0.0865
     51  CZ       -15.2450   -2.5180   -3.7750 C.cat 218  ARG218      0.5346
     52  NH1      -15.5760   -3.2090   -2.7050 N.pl3 218  ARG218      0.1354
     53  NH2      -16.1800   -1.9300   -4.4970 N.pl3 218  ARG218      0.1354
     54  N         -9.3500    0.2630   -1.8250 N.am  219  ALA219     -0.1977
     55  CA        -9.2900    1.7170   -1.7310 C.3   219  ALA219      0.1597
     56  C         -7.9030    2.2420   -1.3760 C.2   219  ALA219      0.2287
     57  O         -7.6470    3.4130   -1.5620 O.2   219  ALA219     -0.2864
     58  CB       -10.3590    2.2540   -0.7400 C.3   219  ALA219      0.0319
     59  N         -6.7070    2.3570    1.7850 N.3   221  VAL221     -0.1231
     60  CA        -6.8090    3.0840    3.0840 C.3   221  VAL221      0.1692
     61  C         -6.9670    2.1730    4.3140 C.2   221  VAL221      0.2593
     62  O         -6.7220    2.5960    5.4680 O.2   221  VAL221     -0.2718
     63  CB        -7.9620    4.1710    3.1350 C.3   221  VAL221      0.0266
     64  CG1       -7.6820    5.2930    2.1690 C.3   221  VAL221      0.0020
     65  CG2       -9.3690    3.5310    2.9450 C.3   221  VAL221      0.0020
     66  N         -7.4600    0.9610    4.1000 N.am  222  GLY222     -0.1942
     67  CA        -7.7600    0.0640    5.2200 C.3   222  GLY222      0.2014
     68  C         -6.6640   -0.9890    5.3610 C.2   222  GLY222      0.2638
     69  O         -5.7490   -0.8690    6.1880 O.2   222  GLY222     -0.2714
     70  N         -6.7520   -2.0310    4.5450 N.am  223  ARG223     -0.1977
     71  CA        -5.7700   -3.1030    4.5920 C.3   223  ARG223      0.1597
     72  C         -4.3510   -2.6080    4.2990 C.2   223  ARG223      0.2287
     73  O         -3.3650   -3.0380    4.9510 O.2   223  ARG223     -0.2864
     74  CB        -6.2030   -4.2070    3.6330 C.3   223  ARG223      0.0334
     75  CG        -7.5150   -4.8520    4.0720 C.3   223  ARG223      0.0492
     76  CD        -8.0650   -5.7570    2.9720 C.3   223  ARG223      0.2205
     77  NE        -8.7650   -4.9830    1.9350 N.pl3 223  ARG223     -0.0865
     78  CZ        -9.3150   -5.5330    0.8610 C.cat 223  ARG223      0.5346
     79  NH1       -9.1980   -6.8610    0.6710 N.pl3 223  ARG223      0.1354
     80  NH2       -9.9660   -4.7660   -0.0240 N.pl3 223  ARG223      0.1354
     81  N         -8.7590    2.6930    8.2560 N.3   260  GLN260     -0.1231
     82  CA       -10.1740    3.0240    8.1060 C.3   260  GLN260      0.1698
     83  C        -11.0530    2.4720    9.2350 C.2   260  GLN260      0.2592
     84  O        -12.0290    3.1230    9.6390 O.2   260  GLN260     -0.2718
     85  CB       -10.6690    2.4870    6.7720 C.3   260  GLN260      0.0381
     86  CG       -12.1530    2.8050    6.4930 C.3   260  GLN260      0.0905
     87  CD       -12.5460    2.3620    5.1080 C.2   260  GLN260      0.2608
     88  OE1      -13.1110    3.1350    4.3150 O.2   260  GLN260     -0.2717
     89  NE2      -12.2200    1.1160    4.7890 N.am  260  GLN260     -0.0878
     90  N        -10.6990    1.3220    9.7490 N.am  261  LYS261     -0.1980
     91  CA       -11.5540    0.6110   10.6670 C.3   261  LYS261      0.1596
     92  C        -10.9530    0.4790   12.0380 C.2   261  LYS261      0.2287
     93  O         -9.7710    0.4480   12.1650 O.2   261  LYS261     -0.2864
     94  CB       -11.8850   -0.7750   10.1350 C.3   261  LYS261      0.0298
     95  CG       -12.3720   -0.7160    8.7790 C.3   261  LYS261      0.0038
     96  CD       -13.4760   -1.5690    8.5390 C.3   261  LYS261      0.0206
     97  CE       -12.9840   -2.8690    8.0050 C.3   261  LYS261      0.1093
     98  NZ       -13.9760   -4.0380    7.9280 N.3   261  LYS261     -0.1314
     99  N         -8.4600   -2.3810   12.4510 N.3   264  GLN264     -0.1245
    100  CA        -7.1630   -2.0920   11.8420 C.3   264  GLN264      0.1566
    101  C         -6.2600   -1.3330   12.8120 C.2   264  GLN264      0.2260
    102  O         -5.0810   -1.6670   12.9920 O.2   264  GLN264     -0.2867
    103  CB        -7.3710   -1.3100   10.5380 C.3   264  GLN264      0.0367
    104  CG        -7.9780   -2.2100    9.4360 C.3   264  GLN264      0.0905
    105  CD        -8.6810   -1.4630    8.3300 C.2   264  GLN264      0.2608
    106  OE1       -8.7520   -0.2240    8.3110 O.2   264  GLN264     -0.2717
    107  NE2       -9.2060   -2.2270    7.3700 N.am  264  GLN264     -0.0878
@<TRIPOS>BOND
     1    31    30    2
     2    30    29    1
     3     1     2    1
     4    29    28    1
     5    29    32    1
     6    53    51    1
     7     2     3    1
     8     2     5    1
     9     3     4    2
    10    32    33    1
    11    50    51    2
    12    50    49    1
    13    46    45    2
    14    51    52    1
    15    40    39    2
    16    48    49    1
    17    48    47    1
    18     9    11   ar
    19     9     7   ar
    20    11    10   ar
    21     7     6   ar
    22    10     8   ar
    23     8     6   ar
    24     6     5    1
    25    23    22    2
    26    45    44    1
    27    45    54   am
    28    44    47    1
    29    44    43    1
    30    33    34    1
    31    39    43   am
    32    39    38    1
    33    12    13    1
    34    34    36   ar
    35    34    35   ar
    36    22    21    1
    37    54    55    1
    38    55    56    1
    39    55    58    1
    40    37    38    1
    41    57    56    2
    42    38    41    1
    43    20    21    1
    44    20    14   am
    45    18    17   ar
    46    24    21    1
    47    24    26    1
    48    24    25    1
    49    13    14    1
    50    13    16    1
    51    14    15    2
    52    25    27    1
    53    80    78    1
    54    41    42    1
    55    17    16    1
    56    17    19   ar
    57    79    78    1
    58    78    77    2
    59    59    60    1
    60    77    76    1
    61    64    63    1
    62    65    63    1
    63    76    75    1
    64    60    63    1
    65    60    61    1
    66    74    75    1
    67    74    71    1
    68    66    61   am
    69    66    67    1
    70    72    71    1
    71    72    73    2
    72    61    62    2
    73    88    87    2
    74    70    71    1
    75    70    68   am
    76    89    87   am
    77    87    86    1
    78    67    68    1
    79    68    69    2
    80    86    85    1
    81    85    82    1
    82   107   105   am
    83    98    97    1
    84    97    96    1
    85    82    81    1
    86    82    83    1
    87   106   105    2
    88   105   104    1
    89    96    95    1
    90    95    94    1
    91    83    84    2
    92    83    90   am
    93   104   103    1
    94    90    91    1
    95    94    91    1
    96   103   100    1
    97    91    92    1
    98   100    99    1
    99   100   101    1
   100    92    93    2
   101   101   102    2
