@<TRIPOS>MOLECULE
tmp/3u99A00.pdb
 234 229 0 0 0
SMALL
GASTEIGER

@<TRIPOS>ATOM
      1  N         33.0090   47.0960    5.7620 N.3    18  TYR18      -0.1241
      2  CA        34.2860   46.4100    5.7780 C.3    18  TYR18       0.1605
      3  C         35.3860   47.2550    5.1560 C.2    18  TYR18       0.2264
      4  O         35.2270   47.7400    4.0430 O.2    18  TYR18      -0.2867
      5  CB        34.2220   45.0980    5.0180 C.3    18  TYR18       0.0534
      6  CG        33.2450   44.1220    5.6360 C.ar   18  TYR18      -0.0201
      7  CD1       33.5000   43.5800    6.8990 C.ar   18  TYR18      -0.0009
      8  CD2       32.0780   43.7530    5.0150 C.ar   18  TYR18      -0.0009
      9  CE1       32.5990   42.6970    7.4720 C.ar   18  TYR18       0.0417
     10  CE2       31.1840   42.8670    5.5700 C.ar   18  TYR18       0.0417
     11  CZ        31.4560   42.3380    6.8240 C.ar   18  TYR18       0.1957
     12  OH        30.5080   41.4840    7.3280 O.3    18  TYR18      -0.2866
     13  N         40.7000   44.6740    3.1850 N.3    22  LEU22      -0.1245
     14  CA        40.4850   43.2760    3.5980 C.3    22  LEU22       0.1561
     15  C         40.3450   42.2990    2.4390 C.2    22  LEU22       0.2260
     16  O         40.3980   41.0930    2.6760 O.2    22  LEU22      -0.2867
     17  CB        39.2620   43.1330    4.5180 C.3    22  LEU22       0.0270
     18  CG        39.4210   43.8680    5.8690 C.3    22  LEU22       0.0019
     19  CD1       38.1110   43.8050    6.6240 C.3    22  LEU22       0.0001
     20  CD2       40.5300   43.2660    6.7010 C.3    22  LEU22       0.0001
     21  N         35.1360   37.5920    3.1620 N.3    67  ILE67      -0.1231
     22  CA        36.3590   37.8160    3.9580 C.3    67  ILE67       0.1692
     23  C         36.6280   36.6260    4.8660 C.2    67  ILE67       0.2592
     24  O         37.7590   36.2180    5.0170 O.2    67  ILE67      -0.2718
     25  CB        36.2420   39.1120    4.7310 C.3    67  ILE67       0.0266
     26  CG1       36.1450   40.3140    3.7780 C.3    67  ILE67       0.0019
     27  CG2       37.4440   39.2920    5.6280 C.3    67  ILE67       0.0020
     28  CD1       35.6150   41.5920    4.4280 C.3    67  ILE67       0.0001
     29  N         35.5660   36.1220    5.4630 N.am   68  THR68      -0.1953
     30  CA        35.7060   35.0420    6.4680 C.3    68  THR68       0.1897
     31  C         36.0970   33.7270    5.8110 C.2    68  THR68       0.2313
     32  O         36.3190   32.7530    6.5570 O.2    68  THR68      -0.2863
     33  CB        34.4120   34.8870    7.2800 C.3    68  THR68       0.1794
     34  OG1       33.3270   34.7450    6.3570 O.3    68  THR68      -0.2208
     35  CG2       34.1720   36.1210    8.1520 C.3    68  THR68       0.0378
     36  N         43.8610   34.1780    5.2400 N.3    72  PHE72      -0.1227
     37  CA        44.4490   34.9950    6.3140 C.3    72  PHE72       0.1736
     38  C         43.4630   35.0870    7.5080 C.2    72  PHE72       0.2595
     39  O         43.8580   35.0710    8.6480 O.2    72  PHE72      -0.2718
     40  CB        44.8360   36.4250    5.8410 C.3    72  PHE72       0.0547
     41  CG        43.6500   37.4480    5.8560 C.ar   72  PHE72      -0.0202
     42  CD1       43.3620   38.2040    6.9610 C.ar   72  PHE72      -0.0042
     43  CD2       42.8430   37.6170    4.7370 C.ar   72  PHE72      -0.0042
     44  CE1       42.2810   39.1400    6.9290 C.ar   72  PHE72      -0.0003
     45  CE2       41.7450   38.5340    4.7420 C.ar   72  PHE72      -0.0003
     46  CZ        41.4800   39.2530    5.8400 C.ar   72  PHE72      -0.0000
     47  N         42.1970   35.1180    7.1770 N.am   73  PHE73      -0.1976
     48  CA        41.1950   35.2900    8.2010 C.3    73  PHE73       0.1639
     49  C         41.1260   33.9840    8.9900 C.2    73  PHE73       0.2290
     50  O         41.1080   33.9860   10.1850 O.2    73  PHE73      -0.2864
     51  CB        39.8090   35.5440    7.5810 C.3    73  PHE73       0.0560
     52  CG        38.7660   35.6310    8.6130 C.ar   73  PHE73      -0.0200
     53  CD1       38.5400   36.8530    9.2440 C.ar   73  PHE73      -0.0042
     54  CD2       38.0950   34.5210    9.0530 C.ar   73  PHE73      -0.0042
     55  CE1       37.6350   36.9160   10.2720 C.ar   73  PHE73      -0.0003
     56  CE2       37.2070   34.6140   10.1120 C.ar   73  PHE73      -0.0003
     57  CZ        36.9840   35.8140   10.7140 C.ar   73  PHE73      -0.0000
     58  N         43.9420   33.5030   11.3950 N.3    76  LYS76      -0.1231
     59  CA        43.9340   34.3860   12.5400 C.3    76  LYS76       0.1693
     60  C         42.8740   33.9660   13.5510 C.2    76  LYS76       0.2592
     61  O         43.0410   34.3450   14.7310 O.2    76  LYS76      -0.2718
     62  CB        43.7690   35.8670   12.0870 C.3    76  LYS76       0.0285
     63  CG        45.0630   36.3370   11.4120 C.3    76  LYS76       0.0035
     64  CD        44.8700   37.6260   10.7250 C.3    76  LYS76       0.0206
     65  CE        46.1220   38.1570   10.0090 C.3    76  LYS76       0.1093
     66  NZ        47.3250   38.0480   10.8900 N.3    76  LYS76      -0.1314
     67  N         41.8600   33.2490   13.1540 N.am   77  HIS77      -0.1976
     68  CA        40.7270   32.9580   14.0560 C.3    77  HIS77       0.1656
     69  C         40.6290   31.4800   14.4360 C.2    77  HIS77       0.2291
     70  O         39.6560   31.0700   15.0900 O.2    77  HIS77      -0.2864
     71  CB        39.4370   33.4320   13.3810 C.3    77  HIS77       0.0771
     72  CG        39.4330   34.9200   13.2920 C.ar   77  HIS77       0.0820
     73  ND1       40.0570   35.5920   12.2930 N.ar   77  HIS77      -0.2267
     74  CD2       38.9370   35.9040   14.1140 C.ar   77  HIS77       0.1154
     75  CE1       39.9520   36.9040   12.4820 C.ar   77  HIS77       0.1986
     76  NE2       39.2620   37.1400   13.5960 N.ar   77  HIS77      -0.2212
     77  N         41.9700   29.5180   16.6190 N.3    79  GLU79      -0.1231
     78  CA        41.9990   29.0600   18.0110 C.3    79  GLU79       0.1699
     79  C         40.7270   29.4580   18.7450 C.2    79  GLU79       0.2592
     80  O         40.5760   29.1710   19.9450 O.2    79  GLU79      -0.2718
     81  CB        43.2490   29.6240   18.6780 C.3    79  GLU79       0.0402
     82  CG        44.5780   29.1370   18.1080 C.3    79  GLU79       0.1161
     83  CD        44.8340   27.6790   18.3430 C.2    79  GLU79       0.3649
     84  OE1       44.1540   26.9310   19.1230 O.co2  79  GLU79      -0.2457
     85  OE2       45.8140   27.1900   17.7140 O.co2  79  GLU79      -0.2457
     86  N         39.7790   30.1200   18.0860 N.am   80  ILE80      -0.1980
     87  CA        38.5830   30.6180   18.7770 C.3    80  ILE80       0.1595
     88  C         37.5100   29.5410   18.6780 C.2    80  ILE80       0.2287
     89  O         37.1180   29.1700   17.5660 O.2    80  ILE80      -0.2864
     90  CB        38.1040   31.9230   18.1460 C.3    80  ILE80       0.0276
     91  CG1       39.2090   32.9790   18.0950 C.3    80  ILE80       0.0022
     92  CG2       36.8420   32.3860   18.8710 C.3    80  ILE80       0.0022
     93  CD1       38.7950   34.1660   17.2360 C.3    80  ILE80       0.0001
     94  N         32.1390   30.3240   21.4340 N.3    84  MET84      -0.1230
     95  CA        32.2170   31.7880   21.4980 C.3    84  MET84       0.1702
     96  C         31.6810   32.4600   20.2400 C.2    84  MET84       0.2592
     97  O         31.5880   33.6900   20.2220 O.2    84  MET84      -0.2718
     98  CB        33.6750   32.2270   21.6630 C.3    84  MET84       0.0401
     99  CG        34.2570   31.8060   22.9970 C.3    84  MET84       0.0596
    100  SD        35.9530   32.3240   23.2000 S.3    84  MET84      -0.1393
    101  CE        36.4650   31.1920   24.4870 C.3    84  MET84       0.0692
    102  N         31.3380   31.8030   19.2410 N.am   85  VAL85      -0.1980
    103  CA        30.9750   32.2450   17.8930 C.3    85  VAL85       0.1595
    104  C         29.6530   31.5940   17.4880 C.2    85  VAL85       0.2287
    105  O         28.5910   32.1610   17.7850 O.2    85  VAL85      -0.2864
    106  CB        32.1360   32.0000   16.9110 C.3    85  VAL85       0.0276
    107  CG1       31.8190   32.6160   15.5500 C.3    85  VAL85       0.0022
    108  CG2       33.4490   32.5730   17.5030 C.3    85  VAL85       0.0022
    109  N         26.9660   36.7270   19.1190 N.3    91  VAL91      -0.1245
    110  CA        27.8890   36.7320   17.9700 C.3    91  VAL91       0.1561
    111  C         27.3210   35.9490   16.7390 C.2    91  VAL91       0.2260
    112  O         27.0090   36.5350   15.7240 O.2    91  VAL91      -0.2867
    113  CB        29.2700   36.1460   18.4090 C.3    91  VAL91       0.0252
    114  CG1       30.2160   36.0100   17.2740 C.3    91  VAL91       0.0019
    115  CG2       29.8640   37.0190   19.5220 C.3    91  VAL91       0.0019
    116  N         28.2720   34.3660   14.1280 N.3    93  SER93      -0.1202
    117  CA        29.2150   34.1030   13.0780 C.3    93  SER93       0.2020
    118  C         30.2550   35.1800   13.1120 C.2    93  SER93       0.2619
    119  O         30.1400   36.1780   13.7950 O.2    93  SER93      -0.2717
    120  CB        28.4340   34.0940   11.7830 C.3    93  SER93       0.2103
    121  OG        28.0300   35.3510   11.4450 O.3    93  SER93      -0.2182
    122  N         31.3320   34.9340   12.3620 N.am   94  PHE94      -0.1961
    123  CA        32.3970   35.9130   12.3210 C.3    94  PHE94       0.1771
    124  C         32.1450   37.1140   11.4420 C.2    94  PHE94       0.2620
    125  O         32.9320   38.0520   11.4460 O.2    94  PHE94      -0.2715
    126  CB        33.6150   35.1770   11.7720 C.3    94  PHE94       0.0574
    127  CG        34.3570   34.3240   12.7630 C.ar   94  PHE94      -0.0200
    128  CD1       34.9710   34.8670   13.8470 C.ar   94  PHE94      -0.0042
    129  CD2       34.4600   32.9840   12.5600 C.ar   94  PHE94      -0.0042
    130  CE1       35.6420   34.1060   14.7720 C.ar   94  PHE94      -0.0003
    131  CE2       35.1230   32.1670   13.4800 C.ar   94  PHE94      -0.0003
    132  CZ        35.7410   32.7480   14.5560 C.ar   94  PHE94      -0.0000
    133  N         31.1120   37.0930   10.6450 N.am   95  SER95      -0.1936
    134  CA        30.9110   38.1650    9.6570 C.3    95  SER95       0.2055
    135  C         30.7810   39.5290   10.2700 C.2    95  SER95       0.2643
    136  O         31.2720   40.4810    9.6700 O.2    95  SER95      -0.2714
    137  CB        29.6490   37.8500    8.8420 C.3    95  SER95       0.2130
    138  OG        29.7750   36.7270    8.0510 O.3    95  SER95      -0.2179
    139  N         30.0820   39.7060   11.3660 N.am   96  GLN96      -0.1963
    140  CA        29.9860   41.0950   11.8660 C.3    96  GLN96       0.1733
    141  C         31.1680   41.3180   12.7870 C.2    96  GLN96       0.2616
    142  O         31.1380   41.1100   14.0040 O.2    96  GLN96      -0.2715
    143  CB        28.6490   41.4120   12.5370 C.3    96  GLN96       0.0408
    144  CG        28.5370   42.8490   13.0960 C.3    96  GLN96       0.0908
    145  CD        28.0480   43.8420   12.0570 C.2    96  GLN96       0.2608
    146  OE1       28.4230   43.8010   10.9160 O.2    96  GLN96      -0.2717
    147  NE2       27.2140   44.7930   12.4400 N.am   96  GLN96      -0.0878
    148  N         32.2820   41.7560   12.2070 N.am   97  CYS97      -0.1968
    149  CA        33.4970   41.8640   12.9860 C.3    97  CYS97       0.1712
    150  C         33.3570   42.7860   14.1890 C.2    97  CYS97       0.2296
    151  O         34.0780   42.5630   15.1620 O.2    97  CYS97      -0.2864
    152  CB        34.6120   42.4710   12.1210 C.3    97  CYS97       0.0983
    153  SG        34.6670   41.9820   10.3570 S.3    97  CYS97      -0.0798
    154  N         31.2650   43.0930   16.3510 N.3    99  ASN99      -0.1225
    155  CA        30.7660   42.5470   17.6230 C.3    99  ASN99       0.1785
    156  C         31.9320   42.2680   18.5400 C.2    99  ASN99       0.2597
    157  O         31.7320   42.3450   19.7480 O.2    99  ASN99      -0.2718
    158  CB        29.9940   41.2620   17.3410 C.3    99  ASN99       0.1169
    159  CG        28.6210   41.4830   16.7810 C.2    99  ASN99       0.2627
    160  OD1       28.0260   42.5530   16.8560 O.2    99  ASN99      -0.2716
    161  ND2       28.1100   40.4170   16.1440 N.am   99  ASN99      -0.0877
    162  N         33.1000   41.9730   18.0560 N.am  100  CYS100     -0.1956
    163  CA        34.2710   41.6070   18.8310 C.3   100  CYS100      0.1843
    164  C         35.3700   42.6740   18.7550 C.2   100  CYS100      0.2625
    165  O         36.0990   42.9070   19.7120 O.2   100  CYS100     -0.2714
    166  CB        34.8430   40.2750   18.3580 C.3   100  CYS100      0.0997
    167  SG        33.6840   38.9000   18.4690 S.3   100  CYS100     -0.0797
    168  N         35.5280   43.2580   17.5850 N.am  101  HIS101     -0.1973
    169  CA        36.5030   44.2930   17.2900 C.3   101  HIS101      0.1656
    170  C         35.7200   45.5710   17.2040 C.2   101  HIS101      0.2291
    171  O         35.1920   45.9410   16.1400 O.2   101  HIS101     -0.2864
    172  CB        37.2190   44.0040   15.9910 C.3   101  HIS101      0.0771
    173  CG        37.9590   42.7270   15.8380 C.ar  101  HIS101      0.0820
    174  ND1       39.2440   42.5740   16.3180 N.ar  101  HIS101     -0.2267
    175  CD2       37.6630   41.5800   15.1990 C.ar  101  HIS101      0.1154
    176  CE1       39.6590   41.3700   15.9720 C.ar  101  HIS101      0.1986
    177  NE2       38.7380   40.7190   15.2820 N.ar  101  HIS101     -0.2212
    178  N         41.7770   46.0270   14.3670 N.3   109  PHE109     -0.1227
    179  CA        41.4760   44.6330   14.7100 C.3   109  PHE109      0.1736
    180  C         42.4050   44.0630   15.7480 C.2   109  PHE109      0.2595
    181  O         42.3550   42.8580   16.0140 O.2   109  PHE109     -0.2718
    182  CB        41.5320   43.7580   13.4220 C.3   109  PHE109      0.0547
    183  CG        40.5140   44.1550   12.3770 C.ar  109  PHE109     -0.0202
    184  CD1       39.2140   43.6900   12.4600 C.ar  109  PHE109     -0.0042
    185  CD2       40.7990   44.9940   11.3310 C.ar  109  PHE109     -0.0042
    186  CE1       38.2610   44.0570   11.5180 C.ar  109  PHE109     -0.0003
    187  CE2       39.8440   45.3620   10.4110 C.ar  109  PHE109     -0.0003
    188  CZ        38.5580   44.9100   10.4760 C.ar  109  PHE109     -0.0000
    189  N         43.2050   44.8460   16.3730 N.am  110  ASP110     -0.1960
    190  CA        44.2370   44.3680   17.2780 C.3   110  ASP110      0.1840
    191  C         43.7070   43.4280   18.3570 C.2   110  ASP110      0.2621
    192  O         42.7300   43.6970   19.0370 O.2   110  ASP110     -0.2715
    193  CB        44.9130   45.5560   17.9320 C.3   110  ASP110      0.1450
    194  CG        45.6180   46.4610   16.8970 C.2   110  ASP110      0.3671
    195  OD1       46.8680   46.5890   16.8940 O.co2 110  ASP110     -0.2456
    196  OD2       44.8920   47.1170   16.1110 O.co2 110  ASP110     -0.2456
    197  N         44.4030   42.3130   18.5240 N.am  111  GLU111     -0.1977
    198  CA        44.0470   41.2890   19.4950 C.3   111  GLU111      0.1602
    199  C         43.9240   41.8520   20.8870 C.2   111  GLU111      0.2287
    200  O         43.0780   41.3820   21.6700 O.2   111  GLU111     -0.2864
    201  CB        45.0250   40.1040   19.5060 C.3   111  GLU111      0.0415
    202  CG        46.4490   40.6100   19.5760 C.3   111  GLU111      0.1163
    203  CD        47.2250   40.0150   20.7180 C.2   111  GLU111      0.3649
    204  OE1       47.4920   38.8060   20.4330 O.co2 111  GLU111     -0.2457
    205  OE2       47.5270   40.6970   21.7230 O.co2 111  GLU111     -0.2457
    206  N         40.3170   43.2050   21.4480 N.3   114  VAL114     -0.1245
    207  CA        39.1700   42.3540   21.1800 C.3   114  VAL114      0.1561
    208  C         38.4080   42.0460   22.4670 C.2   114  VAL114      0.2260
    209  O         39.0240   41.7750   23.4820 O.2   114  VAL114     -0.2867
    210  CB        39.6010   40.9440   20.6460 C.3   114  VAL114      0.0252
    211  CG1       38.4800   39.9040   20.6510 C.3   114  VAL114      0.0019
    212  CG2       40.0930   41.1820   19.2670 C.3   114  VAL114      0.0019
    213  N         34.9050   39.7760   23.2640 N.3   116  ILE116     -0.1245
    214  CA        33.8780   38.8920   22.7240 C.3   116  ILE116      0.1561
    215  C         32.6280   38.9610   23.5860 C.2   116  ILE116      0.2260
    216  O         32.6930   38.6740   24.7720 O.2   116  ILE116     -0.2867
    217  CB        34.3870   37.4550   22.6380 C.3   116  ILE116      0.0252
    218  CG1       35.6180   37.4020   21.7510 C.3   116  ILE116      0.0019
    219  CG2       33.2510   36.5630   22.1840 C.3   116  ILE116      0.0019
    220  CD1       36.0310   35.9870   21.4300 C.3   116  ILE116      0.0001
    221  N         39.6910   39.2460   25.2320 N.3   122  TRP122     -0.1241
    222  CA        40.4430   38.0430   24.8760 C.3   122  TRP122      0.1605
    223  C         41.7840   37.9940   25.5780 C.2   122  TRP122      0.2264
    224  O         42.2390   36.9450   26.0490 O.2   122  TRP122     -0.2867
    225  CB        40.5910   38.1000   23.3610 C.3   122  TRP122      0.0550
    226  CG        41.3460   36.9860   22.7560 C.ar  122  TRP122      0.0003
    227  CD1       42.6270   37.0730   22.2670 C.ar  122  TRP122      0.0946
    228  CD2       40.8880   35.6530   22.5570 C.ar  122  TRP122      0.0152
    229  NE1       42.9750   35.8470   21.7540 N.ar  122  TRP122     -0.2442
    230  CE2       41.9480   34.9770   21.9330 C.ar  122  TRP122      0.0810
    231  CE3       39.6790   35.0000   22.8560 C.ar  122  TRP122      0.0012
    232  CZ2       41.8130   33.6510   21.6060 C.ar  122  TRP122      0.0191
    233  CZ3       39.5920   33.6750   22.5130 C.ar  122  TRP122      0.0001
    234  CH2       40.6550   33.0370   21.9010 C.ar  122  TRP122      0.0015
@<TRIPOS>BOND
     1    15    16    2
     2    15    14    1
     3    21    22    1
     4    13    14    1
     5    14    17    1
     6    26    28    1
     7    26    25    1
     8    22    25    1
     9    22    23    1
    10     4     3    2
    11    17    18    1
    12    25    27    1
    13    43    45   ar
    14    43    41   ar
    15    45    46   ar
    16    23    24    2
    17    23    29   am
    18     8    10   ar
    19     8     6   ar
    20     5     6    1
    21     5     2    1
    22     3     2    1
    23    36    37    1
    24    29    30    1
    25    10    11   ar
    26     6     7   ar
    27     1     2    1
    28    31    30    1
    29    31    32    2
    30    46    44   ar
    31    40    41    1
    32    40    37    1
    33    41    42   ar
    34    18    19    1
    35    18    20    1
    36    37    38    1
    37    34    33    1
    38    30    33    1
    39    11    12    1
    40    11     9   ar
    41     7     9   ar
    42    44    42   ar
    43    47    38   am
    44    47    48    1
    45    33    35    1
    46    38    39    2
    47    51    48    1
    48    51    52    1
    49   138   137    1
    50    48    49    1
    51    52    54   ar
    52    52    53   ar
    53   137   134    1
    54    49    50    2
    55    54    56   ar
    56    53    55   ar
    57   134   135    1
    58   134   133    1
    59   136   135    2
    60    65    64    1
    61    65    66    1
    62    56    57   ar
    63   135   139   am
    64    55    57   ar
    65   153   152    1
    66   187   188   ar
    67   187   185   ar
    68   188   186   ar
    69   133   124   am
    70    64    63    1
    71   146   145    2
    72   185   183   ar
    73   139   140    1
    74    58    59    1
    75    63    62    1
    76   124   125    2
    77   124   123    1
    78   121   120    1
    79   186   184   ar
    80   126   123    1
    81   126   127    1
    82   120   117    1
    83   140   143    1
    84   140   141    1
    85   145   147   am
    86   145   144    1
    87    62    59    1
    88   152   149    1
    89   148   141   am
    90   148   149    1
    91    73    75   ar
    92    73    72   ar
    93   123   122    1
    94   122   118   am
    95   183   184   ar
    96   183   182    1
    97    75    76   ar
    98   143   144    1
    99    59    60    1
   100   129   127   ar
   101   129   131   ar
   102   127   128   ar
   103   141   142    2
   104   149   150    1
   105   117   118    1
   106   117   116    1
   107   118   119    2
   108    67    60   am
   109    67    68    1
   110    72    71    1
   111    72    74   ar
   112    71    68    1
   113   182   179    1
   114   131   132   ar
   115    60    61    2
   116    76    74   ar
   117   128   130   ar
   118    68    69    1
   119   150   151    2
   120   178   179    1
   121    69    70    2
   122   132   130   ar
   123   179   180    1
   124   175   177   ar
   125   175   173   ar
   126   177   176   ar
   127   107   106    1
   128   112   111    2
   129   180   181    2
   130   180   189   am
   131   173   172    1
   132   173   174   ar
   133   176   174   ar
   134   172   169    1
   135   196   194   ar
   136   171   170    2
   137   161   159   am
   138   154   155    1
   139   189   190    1
   140    77    78    1
   141   111   110    1
   142   159   160    2
   143   159   158    1
   144   195   194   ar
   145   194   193    1
   146   106   108    1
   147   106   103    1
   148   170   169    1
   149    93    91    1
   150   114   113    1
   151   190   193    1
   152   190   191    1
   153   169   168    1
   154   158   155    1
   155   104   105    2
   156   104   103    1
   157    89    88    2
   158   168   164   am
   159   155   156    1
   160    85    83   ar
   161   103   102    1
   162   110   113    1
   163   110   109    1
   164    78    81    1
   165    78    79    1
   166   162   156   am
   167   162   163    1
   168    86    79   am
   169    86    87    1
   170    91    90    1
   171    82    83    1
   172    82    81    1
   173    90    87    1
   174    90    92    1
   175    83    84   ar
   176   191   197   am
   177   191   192    2
   178   166   167    1
   179   166   163    1
   180   113   115    1
   181   197   198    1
   182   156   157    2
   183    88    87    1
   184    79    80    2
   185   164   163    1
   186   164   165    2
   187   102    96   am
   188   212   210    1
   189   198   201    1
   190   198   199    1
   191   201   202    1
   192   202   203    1
   193    97    96    2
   194    96    95    1
   195   204   203   ar
   196   210   211    1
   197   210   207    1
   198   203   205   ar
   199   199   200    2
   200   207   206    1
   201   207   208    1
   202   220   218    1
   203    94    95    1
   204    95    98    1
   205   232   234   ar
   206   232   230   ar
   207    98    99    1
   208   218   217    1
   209   229   230   ar
   210   229   227   ar
   211   234   233   ar
   212   230   228   ar
   213   219   217    1
   214   227   226   ar
   215   208   209    2
   216   233   231   ar
   217   228   226   ar
   218   228   231   ar
   219   217   214    1
   220   214   213    1
   221   214   215    1
   222   226   225    1
   223    99   100    1
   224   100   101    1
   225   225   222    1
   226   215   216    2
   227   222   221    1
   228   222   223    1
   229   223   224    2
