@<TRIPOS>MOLECULE
tmp/3u99A01.pdb
 221 213 0 0 0
SMALL
GASTEIGER

@<TRIPOS>ATOM
      1  N         30.8380   54.9990    0.5510 N.3     7  TYR7       -0.1241
      2  CA        31.0010   53.5940    0.8300 C.3     7  TYR7        0.1605
      3  C         30.4540   53.2050    2.1870 C.2     7  TYR7        0.2264
      4  O         29.7700   52.2020    2.3470 O.2     7  TYR7       -0.2867
      5  CB        32.5140   53.2610    0.6870 C.3     7  TYR7        0.0534
      6  CG        32.7440   51.8160    1.1250 C.ar    7  TYR7       -0.0201
      7  CD1       32.2970   50.7510    0.3790 C.ar    7  TYR7       -0.0009
      8  CD2       33.3960   51.4840    2.2820 C.ar    7  TYR7       -0.0009
      9  CE1       32.4820   49.4370    0.7660 C.ar    7  TYR7        0.0417
     10  CE2       33.5890   50.1650    2.7240 C.ar    7  TYR7        0.0417
     11  CZ        33.1340   49.1530    1.9430 C.ar    7  TYR7        0.1957
     12  OH        33.2910   47.8390    2.2870 O.3     7  TYR7       -0.2866
     13  N         26.6000   53.2900    2.0180 N.3    10  GLU10      -0.1231
     14  CA        25.9680   52.2810    1.1900 C.3    10  GLU10       0.1699
     15  C         26.2850   50.8700    1.6580 C.2    10  GLU10       0.2592
     16  O         25.4360   49.9790    1.5810 O.2    10  GLU10      -0.2718
     17  CB        26.3880   52.4430   -0.2690 C.3    10  GLU10       0.0402
     18  CG        25.9440   53.7510   -0.8790 C.3    10  GLU10       0.1161
     19  CD        24.4890   53.9880   -1.1040 C.2    10  GLU10       0.3649
     20  OE1       23.6940   53.0520   -0.8400 O.co2  10  GLU10      -0.2457
     21  OE2       24.1480   55.1050   -1.5910 O.co2  10  GLU10      -0.2457
     22  N         27.4930   50.6280    2.0840 N.am   11  CYS11      -0.1970
     23  CA        27.9290   49.3060    2.4300 C.3    11  CYS11       0.1712
     24  C         28.0030   49.0450    3.9080 C.2    11  CYS11       0.2296
     25  O         28.4480   47.9720    4.3200 O.2    11  CYS11      -0.2864
     26  CB        29.2510   48.9790    1.7070 C.3    11  CYS11       0.0983
     27  SG        29.1670   49.0310   -0.0800 S.3    11  CYS11      -0.0798
     28  N         24.9970   49.6170    5.6350 N.3    13  SER13      -0.1202
     29  CA        23.5550   49.6170    5.7850 C.3    13  SER13       0.2020
     30  C         22.9920   48.3870    6.4950 C.2    13  SER13       0.2619
     31  O         22.0450   48.4980    7.2760 O.2    13  SER13      -0.2717
     32  CB        22.9820   49.7020    4.3380 C.3    13  SER13       0.2103
     33  OG        21.5950   49.9130    4.5430 O.3    13  SER13      -0.2182
     34  N         23.5520   47.2230    6.2220 N.am   14  CYS14      -0.1955
     35  CA        23.0480   45.9660    6.7610 C.3    14  CYS14       0.1843
     36  C         24.0090   45.2960    7.7260 C.2    14  CYS14       0.2625
     37  O         23.6940   44.4210    8.5280 O.2    14  CYS14      -0.2714
     38  CB        22.8390   44.9790    5.6070 C.3    14  CYS14       0.0997
     39  SG        21.5120   45.5480    4.4860 S.3    14  CYS14      -0.0797
     40  N         25.2930   45.6220    7.6460 N.am   15  HIS15      -0.1973
     41  CA        26.4250   45.1660    8.4080 C.3    15  HIS15       0.1656
     42  C         27.4340   46.3050    8.4140 C.2    15  HIS15       0.2291
     43  O         27.2720   47.3040    7.7330 O.2    15  HIS15      -0.2864
     44  CB        27.0400   43.9100    7.8070 C.3    15  HIS15       0.0771
     45  CG        27.4030   43.9540    6.3610 C.ar   15  HIS15       0.0820
     46  ND1       28.4130   44.7140    5.8420 N.ar   15  HIS15      -0.2267
     47  CD2       26.8420   43.3070    5.3580 C.ar   15  HIS15       0.1154
     48  CE1       28.4560   44.5040    4.5220 C.ar   15  HIS15       0.1986
     49  NE2       27.5060   43.6450    4.1850 N.ar   15  HIS15      -0.2212
     50  N         33.0090   47.0960    5.7620 N.3    18  TYR18      -0.1241
     51  CA        34.2860   46.4100    5.7780 C.3    18  TYR18       0.1605
     52  C         35.3860   47.2550    5.1560 C.2    18  TYR18       0.2264
     53  O         35.2270   47.7400    4.0430 O.2    18  TYR18      -0.2867
     54  CB        34.2220   45.0980    5.0180 C.3    18  TYR18       0.0534
     55  CG        33.2450   44.1220    5.6360 C.ar   18  TYR18      -0.0201
     56  CD1       33.5000   43.5800    6.8990 C.ar   18  TYR18      -0.0009
     57  CD2       32.0780   43.7530    5.0150 C.ar   18  TYR18      -0.0009
     58  CE1       32.5990   42.6970    7.4720 C.ar   18  TYR18       0.0417
     59  CE2       31.1840   42.8670    5.5700 C.ar   18  TYR18       0.0417
     60  CZ        31.4560   42.3380    6.8240 C.ar   18  TYR18       0.1957
     61  OH        30.5080   41.4840    7.3280 O.3    18  TYR18      -0.2866
     62  N         40.1700   42.8030    1.1930 N.3    23  LEU23      -0.1245
     63  CA        40.1370   41.9420    0.0390 C.3    23  LEU23       0.1561
     64  C         40.9330   42.5710   -1.0940 C.2    23  LEU23       0.2260
     65  O         40.9820   43.7910   -1.1760 O.2    23  LEU23      -0.2867
     66  CB        38.6910   41.7270   -0.4590 C.3    23  LEU23       0.0270
     67  CG        37.7730   40.8870    0.4050 C.3    23  LEU23       0.0019
     68  CD1       36.3250   40.8990   -0.1310 C.3    23  LEU23       0.0001
     69  CD2       38.2090   39.4320    0.5250 C.3    23  LEU23       0.0001
     70  N         36.7540   42.0980   -4.6440 N.3    28  TRP28      -0.1241
     71  CA        35.7320   43.1490   -4.5400 C.3    28  TRP28       0.1605
     72  C         34.8980   43.2160   -5.8400 C.2    28  TRP28       0.2264
     73  O         33.6700   43.3640   -5.7580 O.2    28  TRP28      -0.2867
     74  CB        36.3660   44.4930   -4.2750 C.3    28  TRP28       0.0550
     75  CG        36.7980   44.7080   -2.8460 C.ar   28  TRP28       0.0003
     76  CD1       38.0430   45.0710   -2.4670 C.ar   28  TRP28       0.0946
     77  CD2       35.9960   44.5670   -1.6810 C.ar   28  TRP28       0.0152
     78  NE1       38.0800   45.1760   -1.0990 N.ar   28  TRP28      -0.2442
     79  CE2       36.8230   44.8800   -0.6060 C.ar   28  TRP28       0.0810
     80  CE3       34.6790   44.2460   -1.4200 C.ar   28  TRP28       0.0012
     81  CZ2       36.3890   44.8600    0.7300 C.ar   28  TRP28       0.0191
     82  CZ3       34.2380   44.2320   -0.1290 C.ar   28  TRP28       0.0001
     83  CH2       35.0870   44.5360    0.9480 C.ar   28  TRP28       0.0015
     84  N         32.1040   40.8170   -5.9480 N.3    31  ILE31      -0.1231
     85  CA        30.9630   41.2250   -5.1360 C.3    31  ILE31       0.1692
     86  C         30.1530   42.2980   -5.7880 C.2    31  ILE31       0.2592
     87  O         28.9230   42.2120   -5.8920 O.2    31  ILE31      -0.2718
     88  CB        31.4860   41.6400   -3.7200 C.3    31  ILE31       0.0266
     89  CG1       31.9940   40.4220   -2.9650 C.3    31  ILE31       0.0019
     90  CG2       30.3940   42.3640   -2.9510 C.3    31  ILE31       0.0020
     91  CD1       32.6650   40.6140   -1.6400 C.3    31  ILE31       0.0001
     92  N         30.8000   43.3410   -6.3230 N.am   32  THR32      -0.1953
     93  CA        30.0490   44.4780   -6.8340 C.3    32  THR32       0.1897
     94  C         29.4750   44.2060   -8.2240 C.2    32  THR32       0.2313
     95  O         28.6230   44.9980   -8.6780 O.2    32  THR32      -0.2863
     96  CB        30.9100   45.7670   -6.8580 C.3    32  THR32       0.1794
     97  OG1       32.0930   45.5140   -7.6110 O.3    32  THR32      -0.2208
     98  CG2       31.4020   46.1490   -5.4830 C.3    32  THR32       0.0378
     99  N         25.4960   42.7590   -7.1430 N.3    35  LEU35      -0.1245
    100  CA        25.0100   43.0780   -5.8000 C.3    35  LEU35       0.1561
    101  C         23.5910   42.6290   -5.5680 C.2    35  LEU35       0.2260
    102  O         23.1590   42.4790   -4.4190 O.2    35  LEU35      -0.2867
    103  CB        25.1100   44.5840   -5.4990 C.3    35  LEU35       0.0270
    104  CG        26.5370   45.0890   -5.2810 C.3    35  LEU35       0.0019
    105  CD1       26.5890   46.5910   -5.2370 C.3    35  LEU35       0.0001
    106  CD2       27.1320   44.4880   -3.9980 C.3    35  LEU35       0.0001
    107  N         23.4880   38.9080   -3.2420 N.3    38  HIS38      -0.1226
    108  CA        24.5400   39.2240   -2.2380 C.3    38  HIS38       0.1752
    109  C         24.3250   38.4300   -0.9860 C.2    38  HIS38       0.2596
    110  O         23.6900   38.8830   -0.0450 O.2    38  HIS38      -0.2718
    111  CB        24.4870   40.7150   -2.0020 C.3    38  HIS38       0.0759
    112  CG        25.5200   41.2660   -1.1030 C.ar   38  HIS38       0.0818
    113  ND1       26.7950   41.4930   -1.5600 N.ar   38  HIS38      -0.2268
    114  CD2       25.4600   41.5990    0.1760 C.ar   38  HIS38       0.1154
    115  CE1       27.4870   42.0120   -0.5330 C.ar   38  HIS38       0.1986
    116  NE2       26.7020   42.0930    0.5530 N.ar   38  HIS38      -0.2212
    117  N         24.8570   37.1970   -1.0120 N.am   39  PHE39      -0.1962
    118  CA        24.9190   36.4070    0.2100 C.3    39  PHE39       0.1771
    119  C         23.5600   36.1970    0.8820 C.2    39  PHE39       0.2620
    120  O         23.4040   36.1460    2.1010 O.2    39  PHE39      -0.2715
    121  CB        25.8930   37.0650    1.2040 C.3    39  PHE39       0.0574
    122  CG        27.2730   37.2450    0.6110 C.ar   39  PHE39      -0.0200
    123  CD1       28.0060   36.1540    0.1200 C.ar   39  PHE39      -0.0042
    124  CD2       27.8230   38.5040    0.5290 C.ar   39  PHE39      -0.0042
    125  CE1       29.2950   36.3480   -0.3580 C.ar   39  PHE39      -0.0003
    126  CE2       29.1010   38.6800    0.0690 C.ar   39  PHE39      -0.0003
    127  CZ        29.8370   37.6180   -0.4080 C.ar   39  PHE39      -0.0000
    128  N         22.5200   36.0820    0.0900 N.am   40  GLY40      -0.1940
    129  CA        21.1510   35.8780    0.5260 C.3    40  GLY40       0.2014
    130  C         20.3040   37.1330    0.5600 C.2    40  GLY40       0.2639
    131  O         19.0980   37.0090    0.7760 O.2    40  GLY40      -0.2714
    132  N         20.9100   38.3070    0.3470 N.am   41  ASP41      -0.1957
    133  CA        20.2160   39.5780    0.3380 C.3    41  ASP41       0.1840
    134  C         20.3760   40.2200   -1.0260 C.2    41  ASP41       0.2622
    135  O         21.1520   39.8310   -1.8750 O.2    41  ASP41      -0.2715
    136  CB        20.6770   40.5880    1.3880 C.3    41  ASP41       0.1450
    137  CG        19.4660   41.3180    1.9610 C.2    41  ASP41       0.3671
    138  OD1       19.4890   41.5840    3.1900 O.co2  41  ASP41      -0.2456
    139  OD2       18.4820   41.6490    1.2560 O.co2  41  ASP41      -0.2456
    140  N         19.6380   41.2820   -1.2440 N.am   42  ASN42      -0.1958
    141  CA        19.7890   42.1040   -2.4450 C.3    42  ASN42       0.1819
    142  C         20.3700   43.4550   -2.0880 C.2    42  ASN42       0.2621
    143  O         19.6630   44.2920   -1.5020 O.2    42  ASN42      -0.2715
    144  CB        18.4210   42.2130   -3.1010 C.3    42  ASN42       0.1195
    145  CG        18.4360   43.0020   -4.3840 C.2    42  ASN42       0.2630
    146  OD1       19.2960   43.8720   -4.5920 O.2    42  ASN42      -0.2716
    147  ND2       17.4630   42.7000   -5.2410 N.am   42  ASN42      -0.0877
    148  N         21.6280   43.6520   -2.4240 N.am   43  ALA43      -0.1977
    149  CA        22.3500   44.8560   -2.0810 C.3    43  ALA43       0.1597
    150  C         22.4600   45.7780   -3.2770 C.2    43  ALA43       0.2287
    151  O         23.2800   46.6770   -3.2730 O.2    43  ALA43      -0.2864
    152  CB        23.7300   44.4800   -1.5280 C.3    43  ALA43       0.0319
    153  N         22.3420   48.6210   -5.9770 N.3    45  LEU45      -0.1245
    154  CA        22.3620   50.0720   -5.9380 C.3    45  LEU45       0.1561
    155  C         22.1450   50.6200   -7.3540 C.2    45  LEU45       0.2260
    156  O         22.3020   49.8790   -8.3230 O.2    45  LEU45      -0.2867
    157  CB        23.6790   50.5780   -5.3800 C.3    45  LEU45       0.0270
    158  CG        24.1070   50.0010   -4.0190 C.3    45  LEU45       0.0019
    159  CD1       25.5230   50.3940   -3.6350 C.3    45  LEU45       0.0001
    160  CD2       23.1240   50.4760   -2.9580 C.3    45  LEU45       0.0001
    161  N         31.3150   52.9590   -5.8940 N.3    53  ILE53      -0.1245
    162  CA        31.6770   51.9950   -4.8490 C.3    53  ILE53       0.1561
    163  C         32.7550   51.0420   -5.3270 C.2    53  ILE53       0.2260
    164  O         33.7560   50.8120   -4.6560 O.2    53  ILE53      -0.2867
    165  CB        30.4160   51.2520   -4.3710 C.3    53  ILE53       0.0252
    166  CG1       29.4420   52.1660   -3.6570 C.3    53  ILE53       0.0019
    167  CG2       30.8270   50.0670   -3.4910 C.3    53  ILE53       0.0019
    168  CD1       29.8940   52.6910   -2.4060 C.3    53  ILE53       0.0001
    169  N         36.5930   50.6350   -3.9250 N.3    57  LEU57      -0.1245
    170  CA        37.0950   49.3880   -3.3790 C.3    57  LEU57       0.1561
    171  C         38.2910   48.9140   -4.1520 C.2    57  LEU57       0.2260
    172  O         39.2390   48.4350   -3.5460 O.2    57  LEU57      -0.2867
    173  CB        35.9540   48.3580   -3.3950 C.3    57  LEU57       0.0270
    174  CG        34.8570   48.5600   -2.3470 C.3    57  LEU57       0.0019
    175  CD1       33.6550   47.6460   -2.6160 C.3    57  LEU57       0.0001
    176  CD2       35.3720   48.2790   -0.9570 C.3    57  LEU57       0.0001
    177  N         33.3910   35.5760   -2.9880 N.3    65  GLN65      -0.1182
    178  CA        33.9240   35.0500   -1.7610 C.3    65  GLN65       0.1914
    179  C         33.7810   36.0630   -0.6080 C.2    65  GLN65       0.2634
    180  O         33.8140   37.2650   -0.7580 O.2    65  GLN65      -0.2714
    181  CB        35.4050   34.7150   -1.9090 C.2    65  GLN65       0.0065
    182  CG        35.7300   33.6790   -2.9430 C.2    65  GLN65       0.0585
    183  CD        37.1930   33.3410   -3.1120 C.2    65  GLN65       0.2840
    184  OE1       37.5180   32.6430   -4.1120 O.2    65  GLN65      -0.2667
    185  NE2       38.0460   33.7970   -2.1930 N.am   65  GLN65      -0.0837
    186  N         33.6770   35.4810    0.5750 N.am   66  LYS66      -0.1963
    187  CA        33.6270   36.2530    1.7840 C.3    66  LYS66       0.1728
    188  C         35.0000   36.5330    2.3780 C.2    66  LYS66       0.2616
    189  O         35.9400   35.7890    2.1710 O.2    66  LYS66      -0.2715
    190  CB        32.8140   35.3990    2.7450 C.3    66  LYS66       0.0311
    191  CG        31.3990   35.1470    2.2660 C.3    66  LYS66       0.0038
    192  CD        30.6650   34.4440    3.4020 C.3    66  LYS66       0.0206
    193  CE        29.1890   34.2480    3.1420 C.3    66  LYS66       0.1093
    194  NZ        28.5310   33.5380    4.3070 N.3    66  LYS66      -0.1314
    195  N         35.1360   37.5920    3.1620 N.am   67  ILE67      -0.1963
    196  CA        36.3590   37.8160    3.9580 C.3    67  ILE67       0.1727
    197  C         36.6280   36.6260    4.8660 C.2    67  ILE67       0.2616
    198  O         37.7590   36.2180    5.0170 O.2    67  ILE67      -0.2715
    199  CB        36.2420   39.1120    4.7310 C.3    67  ILE67       0.0290
    200  CG1       36.1450   40.3140    3.7780 C.3    67  ILE67       0.0022
    201  CG2       37.4440   39.2920    5.6280 C.3    67  ILE67       0.0023
    202  CD1       35.6150   41.5920    4.4280 C.3    67  ILE67       0.0001
    203  N         35.5660   36.1220    5.4630 N.am   68  THR68      -0.1951
    204  CA        35.7060   35.0420    6.4680 C.3    68  THR68       0.1897
    205  C         36.0970   33.7270    5.8110 C.2    68  THR68       0.2313
    206  O         36.3190   32.7530    6.5570 O.2    68  THR68      -0.2863
    207  CB        34.4120   34.8870    7.2800 C.3    68  THR68       0.1794
    208  OG1       33.3270   34.7450    6.3570 O.3    68  THR68      -0.2208
    209  CG2       34.1720   36.1210    8.1520 C.3    68  THR68       0.0378
    210  N         28.2720   34.3660   14.1280 N.3    93  SER93      -0.1217
    211  CA        29.2150   34.1030   13.0780 C.3    93  SER93       0.1889
    212  C         30.2550   35.1800   13.1120 C.2    93  SER93       0.2288
    213  O         30.1400   36.1780   13.7950 O.2    93  SER93      -0.2866
    214  CB        28.4340   34.0940   11.7830 C.3    93  SER93       0.2089
    215  OG        28.0300   35.3510   11.4450 O.3    93  SER93      -0.2183
    216  N         31.1120   37.0930   10.6450 N.3    95  SER95      -0.1217
    217  CA        30.9110   38.1650    9.6570 C.3    95  SER95       0.1889
    218  C         30.7810   39.5290   10.2700 C.2    95  SER95       0.2288
    219  O         31.2720   40.4810    9.6700 O.2    95  SER95      -0.2866
    220  CB        29.6490   37.8500    8.8420 C.3    95  SER95       0.2089
    221  OG        29.7750   36.7270    8.0510 O.3    95  SER95      -0.2183
@<TRIPOS>BOND
     1    95    94    2
     2   156   155    2
     3    94    93    1
     4    97    96    1
     5   155   154    1
     6    99   100    1
     7    96    93    1
     8    96    98    1
     9    93    92    1
    10    92    86   am
    11   153   154    1
    12    84    85    1
    13   154   157    1
    14   161   162    1
    15    87    86    2
    16    72    73    2
    17    72    71    1
    18   100   101    1
    19   100   103    1
    20    86    85    1
    21   101   102    2
    22   103   104    1
    23   157   158    1
    24   163   162    1
    25   163   164    2
    26   104   105    1
    27   104   106    1
    28   147   145   am
    29    85    88    1
    30   162   165    1
    31    70    71    1
    32   146   145    2
    33    71    74    1
    34   145   144    1
    35   165   166    1
    36   165   167    1
    37    74    75    1
    38   171   172    2
    39   171   170    1
    40   184   183    2
    41   158   159    1
    42   158   160    1
    43   169   170    1
    44    88    89    1
    45    88    90    1
    46   166   168    1
    47   173   170    1
    48   173   174    1
    49   150   151    2
    50   150   149    1
    51   107   108    1
    52   183   182    1
    53   183   185   am
    54   144   141    1
    55   177   178    1
    56    89    91    1
    57   182   181    2
    58    75    76   ar
    59    75    77   ar
    60   175   174    1
    61    76    78   ar
    62   141   142    1
    63   141   140    1
    64   148   142   am
    65   148   149    1
    66   174   176    1
    67   108   111    1
    68   108   109    1
    69   142   143    2
    70   149   152    1
    71   111   112    1
    72   181   178    1
    73   135   134    2
    74   178   179    1
    75    77    80   ar
    76    77    79   ar
    77    21    19   ar
    78   113   112   ar
    79   113   115   ar
    80    80    82   ar
    81   140   134   am
    82    65    64    2
    83    19    18    1
    84    19    20   ar
    85   112   114   ar
    86    78    79   ar
    87    64    63    1
    88   134   133    1
    89   117   109   am
    90   117   118    1
    91   109   110    2
    92    18    17    1
    93   180   179    2
    94   179   186   am
    95    79    81   ar
    96   115   116   ar
    97    66    63    1
    98    66    67    1
    99   127   125   ar
   100   127   126   ar
   101   125   123   ar
   102    17    14    1
   103    68    67    1
   104    82    83   ar
   105    27    26    1
   106    63    62    1
   107   126   124   ar
   108   128   129    1
   109   128   119   am
   110   123   122   ar
   111   114   116   ar
   112   118   119    1
   113   118   121    1
   114   133   132    1
   115   133   136    1
   116   132   130   am
   117     7     9   ar
   118     7     6   ar
   119    67    69    1
   120   129   130    1
   121   124   122   ar
   122     1     2    1
   123   130   131    2
   124   186   187    1
   125   122   121    1
   126     5     2    1
   127     5     6    1
   128    81    83   ar
   129     9    11   ar
   130     2     3    1
   131   119   120    2
   132     6     8   ar
   133    14    15    1
   134    14    13    1
   135   139   137   ar
   136   136   137    1
   137    16    15    2
   138    15    22   am
   139    26    23    1
   140   187   188    1
   141   187   190    1
   142    11    12    1
   143    11    10   ar
   144   137   138   ar
   145    22    23    1
   146   189   188    2
   147     3     4    2
   148   191   190    1
   149   191   192    1
   150     8    10   ar
   151   188   195   am
   152    23    24    1
   153   193   192    1
   154   193   194    1
   155   195   196    1
   156   200   202    1
   157   200   199    1
   158    24    25    2
   159   196   199    1
   160   196   197    1
   161    53    52    2
   162    49    48   ar
   163    49    47   ar
   164    32    33    1
   165    32    29    1
   166    39    38    1
   167    48    46   ar
   168   199   201    1
   169   197   198    2
   170   197   203   am
   171    57    59   ar
   172    57    55   ar
   173    54    55    1
   174    54    51    1
   175    52    51    1
   176    47    45   ar
   177   203   204    1
   178    59    60   ar
   179    38    35    1
   180    28    29    1
   181    55    56   ar
   182    50    51    1
   183    29    30    1
   184   205   204    1
   185   205   206    2
   186    46    45   ar
   187    34    30   am
   188    34    35    1
   189   208   207    1
   190    45    44    1
   191   204   207    1
   192    30    31    2
   193    35    36    1
   194    60    61    1
   195    60    58   ar
   196    56    58   ar
   197   207   209    1
   198    40    36   am
   199    40    41    1
   200    36    37    2
   201    43    42    2
   202    44    41    1
   203   221   220    1
   204    41    42    1
   205   220   217    1
   206   217   218    1
   207   217   216    1
   208   219   218    2
   209   215   214    1
   210   214   211    1
   211   211   212    1
   212   211   210    1
   213   212   213    2
