@<TRIPOS>MOLECULE
tmp/3u9aB02.pdb
 234 233 0 0 0
SMALL
GASTEIGER

@<TRIPOS>ATOM
      1  N         22.5170   -5.6730   18.2400 N.3    43  HIS43      -0.1241
      2  CA        22.3780   -7.0240   17.7060 C.3    43  HIS43       0.1621
      3  C         21.6200   -7.0700   16.3770 C.2    43  HIS43       0.2264
      4  O         21.6330   -8.0900   15.6880 O.2    43  HIS43      -0.2867
      5  CB        21.7580   -7.9860   18.7300 C.3    43  HIS43       0.0745
      6  CG        20.2660   -7.8860   18.8350 C.ar   43  HIS43       0.0817
      7  ND1       19.6340   -7.1940   19.8430 N.ar   43  HIS43      -0.2268
      8  CD2       19.2830   -8.4000   18.0540 C.ar   43  HIS43       0.1154
      9  CE1       18.3240   -7.2790   19.6760 C.ar   43  HIS43       0.1986
     10  NE2       18.0870   -8.0100   18.6000 N.ar   43  HIS43      -0.2212
     11  N         25.7990   -9.6870   15.2450 N.3    47  TYR47      -0.1241
     12  CA        25.5300  -10.8070   16.1360 C.3    47  TYR47       0.1605
     13  C         26.2050  -12.0510   15.5730 C.2    47  TYR47       0.2264
     14  O         25.5990  -12.8510   14.8630 O.2    47  TYR47      -0.2867
     15  CB        24.0280  -11.0340   16.3430 C.3    47  TYR47       0.0534
     16  CG        23.7450  -11.9170   17.5310 C.ar   47  TYR47      -0.0201
     17  CD1       24.1630  -11.5510   18.8040 C.ar   47  TYR47      -0.0009
     18  CD2       23.0900  -13.1310   17.3770 C.ar   47  TYR47      -0.0009
     19  CE1       23.9230  -12.3590   19.9120 C.ar   47  TYR47       0.0417
     20  CE2       22.8370  -13.9440   18.4680 C.ar   47  TYR47       0.0417
     21  CZ        23.2640  -13.5590   19.7350 C.ar   47  TYR47       0.1957
     22  OH        23.0270  -14.3680   20.8210 O.3    47  TYR47      -0.2866
     23  N         24.9250  -15.7790   14.9650 N.3    50  TRP50      -0.1241
     24  CA        24.0200  -16.0280   13.8560 C.3    50  TRP50       0.1605
     25  C         24.6220  -15.5740   12.5330 C.2    50  TRP50       0.2264
     26  O         23.9000  -15.3950   11.5540 O.2    50  TRP50      -0.2867
     27  CB        22.6880  -15.3060   14.0750 C.3    50  TRP50       0.0550
     28  CG        21.8800  -15.8110   15.2370 C.ar   50  TRP50       0.0003
     29  CD1       22.1300  -16.9140   15.9910 C.ar   50  TRP50       0.0946
     30  CD2       20.6860  -15.2210   15.7710 C.ar   50  TRP50       0.0152
     31  NE1       21.1680  -17.0550   16.9620 N.ar   50  TRP50      -0.2442
     32  CE2       20.2680  -16.0270   16.8460 C.ar   50  TRP50       0.0810
     33  CE3       19.9290  -14.0910   15.4400 C.ar   50  TRP50       0.0012
     34  CZ2       19.1310  -15.7380   17.5990 C.ar   50  TRP50       0.0191
     35  CZ3       18.7980  -13.8080   16.1860 C.ar   50  TRP50       0.0001
     36  CH2       18.4120  -14.6270   17.2550 C.ar   50  TRP50       0.0015
     37  N         27.9810   -9.0270   22.9540 N.3    92  TRP92      -0.1227
     38  CA        27.2010  -10.0460   22.2460 C.3    92  TRP92       0.1737
     39  C         27.5470  -11.4620   22.7080 C.2    92  TRP92       0.2595
     40  O         26.8070  -12.4030   22.4320 O.2    92  TRP92      -0.2718
     41  CB        27.4000   -9.9490   20.7340 C.3    92  TRP92       0.0564
     42  CG        28.8420   -9.9280   20.2790 C.ar   92  TRP92       0.0003
     43  CD1       29.6000   -8.8190   20.0350 C.ar   92  TRP92       0.0946
     44  CD2       29.6820  -11.0570   19.9910 C.ar   92  TRP92       0.0152
     45  NE1       30.8600   -9.1820   19.6280 N.ar   92  TRP92      -0.2442
     46  CE2       30.9380  -10.5490   19.5940 C.ar   92  TRP92       0.0810
     47  CE3       29.4970  -12.4420   20.0320 C.ar   92  TRP92       0.0012
     48  CZ2       32.0000  -11.3790   19.2340 C.ar   92  TRP92       0.0191
     49  CZ3       30.5620  -13.2670   19.6760 C.ar   92  TRP92       0.0001
     50  CH2       31.7950  -12.7300   19.2880 C.ar   92  TRP92       0.0015
     51  N         28.6550  -11.6070   23.4200 N.am   93  ARG93      -0.1966
     52  CA        29.1080  -12.9240   23.8690 C.3    93  ARG93       0.1729
     53  C         28.2590  -13.4960   24.9900 C.2    93  ARG93       0.2616
     54  O         27.9350  -14.6840   24.9980 O.2    93  ARG93      -0.2715
     55  CB        30.5590  -12.8540   24.3360 C.3    93  ARG93       0.0348
     56  CG        31.5130  -12.5440   23.2240 C.3    93  ARG93       0.0492
     57  CD        32.9450  -12.7330   23.6650 C.3    93  ARG93       0.2205
     58  NE        33.7800  -12.9040   22.4900 N.pl3  93  ARG93      -0.0865
     59  CZ        34.0680  -14.0850   21.9580 C.cat  93  ARG93       0.5346
     60  NH1       33.6170  -15.1970   22.5260 N.pl3  93  ARG93       0.1354
     61  NH2       34.8310  -14.1490   20.8800 N.pl3  93  ARG93       0.1354
     62  N         27.8970  -12.6470   25.9430 N.am   94  GLU94      -0.1963
     63  CA        27.2530  -13.1370   27.1530 C.3    94  GLU94       0.1733
     64  C         25.7830  -12.7870   27.3040 C.2    94  GLU94       0.2616
     65  O         24.9400  -13.6750   27.4150 O.2    94  GLU94      -0.2715
     66  CB        27.9860  -12.6360   28.3930 C.3    94  GLU94       0.0429
     67  CG        27.3710  -13.1660   29.6660 C.3    94  GLU94       0.1163
     68  CD        27.9480  -12.5300   30.9060 C.2    94  GLU94       0.3649
     69  OE1       28.8700  -11.6950   30.7770 O.co2  94  GLU94      -0.2457
     70  OE2       27.4740  -12.8670   32.0130 O.co2  94  GLU94      -0.2457
     71  N         25.4770  -11.4900   27.3290 N.am   95  ASN95      -0.1958
     72  CA        24.1640  -11.0500   27.7890 C.3    95  ASN95       0.1819
     73  C         23.6190   -9.8110   27.0850 C.2    95  ASN95       0.2621
     74  O         22.7140   -9.1610   27.6030 O.2    95  ASN95      -0.2715
     75  CB        24.2140  -10.7730   29.2870 C.3    95  ASN95       0.1195
     76  CG        25.2420   -9.7170   29.6460 C.2    95  ASN95       0.2630
     77  OD1       25.9330   -9.1910   28.7660 O.2    95  ASN95      -0.2716
     78  ND2       25.3520   -9.4010   30.9310 N.am   95  ASN95      -0.0877
     79  N         24.1520   -9.4940   25.9080 N.am   96  LEU96      -0.1977
     80  CA        23.7350   -8.2930   25.1790 C.3    96  LEU96       0.1596
     81  C         23.8540   -6.9930   25.9900 C.2    96  LEU96       0.2287
     82  O         23.0890   -6.0510   25.7890 O.2    96  LEU96      -0.2864
     83  CB        22.3010   -8.4600   24.6390 C.3    96  LEU96       0.0297
     84  CG        22.1530   -9.6030   23.6300 C.3    96  LEU96       0.0022
     85  CD1       20.6890   -9.8080   23.2300 C.3    96  LEU96       0.0001
     86  CD2       22.9870   -9.3190   22.3900 C.3    96  LEU96       0.0001
     87  N          5.5160  -16.4290   19.4090 N.3   146  GLU146     -0.1245
     88  CA         6.8600  -16.9950   19.4430 C.3   146  GLU146      0.1567
     89  C          7.0300  -18.0440   18.3450 C.2   146  GLU146      0.2260
     90  O          8.0420  -18.0710   17.6450 O.2   146  GLU146     -0.2867
     91  CB         7.1530  -17.6080   20.8140 C.3   146  GLU146      0.0388
     92  CG         8.5730  -18.1210   20.9580 C.3   146  GLU146      0.1160
     93  CD         8.8190  -18.7830   22.2950 C.2   146  GLU146      0.3649
     94  OE1        8.2190  -18.3480   23.3010 O.co2 146  GLU146     -0.2457
     95  OE2        9.6080  -19.7490   22.3300 O.co2 146  GLU146     -0.2457
     96  N         20.3270  -15.5240   32.9730 N.3   172  ILE172     -0.1245
     97  CA        21.2110  -14.5390   32.3440 C.3   172  ILE172      0.1561
     98  C         21.6230  -13.4910   33.3770 C.2   172  ILE172      0.2260
     99  O         20.8170  -13.0810   34.2250 O.2   172  ILE172     -0.2867
    100  CB        20.5410  -13.8500   31.1080 C.3   172  ILE172      0.0252
    101  CG1       20.2390  -14.8840   30.0200 C.3   172  ILE172      0.0019
    102  CG2       21.4260  -12.7240   30.5540 C.3   172  ILE172      0.0019
    103  CD1       21.4780  -15.4470   29.3650 C.3   172  ILE172      0.0001
    104  N          4.2830   -8.6920   24.8800 N.3   192  ASP192     -0.1225
    105  CA         5.7400   -8.7030   24.8540 C.3   192  ASP192      0.1805
    106  C          6.1580   -8.3000   23.4620 C.2   192  ASP192      0.2598
    107  O          5.3460   -8.3100   22.5290 O.2   192  ASP192     -0.2718
    108  CB         6.2550  -10.1230   25.1510 C.3   192  ASP192      0.1424
    109  CG         7.7610  -10.1790   25.4500 C.2   192  ASP192      0.3668
    110  OD1        8.4160   -9.1230   25.5600 O.co2 192  ASP192     -0.2456
    111  OD2        8.2960  -11.3060   25.5970 O.co2 192  ASP192     -0.2456
    112  N          7.4280   -7.9460   23.3220 N.am  193  ALA193     -0.1966
    113  CA         8.0550   -7.8810   22.0160 C.3   193  ALA193      0.1728
    114  C          8.3800   -9.2930   21.5520 C.2   193  ALA193      0.2616
    115  O          8.2940  -10.2520   22.3230 O.2   193  ALA193     -0.2715
    116  CB         9.3320   -7.0110   22.0780 C.3   193  ALA193      0.0334
    117  N          8.7490   -9.4280   20.2870 N.am  194  CYS194     -0.1954
    118  CA         9.1370  -10.7310   19.7640 C.3   194  CYS194      0.1843
    119  C         10.1850  -10.5680   18.6680 C.2   194  CYS194      0.2625
    120  O         10.6580   -9.4670   18.4070 O.2   194  CYS194     -0.2714
    121  CB         7.8940  -11.4570   19.2350 C.3   194  CYS194      0.0997
    122  SG         8.0210  -13.2830   19.2230 S.3   194  CYS194     -0.0797
    123  N         10.5660  -11.6730   18.0300 N.am  195  GLU195     -0.1977
    124  CA        11.4930  -11.6130   16.9080 C.3   195  GLU195      0.1602
    125  C         11.0050  -10.6100   15.8540 C.2   195  GLU195      0.2287
    126  O          9.8310  -10.6160   15.4820 O.2   195  GLU195     -0.2864
    127  CB        11.6510  -13.0070   16.2830 C.3   195  GLU195      0.0415
    128  CG        12.6010  -13.0580   15.1000 C.3   195  GLU195      0.1163
    129  CD        12.6130  -14.4180   14.4190 C.2   195  GLU195      0.3649
    130  OE1       13.0940  -14.5030   13.2690 O.co2 195  GLU195     -0.2457
    131  OE2       12.1410  -15.3980   15.0350 O.co2 195  GLU195     -0.2457
    132  N         13.0920   -6.3280   17.6240 N.3   198  SER198     -0.1217
    133  CA        14.4450   -5.9170   18.0040 C.3   198  SER198      0.1889
    134  C         14.7970   -4.5440   17.4880 C.2   198  SER198      0.2288
    135  O         14.5580   -4.2540   16.3230 O.2   198  SER198     -0.2866
    136  CB        15.4680   -6.9050   17.4270 C.3   198  SER198      0.2089
    137  OG        15.4390   -8.1430   18.1060 O.3   198  SER198     -0.2183
    138  N         14.1840   -2.3030   22.3850 N.3   218  VAL218     -0.1231
    139  CA        13.8640   -3.7340   22.3940 C.3   218  VAL218      0.1692
    140  C         15.1360   -4.5600   22.2160 C.2   218  VAL218      0.2593
    141  O         15.8000   -4.4630   21.1830 O.2   218  VAL218     -0.2718
    142  CB        12.8910   -4.0870   21.2490 C.3   218  VAL218      0.0266
    143  CG1       12.5790   -5.6000   21.2370 C.3   218  VAL218      0.0020
    144  CG2       11.5990   -3.2780   21.3870 C.3   218  VAL218      0.0020
    145  N         15.4740   -5.3620   23.2260 N.am  219  SER219     -0.1938
    146  CA        16.7460   -6.0910   23.2240 C.3   219  SER219      0.2055
    147  C         16.5980   -7.6140   23.2220 C.2   219  SER219      0.2643
    148  O         16.9700   -8.2580   22.2400 O.2   219  SER219     -0.2714
    149  CB        17.6430   -5.6140   24.3830 C.3   219  SER219      0.2130
    150  OG        18.9080   -6.2700   24.3690 O.3   219  SER219     -0.2179
    151  N         16.0690   -8.2070   24.2900 N.am  220  TRP220     -0.1959
    152  CA        15.9870   -9.6730   24.3330 C.3   220  TRP220      0.1771
    153  C         14.9090  -10.2190   25.2570 C.2   220  TRP220      0.2620
    154  O         14.3740   -9.5110   26.1090 O.2   220  TRP220     -0.2715
    155  CB        17.3530  -10.2910   24.6860 C.3   220  TRP220      0.0590
    156  CG        17.8790   -9.9320   26.0620 C.ar  220  TRP220      0.0006
    157  CD1       18.6450   -8.8480   26.3970 C.ar  220  TRP220      0.0946
    158  CD2       17.6890  -10.6760   27.2760 C.ar  220  TRP220      0.0152
    159  NE1       18.9430   -8.8770   27.7430 N.ar  220  TRP220     -0.2442
    160  CE2       18.3730   -9.9890   28.3000 C.ar  220  TRP220      0.0810
    161  CE3       17.0300  -11.8730   27.5880 C.ar  220  TRP220      0.0012
    162  CZ2       18.4020  -10.4450   29.6190 C.ar  220  TRP220      0.0191
    163  CZ3       17.0550  -12.3220   28.8980 C.ar  220  TRP220      0.0001
    164  CH2       17.7340  -11.6090   29.8990 C.ar  220  TRP220      0.0015
    165  N         14.6100  -11.5010   25.0850 N.am  221  GLY221     -0.1940
    166  CA        13.6640  -12.1840   25.9420 C.3   221  GLY221      0.2014
    167  C         13.8420  -13.6740   25.7370 C.2   221  GLY221      0.2639
    168  O         14.2680  -14.1170   24.6720 O.2   221  GLY221     -0.2714
    169  N         13.4990  -14.4500   26.7530 N.am  222  GLU222     -0.1963
    170  CA        13.5660  -15.9030   26.6420 C.3   222  GLU222      0.1733
    171  C         12.2540  -16.3580   26.0010 C.2   222  GLU222      0.2617
    172  O         11.2470  -16.5230   26.6750 O.2   222  GLU222     -0.2715
    173  CB        13.7970  -16.5230   28.0190 C.3   222  GLU222      0.0429
    174  CG        15.1060  -16.0650   28.6590 C.3   222  GLU222      0.1163
    175  CD        15.4190  -16.7590   29.9710 C.2   222  GLU222      0.3649
    176  OE1       15.1100  -16.1870   31.0350 O.co2 222  GLU222     -0.2457
    177  OE2       15.9810  -17.8740   29.9350 O.co2 222  GLU222     -0.2457
    178  N         12.2640  -16.4890   24.6770 N.am  223  GLY223     -0.1940
    179  CA        11.0330  -16.7100   23.9360 C.3   223  GLY223      0.2014
    180  C         10.2940  -15.3850   23.8010 C.2   223  GLY223      0.2639
    181  O         10.9180  -14.3280   23.8920 O.2   223  GLY223     -0.2714
    182  N          8.9790  -15.4400   23.5910 N.am  224  CYS224     -0.1967
    183  CA         8.1380  -14.2430   23.5310 C.3   224  CYS224      0.1712
    184  C          6.8690  -14.4710   24.3470 C.2   224  CYS224      0.2296
    185  O          6.1720  -15.4800   24.1610 O.2   224  CYS224     -0.2864
    186  CB         7.7350  -13.9310   22.0830 C.3   224  CYS224      0.0983
    187  SG         9.0690  -13.9030   20.8670 S.3   224  CYS224     -0.0798
    188  N          6.2460  -15.4000   27.3290 N.3   226  ARG226     -0.1245
    189  CA         6.1220  -16.5680   28.1920 C.3   226  ARG226      0.1563
    190  C          5.7700  -16.1360   29.6050 C.2   226  ARG226      0.2260
    191  O          6.2400  -15.1050   30.0960 O.2   226  ARG226     -0.2867
    192  CB         7.4040  -17.3980   28.2040 C.3   226  ARG226      0.0307
    193  CG         7.7290  -18.0330   26.8780 C.3   226  ARG226      0.0489
    194  CD         8.8360  -19.0550   27.0330 C.3   226  ARG226      0.2205
    195  NE         9.1240  -19.6940   25.7600 N.pl3 226  ARG226     -0.0865
    196  CZ         9.7540  -20.8580   25.6370 C.cat 226  ARG226      0.5346
    197  NH1       10.1700  -21.5050   26.7150 N.pl3 226  ARG226      0.1354
    198  NH2        9.9660  -21.3730   24.4340 N.pl3 226  ARG226      0.1354
    199  N          8.4550  -14.9230   32.3100 N.3   229  LYS229     -0.1245
    200  CA         9.5620  -14.2600   31.6200 C.3   229  LYS229      0.1561
    201  C          9.1830  -12.8070   31.3520 C.2   229  LYS229      0.2260
    202  O          8.0070  -12.4350   31.4020 O.2   229  LYS229     -0.2867
    203  CB         9.8880  -14.9500   30.2910 C.3   229  LYS229      0.0271
    204  CG        10.2760  -16.4330   30.4100 C.3   229  LYS229      0.0035
    205  CD        11.5450  -16.6190   31.2260 C.3   229  LYS229      0.0206
    206  CE        11.9740  -18.0800   31.2230 C.3   229  LYS229      0.1093
    207  NZ        13.2420  -18.2850   31.9820 N.3   229  LYS229     -0.1314
    208  N         10.4240   -9.0360   28.9790 N.3   231  GLY231     -0.1210
    209  CA        11.2100   -8.4730   27.9000 C.3   231  GLY231      0.1956
    210  C         12.2830   -7.5810   28.4890 C.2   231  GLY231      0.2612
    211  O         12.0430   -6.9040   29.4930 O.2   231  GLY231     -0.2717
    212  N         13.4650   -7.6000   27.8850 N.am  232  PHE232     -0.1962
    213  CA        14.5760   -6.7760   28.3610 C.3   232  PHE232      0.1771
    214  C         14.9260   -5.7230   27.3570 C.2   232  PHE232      0.2619
    215  O         14.9730   -5.9750   26.1460 O.2   232  PHE232     -0.2715
    216  CB        15.8030   -7.6470   28.6910 C.3   232  PHE232      0.0574
    217  CG        15.6640   -8.3970   29.9860 C.ar  232  PHE232     -0.0200
    218  CD1       14.8970   -9.5510   30.0490 C.ar  232  PHE232     -0.0042
    219  CD2       16.2650   -7.9250   31.1440 C.ar  232  PHE232     -0.0042
    220  CE1       14.7340  -10.2300   31.2520 C.ar  232  PHE232     -0.0003
    221  CE2       16.1170   -8.6110   32.3480 C.ar  232  PHE232     -0.0003
    222  CZ        15.3520   -9.7630   32.3920 C.ar  232  PHE232     -0.0000
    223  N         15.1600   -4.5260   27.8830 N.am  233  TYR233     -0.1974
    224  CA        15.3220   -3.3360   27.0740 C.3   233  TYR233      0.1639
    225  C         16.6250   -2.6340   27.4070 C.2   233  TYR233      0.2290
    226  O         16.9800   -2.4980   28.5650 O.2   233  TYR233     -0.2864
    227  CB        14.1280   -2.3870   27.3100 C.3   233  TYR233      0.0560
    228  CG        12.8190   -3.0140   26.9070 C.ar  233  TYR233     -0.0198
    229  CD1       12.1460   -3.8760   27.7730 C.ar  233  TYR233     -0.0009
    230  CD2       12.2960   -2.8290   25.6310 C.ar  233  TYR233     -0.0009
    231  CE1       10.9640   -4.5040   27.3810 C.ar  233  TYR233      0.0417
    232  CE2       11.1250   -3.4600   25.2360 C.ar  233  TYR233      0.0417
    233  CZ        10.4630   -4.2870   26.1190 C.ar  233  TYR233      0.1957
    234  OH         9.3000   -4.9270   25.7280 O.3   233  TYR233     -0.2866
@<TRIPOS>BOND
     1    26    25    2
     2    25    24    1
     3   130   129   ar
     4    24    27    1
     5    24    23    1
     6    27    28    1
     7   129   131   ar
     8   129   128    1
     9    14    13    2
    10   128   127    1
    11    28    30   ar
    12    28    29   ar
    13    11    12    1
    14    33    30   ar
    15    33    35   ar
    16   126   125    2
    17    13    12    1
    18     4     3    2
    19    30    32   ar
    20   125   124    1
    21    29    31   ar
    22    12    15    1
    23    35    36   ar
    24   127   124    1
    25   135   134    2
    26    15    16    1
    27     3     2    1
    28    32    31   ar
    29    32    34   ar
    30   124   123    1
    31    36    34   ar
    32    18    16   ar
    33    18    20   ar
    34   136   133    1
    35   136   137    1
    36   134   133    1
    37    16    17   ar
    38   132   133    1
    39    90    89    2
    40     2     1    1
    41     2     5    1
    42   123   119   am
    43     8    10   ar
    44     8     6   ar
    45    89    88    1
    46   120   119    2
    47    20    21   ar
    48    10     9   ar
    49   119   118    1
    50     5     6    1
    51    17    19   ar
    52     6     7   ar
    53   122   121    1
    54   122   187    1
    55    48    50   ar
    56    48    46   ar
    57   121   118    1
    58    50    49   ar
    59    87    88    1
    60    88    91    1
    61    46    45   ar
    62    46    44   ar
    63    45    43   ar
    64     9     7   ar
    65    49    47   ar
    66    21    19   ar
    67    21    22    1
    68   118   117    1
    69    44    47   ar
    70    44    42   ar
    71    43    42   ar
    72    42    41    1
    73   117   114   am
    74    41    38    1
    75    91    92    1
    76   187   186    1
    77    61    59    1
    78    92    93    1
    79   141   140    2
    80   143   142    1
    81   142   144    1
    82   142   139    1
    83   114   113    1
    84   114   115    2
    85    59    58    2
    86    59    60    1
    87   113   116    1
    88   113   112    1
    89   186   183    1
    90   140   139    1
    91   140   145   am
    92   148   147    2
    93    38    39    1
    94    38    37    1
    95    93    95   ar
    96    93    94   ar
    97   138   139    1
    98    86    84    1
    99    40    39    2
   100    58    57    1
   101   107   106    2
   102    39    51   am
   103   147   146    1
   104   147   151   am
   105   146   145    1
   106   146   149    1
   107    56    57    1
   108    56    55    1
   109    85    84    1
   110   112   106   am
   111    51    52    1
   112   106   105    1
   113   183   182    1
   114   183   184    1
   115   182   180   am
   116    84    83    1
   117   180   181    2
   118   180   179    1
   119    52    55    1
   120    52    53    1
   121   179   178    1
   122   185   184    2
   123   151   152    1
   124   152   155    1
   125   152   153    1
   126   150   149    1
   127   198   196    1
   128    83    80    1
   129   168   167    2
   130   178   171   am
   131   155   156    1
   132   105   104    1
   133   105   108    1
   134    53    54    2
   135    53    62   am
   136   165   153   am
   137   165   166    1
   138   108   109    1
   139    80    79    1
   140    80    81    1
   141   232   230   ar
   142   232   233   ar
   143   153   154    2
   144   109   110   ar
   145   109   111   ar
   146   230   228   ar
   147   196   195    2
   148   196   197    1
   149   234   233    1
   150   167   166    1
   151   167   169   am
   152   195   194    1
   153    82    81    2
   154    79    73   am
   155    62    63    1
   156   171   170    1
   157   171   172    2
   158   156   157   ar
   159   156   158   ar
   160   233   231   ar
   161   215   214    2
   162   157   159   ar
   163   170   169    1
   164   170   173    1
   165   193   194    1
   166   193   192    1
   167   228   227    1
   168   228   229   ar
   169   224   227    1
   170   224   225    1
   171   224   223    1
   172    73    74    2
   173    73    72    1
   174    63    64    1
   175    63    66    1
   176   158   161   ar
   177   158   160   ar
   178    64    71   am
   179    64    65    2
   180   188   189    1
   181    71    72    1
   182   214   223   am
   183   214   213    1
   184   231   229   ar
   185   225   226    2
   186   161   163   ar
   187   159   160   ar
   188    72    75    1
   189   212   213    1
   190   212   210   am
   191   209   210    1
   192   209   208    1
   193   173   174    1
   194   189   192    1
   195   189   190    1
   196   160   162   ar
   197   213   216    1
   198    66    67    1
   199   210   211    2
   200   174   175    1
   201   216   217    1
   202    77    76    2
   203   163   164   ar
   204    75    76    1
   205   103   101    1
   206   190   191    2
   207   162   164   ar
   208    76    78   am
   209    67    68    1
   210   177   175   ar
   211   175   176   ar
   212   217   218   ar
   213   217   219   ar
   214   101   100    1
   215   218   220   ar
   216   203   204    1
   217   203   200    1
   218   204   205    1
   219   102   100    1
   220    69    68   ar
   221    68    70   ar
   222   100    97    1
   223   219   221   ar
   224   206   205    1
   225   206   207    1
   226   220   222   ar
   227   201   202    2
   228   201   200    1
   229   200   199    1
   230    97    96    1
   231    97    98    1
   232   221   222   ar
   233    98    99    2
