@<TRIPOS>MOLECULE
tmp/3u9cA00.pdb
 139 132 0 0 0
SMALL
GASTEIGER

@<TRIPOS>ATOM
      1  N         50.9330   -9.2400   31.6350 N.3    44  LEU44      -0.1245
      2  CA        49.7780   -8.4410   31.2410 C.3    44  LEU44       0.1561
      3  C         50.2090   -7.0430   30.8140 C.2    44  LEU44       0.2260
      4  O         49.5300   -6.3850   30.0250 O.2    44  LEU44      -0.2867
      5  CB        48.7560   -8.3660   32.3770 C.3    44  LEU44       0.0270
      6  CG        48.0300   -9.6690   32.7110 C.3    44  LEU44       0.0019
      7  CD1       47.0960   -9.4820   33.8970 C.3    44  LEU44       0.0001
      8  CD2       47.2640  -10.1750   31.4990 C.3    44  LEU44       0.0001
      9  N         53.3640   -6.5780   35.8530 N.3    52  VAL52      -0.1245
     10  CA        52.1130   -7.2830   36.1150 C.3    52  VAL52       0.1561
     11  C         51.9720   -8.5420   35.2610 C.2    52  VAL52       0.2260
     12  O         52.1650   -8.5040   34.0460 O.2    52  VAL52      -0.2867
     13  CB        50.8960   -6.3620   35.8880 C.3    52  VAL52       0.0252
     14  CG1       49.5980   -7.1380   36.0380 C.3    52  VAL52       0.0019
     15  CG2       50.9330   -5.1940   36.8590 C.3    52  VAL52       0.0019
     16  N         46.0250  -12.2620   39.5300 N.3    65  VAL65      -0.1245
     17  CA        46.9400  -11.2870   38.9520 C.3    65  VAL65       0.1561
     18  C         48.0410  -10.9330   39.9420 C.2    65  VAL65       0.2260
     19  O         47.7700  -10.4480   41.0400 O.2    65  VAL65      -0.2867
     20  CB        46.2040  -10.0060   38.5180 C.3    65  VAL65       0.0252
     21  CG1       47.2000   -8.9140   38.1630 C.3    65  VAL65       0.0019
     22  CG2       45.2780  -10.3000   37.3470 C.3    65  VAL65       0.0019
     23  N         51.3460   -8.7150   40.9380 N.3    67  LYS67      -0.1245
     24  CA        51.9950   -7.4400   40.6690 C.3    67  LYS67       0.1561
     25  C         53.3470   -7.4020   41.3660 C.2    67  LYS67       0.2260
     26  O         53.4380   -7.0970   42.5550 O.2    67  LYS67      -0.2867
     27  CB        51.1160   -6.2910   41.1620 C.3    67  LYS67       0.0271
     28  CG        51.7330   -4.9120   40.9970 C.3    67  LYS67       0.0035
     29  CD        50.8480   -3.8520   41.6260 C.3    67  LYS67       0.0206
     30  CE        51.5410   -2.5020   41.6970 C.3    67  LYS67       0.1093
     31  NZ        50.7760   -1.5190   42.5120 N.3    67  LYS67      -0.1314
     32  N         50.8550    0.8950   50.5670 N.3    80  GLU80      -0.1245
     33  CA        49.9700    0.3100   49.5670 C.3    80  GLU80       0.1567
     34  C         49.2910   -0.9440   50.1080 C.2    80  GLU80       0.2260
     35  O         48.1020   -1.1600   49.8840 O.2    80  GLU80      -0.2867
     36  CB        50.7420   -0.0210   48.2870 C.3    80  GLU80       0.0388
     37  CG        49.8710   -0.5850   47.1730 C.3    80  GLU80       0.1160
     38  CD        50.6340   -0.8080   45.8820 C.2    80  GLU80       0.3649
     39  OE1       51.8240   -0.4320   45.8180 O.co2  80  GLU80      -0.2457
     40  OE2       50.0420   -1.3600   44.9310 O.co2  80  GLU80      -0.2457
     41  N         45.3010   -1.2430   50.8980 N.3    84  LEU84      -0.1245
     42  CA        44.5690   -2.3190   50.2380 C.3    84  LEU84       0.1561
     43  C         43.7780   -3.1620   51.2370 C.2    84  LEU84       0.2260
     44  O         42.6510   -3.5730   50.9580 O.2    84  LEU84      -0.2867
     45  CB        45.5240   -3.2100   49.4430 C.3    84  LEU84       0.0270
     46  CG        45.9820   -2.6610   48.0920 C.3    84  LEU84       0.0019
     47  CD1       47.0430   -3.5660   47.4820 C.3    84  LEU84       0.0001
     48  CD2       44.7940   -2.5010   47.1570 C.3    84  LEU84       0.0001
     49  N         39.6430   -2.8920   44.0370 N.3    94  ILE94      -0.1245
     50  CA        40.3960   -4.1070   43.7490 C.3    94  ILE94       0.1561
     51  C         40.6920   -4.8690   45.0410 C.2    94  ILE94       0.2260
     52  O         40.8470   -4.2710   46.1070 O.2    94  ILE94      -0.2867
     53  CB        41.7060   -3.7970   42.9820 C.3    94  ILE94       0.0252
     54  CG1       42.2650   -5.0610   42.3270 C.3    94  ILE94       0.0019
     55  CG2       42.7370   -3.1490   43.8970 C.3    94  ILE94       0.0019
     56  CD1       41.3260   -5.6850   41.3260 C.3    94  ILE94       0.0001
     57  N         46.3390  -10.1740   43.3280 N.3   112  PHE112     -0.1227
     58  CA        44.9800   -9.6520   43.2830 C.3   112  PHE112      0.1736
     59  C         44.0170  -10.6410   42.6440 C.2   112  PHE112      0.2595
     60  O         44.4310  -11.5420   41.9140 O.2   112  PHE112     -0.2718
     61  CB        44.9380   -8.3310   42.5100 C.3   112  PHE112      0.0547
     62  CG        45.7770   -7.2470   43.1150 C.ar  112  PHE112     -0.0202
     63  CD1       45.2660   -6.4300   44.1070 C.ar  112  PHE112     -0.0042
     64  CD2       47.0780   -7.0420   42.6870 C.ar  112  PHE112     -0.0042
     65  CE1       46.0380   -5.4320   44.6650 C.ar  112  PHE112     -0.0003
     66  CE2       47.8550   -6.0450   43.2410 C.ar  112  PHE112     -0.0003
     67  CZ        47.3340   -5.2390   44.2330 C.ar  112  PHE112     -0.0000
     68  N         42.7310  -10.4710   42.9340 N.am  113  GLU113     -0.1965
     69  CA        41.6900  -11.2270   42.2560 C.3   113  GLU113      0.1733
     70  C         41.7700  -10.9040   40.7700 C.2   113  GLU113      0.2616
     71  O         42.0470   -9.7650   40.3900 O.2   113  GLU113     -0.2715
     72  CB        40.3130  -10.8490   42.8040 C.3   113  GLU113      0.0429
     73  CG        39.9840   -9.3660   42.7030 C.3   113  GLU113      0.1163
     74  CD        38.5380   -9.0620   43.0410 C.2   113  GLU113      0.3649
     75  OE1       37.8080   -9.9930   43.4430 O.co2 113  GLU113     -0.2457
     76  OE2       38.1300   -7.8890   42.9010 O.co2 113  GLU113     -0.2457
     77  N         41.5450  -11.9050   39.9270 N.am  114  HIS114     -0.1959
     78  CA        41.6250  -11.6840   38.4910 C.3   114  HIS114      0.1787
     79  C         40.3990  -10.9160   38.0160 C.2   114  HIS114      0.2620
     80  O         39.2620  -11.3170   38.2660 O.2   114  HIS114     -0.2715
     81  CB        41.7520  -13.0070   37.7340 C.3   114  HIS114      0.0785
     82  CG        41.9720  -12.8400   36.2620 C.ar  114  HIS114      0.0821
     83  ND1       42.3980  -11.6540   35.7040 N.ar  114  HIS114     -0.2267
     84  CD2       41.8330  -13.7110   35.2340 C.ar  114  HIS114      0.1154
     85  CE1       42.5100  -11.8000   34.3960 C.ar  114  HIS114      0.1986
     86  NE2       42.1720  -13.0380   34.0850 N.ar  114  HIS114     -0.2212
     87  N         40.6460   -9.8050   37.3330 N.am  115  VAL115     -0.1977
     88  CA        39.5850   -8.9860   36.7740 C.3   115  VAL115      0.1596
     89  C         39.8220   -8.9380   35.2720 C.2   115  VAL115      0.2287
     90  O         40.9710   -8.9390   34.8270 O.2   115  VAL115     -0.2864
     91  CB        39.6450   -7.5570   37.3490 C.3   115  VAL115      0.0276
     92  CG1       38.6180   -6.6520   36.6800 C.3   115  VAL115      0.0022
     93  CG2       39.4180   -7.5900   38.8510 C.3   115  VAL115      0.0022
     94  N         40.8830   -8.0260   32.0370 N.3   117  ASN117     -0.1240
     95  CA        41.9390   -7.0640   31.7300 C.3   117  ASN117      0.1653
     96  C         41.5730   -6.0370   30.6550 C.2   117  ASN117      0.2266
     97  O         42.3780   -5.7390   29.7720 O.2   117  ASN117     -0.2867
     98  CB        43.2250   -7.8010   31.3420 C.3   117  ASN117      0.1155
     99  CG        44.4690   -6.9680   31.5800 C.2   117  ASN117      0.2627
    100  OD1       44.9440   -6.8490   32.7100 O.2   117  ASN117     -0.2716
    101  ND2       45.0050   -6.3850   30.5140 N.am  117  ASN117     -0.0877
    102  N         39.7800   -0.7430   35.7220 N.3   162  MET162     -0.1245
    103  CA        39.4610   -1.9800   35.0190 C.3   162  MET162      0.1570
    104  C         37.9520   -2.1780   34.9740 C.2   162  MET162      0.2261
    105  O         37.2650   -1.9850   35.9760 O.2   162  MET162     -0.2867
    106  CB        40.1200   -3.1770   35.7110 C.3   162  MET162      0.0387
    107  CG        41.6430   -3.1370   35.7640 C.3   162  MET162      0.0595
    108  SD        42.4390   -3.4050   34.1680 S.3   162  MET162     -0.1393
    109  CE        42.8210   -1.7230   33.6850 C.3   162  MET162      0.0692
    110  N         42.0110    0.5210   40.5480 N.3   173  ILE173     -0.1231
    111  CA        43.2590   -0.1510   40.9030 C.3   173  ILE173      0.1692
    112  C         44.4330    0.8060   41.1090 C.2   173  ILE173      0.2592
    113  O         44.2670    2.0270   41.0920 O.2   173  ILE173     -0.2718
    114  CB        43.6540   -1.2000   39.8390 C.3   173  ILE173      0.0266
    115  CG1       44.0100   -0.5170   38.5160 C.3   173  ILE173      0.0019
    116  CG2       42.5300   -2.2020   39.6340 C.3   173  ILE173      0.0020
    117  CD1       44.5530   -1.4640   37.4690 C.3   173  ILE173      0.0001
    118  N         45.6170    0.2250   41.2920 N.am  174  ASP174     -0.1960
    119  CA        46.8560    0.9650   41.5350 C.3   174  ASP174      0.1840
    120  C         46.7710    1.9530   42.6960 C.2   174  ASP174      0.2622
    121  O         46.6290    3.1580   42.4950 O.2   174  ASP174     -0.2715
    122  CB        47.3420    1.6650   40.2620 C.3   174  ASP174      0.1450
    123  CG        48.7690    2.1650   40.3830 C.2   174  ASP174      0.3671
    124  OD1       48.9590    3.3590   40.7000 O.co2 174  ASP174     -0.2456
    125  OD2       49.7000    1.3600   40.1680 O.co2 174  ASP174     -0.2456
    126  N         46.8650    1.4260   43.9120 N.am  175  TRP175     -0.1974
    127  CA        46.8220    2.2520   45.1110 C.3   175  TRP175      0.1640
    128  C         48.2330    2.4900   45.6390 C.2   175  TRP175      0.2290
    129  O         48.4290    2.7440   46.8270 O.2   175  TRP175     -0.2864
    130  CB        45.9560    1.5850   46.1800 C.3   175  TRP175      0.0576
    131  CG        44.5380    1.3720   45.7440 C.ar  175  TRP175      0.0006
    132  CD1       44.0430    0.3040   45.0530 C.ar  175  TRP175      0.0946
    133  CD2       43.4290    2.2550   45.9650 C.ar  175  TRP175      0.0152
    134  NE1       42.6970    0.4660   44.8310 N.ar  175  TRP175     -0.2442
    135  CE2       42.2960    1.6550   45.3800 C.ar  175  TRP175      0.0810
    136  CE3       43.2860    3.4930   46.5990 C.ar  175  TRP175      0.0012
    137  CZ2       41.0370    2.2500   45.4120 C.ar  175  TRP175      0.0191
    138  CZ3       42.0350    4.0830   46.6290 C.ar  175  TRP175      0.0001
    139  CH2       40.9270    3.4610   46.0400 C.ar  175  TRP175      0.0015
@<TRIPOS>BOND
     1    97    96    2
     2     4     3    2
     3   101    99   am
     4    96    95    1
     5     3     2    1
     6     2     1    1
     7     2     5    1
     8    98    99    1
     9    98    95    1
    10     8     6    1
    11    99   100    2
    12    95    94    1
    13     5     6    1
    14     6     7    1
    15   109   108    1
    16    12    11    2
    17    86    85   ar
    18    86    84   ar
    19   108   107    1
    20    85    83   ar
    21    90    89    2
    22   104   103    1
    23   104   105    2
    24   103   106    1
    25   103   102    1
    26    84    82   ar
    27    11    10    1
    28    89    88    1
    29    83    82   ar
    30   106   107    1
    31     9    10    1
    32    13    14    1
    33    13    10    1
    34    13    15    1
    35    82    81    1
    36    92    91    1
    37    88    87    1
    38    88    91    1
    39    87    79   am
    40    22    20    1
    41    91    93    1
    42   117   115    1
    43    81    78    1
    44    79    80    2
    45    79    78    1
    46    21    20    1
    47    78    77    1
    48   115   114    1
    49    20    17    1
    50    17    16    1
    51    17    18    1
    52   116   114    1
    53   114   111    1
    54    77    70   am
    55    18    19    2
    56   125   123   ar
    57   122   123    1
    58   122   119    1
    59   123   124   ar
    60    71    70    2
    61   110   111    1
    62    24    23    1
    63    24    27    1
    64    24    25    1
    65    70    69    1
    66   111   112    1
    67    28    27    1
    68    28    29    1
    69   113   112    2
    70   112   118   am
    71   118   119    1
    72    56    54    1
    73    25    26    2
    74   119   120    1
    75    29    30    1
    76    30    31    1
    77    60    59    2
    78    69    72    1
    79    69    68    1
    80    54    53    1
    81   121   120    2
    82    61    62    1
    83    61    58    1
    84    59    68   am
    85    59    58    1
    86    64    62   ar
    87    64    66   ar
    88   120   126   am
    89    73    72    1
    90    73    74    1
    91    76    74   ar
    92    53    50    1
    93    53    55    1
    94    74    75   ar
    95    62    63   ar
    96    66    67   ar
    97    58    57    1
    98    50    49    1
    99    50    51    1
   100   126   127    1
   101    63    65   ar
   102    67    65   ar
   103   134   132   ar
   104   134   135   ar
   105    40    38   ar
   106    51    52    2
   107   132   131   ar
   108   127   128    1
   109   127   130    1
   110   135   137   ar
   111   135   133   ar
   112   137   139   ar
   113   128   129    2
   114   131   133   ar
   115   131   130    1
   116    39    38   ar
   117    38    37    1
   118   133   136   ar
   119   139   138   ar
   120   136   138   ar
   121    48    46    1
   122    37    36    1
   123    47    46    1
   124    46    45    1
   125    36    33    1
   126    45    42    1
   127    33    34    1
   128    33    32    1
   129    35    34    2
   130    42    41    1
   131    42    43    1
   132    44    43    2
