@<TRIPOS>MOLECULE
tmp/3u9eB01.pdb
 105 99 0 0 0
SMALL
GASTEIGER

@<TRIPOS>ATOM
      1  N        -16.5980   -0.1900  -12.0010 N.3    88  LYS88      -0.1245
      2  CA       -17.4430    0.8910  -11.5210 C.3    88  LYS88       0.1561
      3  C        -16.7170    2.2140  -11.7240 C.2    88  LYS88       0.2260
      4  O        -15.6910    2.4650  -11.0990 O.2    88  LYS88      -0.2867
      5  CB       -17.8030    0.6780  -10.0440 C.3    88  LYS88       0.0271
      6  CG       -18.5980    1.8240   -9.3880 C.3    88  LYS88       0.0035
      7  CD       -17.6490    2.7770   -8.6860 C.3    88  LYS88       0.0206
      8  CE       -18.3750    3.8290   -7.8960 C.3    88  LYS88       0.1093
      9  NZ       -17.5410    5.0480   -7.8000 N.3    88  LYS88      -0.1314
     10  N        -19.6570    6.9800  -11.0950 N.3    91  ILE91      -0.1231
     11  CA       -21.0840    6.9540  -10.7960 C.3    91  ILE91       0.1678
     12  C        -21.2540    6.4600   -9.3720 C.2    91  ILE91       0.2434
     13  O        -20.3490    5.8150   -8.8270 O.2    91  ILE91      -0.2733
     14  CB       -21.8050    5.9690  -11.7150 C.3    91  ILE91       0.0265
     15  CG1      -21.1090    4.6030  -11.6510 C.3    91  ILE91       0.0019
     16  CG2      -21.8160    6.4790  -13.1230 C.3    91  ILE91       0.0020
     17  CD1      -21.8800    3.5050  -12.3440 C.3    91  ILE91       0.0001
     18  N        -22.4040    6.7500   -8.7480 N.am   92  PRO92      -0.2718
     19  CA       -22.6090    6.1820   -7.4050 C.3    92  PRO92       0.1535
     20  C        -22.5350    4.6590   -7.4760 C.2    92  PRO92       0.2599
     21  O        -22.9460    4.0700   -8.4770 O.2    92  PRO92      -0.2715
     22  CB       -24.0340    6.6300   -7.0360 C.3    92  PRO92       0.0310
     23  CG       -24.3590    7.7560   -7.9860 C.3    92  PRO92       0.0237
     24  CD       -23.5660    7.5130   -9.2320 C.3    92  PRO92       0.0939
     25  N        -22.0160    4.0180   -6.4360 N.am   93  THR93      -0.1937
     26  CA       -21.8930    2.5680   -6.4490 C.3    93  THR93       0.2028
     27  C        -23.2580    1.8880   -6.5250 C.2    93  THR93       0.2642
     28  O        -23.4520    0.9320   -7.2800 O.2    93  THR93      -0.2714
     29  CB       -21.1270    2.0560   -5.2120 C.3    93  THR93       0.1808
     30  OG1      -19.7990    2.5940   -5.2220 O.3    93  THR93      -0.2208
     31  CG2      -21.0520    0.5320   -5.2400 C.3    93  THR93       0.0379
     32  N        -24.2070    2.3890   -5.7430 N.am   94  ALA94      -0.1977
     33  CA       -25.5580    1.8400   -5.7230 C.3    94  ALA94       0.1597
     34  C        -26.2130    1.8290   -7.1130 C.2    94  ALA94       0.2287
     35  O        -27.0370    0.9580   -7.4090 O.2    94  ALA94      -0.2864
     36  CB       -26.4240    2.5990   -4.7190 C.3    94  ALA94       0.0319
     37  N        -16.4830   -8.3070   -1.1320 N.3   114  GLN114     -0.1245
     38  CA       -15.2140   -7.7090   -1.5490 C.3   114  GLN114      0.1566
     39  C        -14.0820   -8.5510   -0.9980 C.2   114  GLN114      0.2260
     40  O        -14.1930   -9.1020    0.0970 O.2   114  GLN114     -0.2867
     41  CB       -15.0570   -6.2900   -1.0010 C.3   114  GLN114      0.0367
     42  CG       -13.7140   -5.6150   -1.3760 C.3   114  GLN114      0.0905
     43  CD       -12.6090   -5.8140   -0.3260 C.2   114  GLN114      0.2608
     44  OE1      -12.7150   -6.6630    0.5630 O.2   114  GLN114     -0.2717
     45  NE2      -11.5550   -5.0170   -0.4240 N.am  114  GLN114     -0.0878
     46  N        -14.8880   -4.2460    2.6660 N.3   133  ALA133     -0.1245
     47  CA       -15.5540   -3.0930    2.0530 C.3   133  ALA133      0.1562
     48  C        -17.0190   -3.2720    1.6890 C.2   133  ALA133      0.2260
     49  O        -17.7040   -2.3010    1.3730 O.2   133  ALA133     -0.2867
     50  CB       -14.7720   -2.6270    0.8200 C.3   133  ALA133      0.0290
     51  N         -6.3880   -0.9380    5.4390 N.3   238  LYS238     -0.1245
     52  CA        -5.7860    0.3920    5.4290 C.3   238  LYS238      0.1561
     53  C         -4.4550    0.3670    6.1650 C.2   238  LYS238      0.2260
     54  O         -3.4920    1.0580    5.7820 O.2   238  LYS238     -0.2867
     55  CB        -6.7410    1.4050    6.0750 C.3   238  LYS238      0.0271
     56  CG        -8.1080    1.4920    5.4040 C.3   238  LYS238      0.0035
     57  CD        -8.0080    2.0910    4.0050 C.3   238  LYS238      0.0206
     58  CE        -9.3540    2.0600    3.2650 C.3   238  LYS238      0.1093
     59  NZ       -10.3400    3.0930    3.7410 N.3   238  LYS238     -0.1314
     60  N        -14.6930   -7.1790   -6.3010 N.3   252  VAL252     -0.1245
     61  CA       -15.9190   -7.7450   -5.7590 C.3   252  VAL252      0.1561
     62  C        -16.1490   -9.0430   -6.5140 C.2   252  VAL252      0.2260
     63  O        -16.1190   -9.0690   -7.7440 O.2   252  VAL252     -0.2867
     64  CB       -17.0940   -6.7850   -5.9560 C.3   252  VAL252      0.0252
     65  CG1      -18.4050   -7.4700   -5.6540 C.3   252  VAL252      0.0019
     66  CG2      -16.8900   -5.5460   -5.0890 C.3   252  VAL252      0.0019
     67  N        -14.3930   -2.0500   -7.9520 N.3   261  ILE261     -0.1231
     68  CA       -14.9460   -0.9050   -7.2530 C.3   261  ILE261      0.1692
     69  C        -13.8560   -0.3110   -6.3620 C.2   261  ILE261      0.2593
     70  O        -13.7010   -0.7100   -5.2200 O.2   261  ILE261     -0.2718
     71  CB       -16.1540   -1.3070   -6.4020 C.3   261  ILE261      0.0266
     72  CG1      -17.1940   -2.0220   -7.2800 C.3   261  ILE261      0.0019
     73  CG2      -16.7780   -0.0740   -5.7740 C.3   261  ILE261      0.0020
     74  CD1      -18.4360   -2.4450   -6.5300 C.3   261  ILE261      0.0001
     75  N        -13.1030    0.6400   -6.8940 N.am  262  SER262     -0.1938
     76  CA       -11.9640    1.1830   -6.1760 C.3   262  SER262      0.2055
     77  C        -12.3460    2.4190   -5.3600 C.2   262  SER262      0.2644
     78  O        -13.2250    3.1910   -5.7480 O.2   262  SER262     -0.2714
     79  CB       -10.8210    1.4970   -7.1540 C.3   262  SER262      0.2130
     80  OG       -10.1450    0.3020   -7.5330 O.3   262  SER262     -0.2179
     81  N        -11.6850    2.5910   -4.2200 N.am  263  SER263     -0.1935
     82  CA       -11.8980    3.7610   -3.3750 C.3   263  SER263      0.2055
     83  C        -11.3470    5.0330   -4.0330 C.2   263  SER263      0.2643
     84  O        -10.3600    4.9860   -4.7650 O.2   263  SER263     -0.2714
     85  CB       -11.2210    3.5390   -2.0130 C.3   263  SER263      0.2130
     86  OG       -10.9670    4.7640   -1.3380 O.3   263  SER263     -0.2179
     87  N        -11.9770    6.1680   -3.7600 N.am  264  ARG264     -0.1963
     88  CA       -11.4080    7.4540   -4.1410 C.3   264  ARG264      0.1729
     89  C         -9.9580    7.5900   -3.6710 C.2   264  ARG264      0.2616
     90  O         -9.1520    8.2920   -4.2940 O.2   264  ARG264     -0.2715
     91  CB       -12.2410    8.5940   -3.5530 C.3   264  ARG264      0.0348
     92  CG       -13.6450    8.6930   -4.1430 C.3   264  ARG264      0.0492
     93  CD       -14.4820    9.7220   -3.4070 C.3   264  ARG264      0.2205
     94  NE       -14.7140    9.3420   -2.0150 N.pl3 264  ARG264     -0.0865
     95  CZ       -15.3190   10.1180   -1.1200 C.cat 264  ARG264      0.5346
     96  NH1      -15.7500   11.3270   -1.4690 N.pl3 264  ARG264      0.1354
     97  NH2      -15.4870    9.6890    0.1250 N.pl3 264  ARG264      0.1354
     98  N         -9.6220    6.9110   -2.5760 N.am  265  ASN265     -0.1972
     99  CA        -8.2960    7.0630   -1.9740 C.3   265  ASN265      0.1688
    100  C         -7.3120    5.9490   -2.2800 C.2   265  ASN265      0.2292
    101  O         -6.2100    5.9420   -1.7520 O.2   265  ASN265     -0.2864
    102  CB        -8.3810    7.2720   -0.4620 C.3   265  ASN265      0.1181
    103  CG        -8.6730    8.7080   -0.0950 C.2   265  ASN265      0.2629
    104  OD1       -8.5620    9.6020   -0.9340 O.2   265  ASN265     -0.2716
    105  ND2       -9.0510    8.9420    1.1610 N.am  265  ASN265     -0.0877
@<TRIPOS>BOND
     1    16    14    1
     2    17    15    1
     3     1     2    1
     4     3     2    1
     5     3     4    2
     6    14    15    1
     7    14    11    1
     8     2     5    1
     9    10    11    1
    10    11    12    1
    11     5     6    1
    12     6     7    1
    13    12    13    2
    14    12    18   am
    15    24    18    1
    16    24    23    1
    17    18    19    1
    18     7     8    1
    19    21    20    2
    20    23    22    1
    21    67    68    1
    22     8     9    1
    23    63    62    2
    24    80    79    1
    25    20    19    1
    26    20    25   am
    27    35    34    2
    28    19    22    1
    29    28    27    2
    30    72    74    1
    31    72    71    1
    32    68    71    1
    33    68    69    1
    34    79    76    1
    35    34    33    1
    36    75    69   am
    37    75    76    1
    38    27    26    1
    39    27    32   am
    40    62    61    1
    41    26    25    1
    42    26    29    1
    43    71    73    1
    44    69    70    2
    45    60    61    1
    46    76    77    1
    47    64    61    1
    48    64    65    1
    49    64    66    1
    50    78    77    2
    51    32    33    1
    52    33    36    1
    53    77    81   am
    54    31    29    1
    55    30    29    1
    56    84    83    2
    57    90    89    2
    58    81    82    1
    59    92    91    1
    60    92    93    1
    61    88    87    1
    62    88    89    1
    63    88    91    1
    64    83    87   am
    65    83    82    1
    66    89    98   am
    67    93    94    1
    68    82    85    1
    69    98    99    1
    70   100    99    1
    71   100   101    2
    72    94    95    2
    73    85    86    1
    74    99   102    1
    75    38    37    1
    76    38    41    1
    77    38    39    1
    78    96    95    1
    79    42    41    1
    80    42    43    1
    81    95    97    1
    82    39    40    2
    83   104   103    2
    84   102   103    1
    85    45    43   am
    86    43    44    2
    87   103   105   am
    88    50    47    1
    89    49    48    2
    90    48    47    1
    91    47    46    1
    92    58    59    1
    93    58    57    1
    94    57    56    1
    95    56    55    1
    96    52    51    1
    97    52    55    1
    98    52    53    1
    99    54    53    2
