@<TRIPOS>MOLECULE
tmp/3u9eB02.pdb
 91 84 0 0 0
SMALL
GASTEIGER

@<TRIPOS>ATOM
      1  N        -16.4830   -8.3070   -1.1320 N.3   114  GLN114     -0.1245
      2  CA       -15.2140   -7.7090   -1.5490 C.3   114  GLN114      0.1566
      3  C        -14.0820   -8.5510   -0.9980 C.2   114  GLN114      0.2260
      4  O        -14.1930   -9.1020    0.0970 O.2   114  GLN114     -0.2867
      5  CB       -15.0570   -6.2900   -1.0010 C.3   114  GLN114      0.0367
      6  CG       -13.7140   -5.6150   -1.3760 C.3   114  GLN114      0.0905
      7  CD       -12.6090   -5.8140   -0.3260 C.2   114  GLN114      0.2608
      8  OE1      -12.7150   -6.6630    0.5630 O.2   114  GLN114     -0.2717
      9  NE2      -11.5550   -5.0170   -0.4240 N.am  114  GLN114     -0.0878
     10  N        -13.5030   -6.5360    3.3610 N.3   132  CYS132     -0.1221
     11  CA       -13.0240   -5.2660    3.8850 C.3   132  CYS132      0.1808
     12  C        -13.8730   -4.0550    3.5150 C.2   132  CYS132      0.2601
     13  O        -13.5820   -2.9420    3.9810 O.2   132  CYS132     -0.2717
     14  CB       -11.6080   -5.0020    3.3760 C.3   132  CYS132      0.0970
     15  SG       -10.5010   -6.3830    3.6300 S.3   132  CYS132     -0.0800
     16  N        -14.8880   -4.2460    2.6660 N.am  133  ALA133     -0.1979
     17  CA       -15.5540   -3.0930    2.0530 C.3   133  ALA133      0.1597
     18  C        -17.0190   -3.2720    1.6890 C.2   133  ALA133      0.2287
     19  O        -17.7040   -2.3010    1.3730 O.2   133  ALA133     -0.2864
     20  CB       -14.7720   -2.6270    0.8200 C.3   133  ALA133      0.0319
     21  N        -16.9240   -5.5040    9.1170 N.3   230  ILE230     -0.1245
     22  CA       -16.3500   -4.6300    8.1040 C.3   230  ILE230      0.1561
     23  C        -15.3380   -3.6230    8.6730 C.2   230  ILE230      0.2260
     24  O        -14.3910   -3.2320    7.9920 O.2   230  ILE230     -0.2867
     25  CB       -17.4340   -3.8950    7.2740 C.3   230  ILE230      0.0252
     26  CG1      -16.8180   -3.3300    5.9890 C.3   230  ILE230      0.0019
     27  CG2      -18.1110   -2.8140    8.0970 C.3   230  ILE230      0.0019
     28  CD1      -17.7480   -2.4130    5.1870 C.3   230  ILE230      0.0001
     29  N        -11.7140   -3.4360    7.0030 N.3   234  ASN234     -0.1240
     30  CA       -11.2920   -2.1720    6.4480 C.3   234  ASN234      0.1653
     31  C        -10.0670   -1.5950    7.1420 C.2   234  ASN234      0.2266
     32  O         -9.1220   -1.1580    6.4820 O.2   234  ASN234     -0.2867
     33  CB       -12.4370   -1.1640    6.4930 C.3   234  ASN234      0.1155
     34  CG       -12.2460   -0.0530    5.5050 C.2   234  ASN234      0.2627
     35  OD1      -11.6480    0.9800    5.8140 O.2   234  ASN234     -0.2716
     36  ND2      -12.7370   -0.2650    4.2840 N.am  234  ASN234     -0.0877
     37  N         -7.0020   -3.6210    6.1110 N.3   237  TYR237     -0.1227
     38  CA        -6.6500   -3.2550    4.7470 C.3   237  TYR237      0.1736
     39  C         -5.8490   -1.9480    4.7640 C.2   237  TYR237      0.2595
     40  O         -4.7680   -1.8540    4.1860 O.2   237  TYR237     -0.2718
     41  CB        -7.9490   -3.0770    3.9370 C.3   237  TYR237      0.0548
     42  CG        -7.7910   -2.6260    2.4880 C.ar  237  TYR237     -0.0200
     43  CD1       -8.0150   -3.5140    1.4400 C.ar  237  TYR237     -0.0009
     44  CD2       -7.4350   -1.3110    2.1710 C.ar  237  TYR237     -0.0009
     45  CE1       -7.8790   -3.1180    0.1170 C.ar  237  TYR237      0.0417
     46  CE2       -7.2840   -0.9000    0.8420 C.ar  237  TYR237      0.0417
     47  CZ        -7.5170   -1.8120   -0.1820 C.ar  237  TYR237      0.1957
     48  OH        -7.3900   -1.4400   -1.5090 O.3   237  TYR237     -0.2866
     49  N         -6.3880   -0.9380    5.4390 N.am  238  LYS238     -0.1980
     50  CA        -5.7860    0.3920    5.4290 C.3   238  LYS238      0.1596
     51  C         -4.4550    0.3670    6.1650 C.2   238  LYS238      0.2287
     52  O         -3.4920    1.0580    5.7820 O.2   238  LYS238     -0.2864
     53  CB        -6.7410    1.4050    6.0750 C.3   238  LYS238      0.0298
     54  CG        -8.1080    1.4920    5.4040 C.3   238  LYS238      0.0038
     55  CD        -8.0080    2.0910    4.0050 C.3   238  LYS238      0.0206
     56  CE        -9.3540    2.0600    3.2650 C.3   238  LYS238      0.1093
     57  NZ       -10.3400    3.0930    3.7410 N.3   238  LYS238     -0.1314
     58  N         -8.0100   -5.1750   -5.2120 N.3   250  SER250     -0.1217
     59  CA        -9.2420   -5.7350   -4.6860 C.3   250  SER250      0.1889
     60  C        -10.3380   -5.7780   -5.7250 C.2   250  SER250      0.2288
     61  O        -10.3760   -4.9960   -6.6820 O.2   250  SER250     -0.2866
     62  CB        -9.7060   -4.9720   -3.4540 C.3   250  SER250      0.2089
     63  OG        -9.8990   -3.6130   -3.7600 O.3   250  SER250     -0.2183
     64  N        -14.3930   -2.0500   -7.9520 N.3   261  ILE261     -0.1231
     65  CA       -14.9460   -0.9050   -7.2530 C.3   261  ILE261      0.1692
     66  C        -13.8560   -0.3110   -6.3620 C.2   261  ILE261      0.2593
     67  O        -13.7010   -0.7100   -5.2200 O.2   261  ILE261     -0.2718
     68  CB       -16.1540   -1.3070   -6.4020 C.3   261  ILE261      0.0266
     69  CG1      -17.1940   -2.0220   -7.2800 C.3   261  ILE261      0.0019
     70  CG2      -16.7780   -0.0740   -5.7740 C.3   261  ILE261      0.0020
     71  CD1      -18.4360   -2.4450   -6.5300 C.3   261  ILE261      0.0001
     72  N        -13.1030    0.6400   -6.8940 N.am  262  SER262     -0.1938
     73  CA       -11.9640    1.1830   -6.1760 C.3   262  SER262      0.2055
     74  C        -12.3460    2.4190   -5.3600 C.2   262  SER262      0.2643
     75  O        -13.2250    3.1910   -5.7480 O.2   262  SER262     -0.2714
     76  CB       -10.8210    1.4970   -7.1540 C.3   262  SER262      0.2130
     77  OG       -10.1450    0.3020   -7.5330 O.3   262  SER262     -0.2179
     78  N        -11.6850    2.5910   -4.2200 N.am  263  SER263     -0.1949
     79  CA       -11.8980    3.7610   -3.3750 C.3   263  SER263      0.1924
     80  C        -11.3470    5.0330   -4.0330 C.2   263  SER263      0.2314
     81  O        -10.3600    4.9860   -4.7650 O.2   263  SER263     -0.2863
     82  CB       -11.2210    3.5390   -2.0130 C.3   263  SER263      0.2116
     83  OG       -10.9670    4.7640   -1.3380 O.3   263  SER263     -0.2180
     84  N         -7.7020    5.0050   -3.1230 N.3   266  ASP266     -0.1239
     85  CA        -6.7720    3.9740   -3.5380 C.3   266  ASP266      0.1674
     86  C         -5.7410    4.6380   -4.4390 C.2   266  ASP266      0.2266
     87  O         -6.0910    5.4910   -5.2650 O.2   266  ASP266     -0.2867
     88  CB        -7.4870    2.8420   -4.2930 C.3   266  ASP266      0.1410
     89  CG        -8.3640    1.9920   -3.3930 C.2   266  ASP266      0.3668
     90  OD1       -8.1990    2.0550   -2.1560 O.co2 266  ASP266     -0.2456
     91  OD2       -9.2130    1.2420   -3.9290 O.co2 266  ASP266     -0.2456
@<TRIPOS>BOND
     1    64    65    1
     2    77    76    1
     3    69    71    1
     4    69    68    1
     5    65    68    1
     6    65    66    1
     7    76    73    1
     8    72    66   am
     9    72    73    1
    10    61    60    2
    11    68    70    1
    12    66    67    2
    13    73    74    1
    14    75    74    2
    15    60    59    1
    16    74    78   am
    17    87    86    2
    18    58    59    1
    19    81    80    2
    20    59    62    1
    21    86    85    1
    22    88    85    1
    23    88    89    1
    24    78    79    1
    25    80    79    1
    26    91    89   ar
    27    63    62    1
    28    85    84    1
    29    89    90   ar
    30    79    82    1
    31    82    83    1
    32     2     1    1
    33     2     5    1
    34     2     3    1
    35    48    47    1
    36     6     5    1
    37     6     7    1
    38     3     4    2
    39     9     7   am
    40     7     8    2
    41    47    45   ar
    42    47    46   ar
    43    45    43   ar
    44    20    17    1
    45    46    44   ar
    46    19    18    2
    47    43    42   ar
    48    18    17    1
    49    17    16    1
    50    44    42   ar
    51    42    41    1
    52    16    12   am
    53    56    57    1
    54    56    55    1
    55    10    11    1
    56    14    15    1
    57    14    11    1
    58    12    11    1
    59    12    13    2
    60    41    38    1
    61    55    54    1
    62    40    39    2
    63    36    34   am
    64    38    39    1
    65    38    37    1
    66    39    49   am
    67    28    26    1
    68    54    53    1
    69    50    49    1
    70    50    53    1
    71    50    51    1
    72    34    35    2
    73    34    33    1
    74    52    51    2
    75    26    25    1
    76    30    33    1
    77    30    29    1
    78    30    31    1
    79    32    31    2
    80    25    27    1
    81    25    22    1
    82    24    23    2
    83    22    23    1
    84    22    21    1
