@<TRIPOS>MOLECULE
tmp/3u9fJ00.pdb
 128 122 0 0 0
SMALL
GASTEIGER

@<TRIPOS>ATOM
      1  N         20.8460    9.0170   44.2290 N.3    90  CYS90      -0.1235
      2  CA        20.9990    9.0780   45.6750 C.3    90  CYS90       0.1677
      3  C         19.7170    9.6740   46.2390 C.2    90  CYS90       0.2270
      4  O         19.4030   10.8460   46.0060 O.2    90  CYS90      -0.2867
      5  CB        22.2170    9.9170   46.0660 C.3    90  CYS90       0.0956
      6  SG        22.5120   10.0270   47.8510 S.3    90  CYS90      -0.0801
      7  N         16.5870   10.0120   49.4620 N.3    92  THR92      -0.1218
      8  CA        16.4230   10.2050   50.9000 C.3    92  THR92       0.1862
      9  C         15.3590    9.2780   51.4780 C.2    92  THR92       0.2287
     10  O         14.2750    9.1290   50.9100 O.2    92  THR92      -0.2866
     11  CB        16.0960   11.6820   51.2640 C.3    92  THR92       0.1770
     12  OG1       15.0030   12.1570   50.4640 O.3    92  THR92      -0.2211
     13  CG2       17.3120   12.5750   51.0440 C.3    92  THR92       0.0375
     14  N         16.6370   12.0320   58.7330 N.3   101  PHE101     -0.1241
     15  CA        16.6290   11.3500   57.4340 C.3   101  PHE101      0.1605
     16  C         18.0170   10.8340   57.0380 C.2   101  PHE101      0.2264
     17  O         19.0350   11.3160   57.5340 O.2   101  PHE101     -0.2867
     18  CB        16.0750   12.2700   56.3420 C.3   101  PHE101      0.0534
     19  CG        17.0640   13.2710   55.8450 C.ar  101  PHE101     -0.0203
     20  CD1       17.2670   14.4640   56.5290 C.ar  101  PHE101     -0.0042
     21  CD2       17.8070   13.0190   54.6990 C.ar  101  PHE101     -0.0042
     22  CE1       18.1960   15.3950   56.0760 C.ar  101  PHE101     -0.0003
     23  CE2       18.7370   13.9380   54.2360 C.ar  101  PHE101     -0.0003
     24  CZ        18.9310   15.1310   54.9260 C.ar  101  PHE101     -0.0000
     25  N         20.5100    9.1060   53.5200 N.3   103  SER103     -0.1217
     26  CA        20.6680    9.0530   52.0720 C.3   103  SER103      0.1889
     27  C         21.4070    7.7930   51.6450 C.2   103  SER103      0.2288
     28  O         22.5500    7.5560   52.0470 O.2   103  SER103     -0.2866
     29  CB        21.3810   10.2990   51.5560 C.3   103  SER103      0.2089
     30  OG        20.6560   11.4550   51.9220 O.3   103  SER103     -0.2183
     31  N         23.8430    9.0470   58.3290 N.3   132  TYR132     -0.1227
     32  CA        23.5120   10.0550   57.3200 C.3   132  TYR132      0.1736
     33  C         23.7870    9.5120   55.9170 C.2   132  TYR132      0.2595
     34  O         23.0510    9.8080   54.9740 O.2   132  TYR132     -0.2718
     35  CB        24.2870   11.3480   57.5970 C.3   132  TYR132      0.0548
     36  CG        24.1380   12.4650   56.5750 C.ar  132  TYR132     -0.0200
     37  CD1       22.8900   12.8190   56.0520 C.ar  132  TYR132     -0.0009
     38  CD2       25.2530   13.2020   56.1680 C.ar  132  TYR132     -0.0009
     39  CE1       22.7660   13.8580   55.1270 C.ar  132  TYR132      0.0417
     40  CE2       25.1390   14.2400   55.2470 C.ar  132  TYR132      0.0417
     41  CZ        23.8950   14.5660   54.7300 C.ar  132  TYR132      0.1957
     42  OH        23.7930   15.6010   53.8200 O.3   132  TYR132     -0.2866
     43  N         24.8450    8.7140   55.7950 N.am  133  PHE133     -0.1976
     44  CA        25.1150    7.9500   54.5830 C.3   133  PHE133      0.1639
     45  C         25.4300    6.4990   54.9520 C.2   133  PHE133      0.2290
     46  O         26.5990    6.1380   55.0990 O.2   133  PHE133     -0.2864
     47  CB        26.2600    8.5760   53.7830 C.3   133  PHE133      0.0560
     48  CG        25.8340    9.7120   52.8990 C.ar  133  PHE133     -0.0200
     49  CD1       25.2920    9.4660   51.6420 C.ar  133  PHE133     -0.0042
     50  CD2       25.9860   11.0290   53.3130 C.ar  133  PHE133     -0.0042
     51  CE1       24.8990   10.5130   50.8120 C.ar  133  PHE133     -0.0003
     52  CE2       25.5970   12.0830   52.4910 C.ar  133  PHE133     -0.0003
     53  CZ        25.0530   11.8220   51.2350 C.ar  133  PHE133     -0.0000
     54  N         21.1250   13.4870   42.7920 N.3   143  PHE143     -0.1227
     55  CA        20.4060   13.4940   44.0610 C.3   143  PHE143      0.1736
     56  C         18.9020   13.6570   43.9000 C.2   143  PHE143      0.2595
     57  O         18.4350   14.4420   43.0760 O.2   143  PHE143     -0.2718
     58  CB        20.9630   14.5840   44.9870 C.3   143  PHE143      0.0547
     59  CG        22.4330   14.4380   45.2860 C.ar  143  PHE143     -0.0202
     60  CD1       23.3710   15.2240   44.6250 C.ar  143  PHE143     -0.0042
     61  CD2       22.8800   13.5110   46.2230 C.ar  143  PHE143     -0.0042
     62  CE1       24.7340   15.0930   44.8930 C.ar  143  PHE143     -0.0003
     63  CE2       24.2380   13.3730   46.4950 C.ar  143  PHE143     -0.0003
     64  CZ        25.1670   14.1680   45.8280 C.ar  143  PHE143     -0.0000
     65  N         18.1540   12.8970   44.6940 N.am  144  VAL144     -0.1966
     66  CA        16.7000   13.0110   44.7480 C.3   144  VAL144      0.1727
     67  C         16.2460   13.1460   46.2020 C.2   144  VAL144      0.2616
     68  O         16.5330   12.2920   47.0430 O.2   144  VAL144     -0.2715
     69  CB        15.9860   11.8140   44.0610 C.3   144  VAL144      0.0290
     70  CG1       14.5070   11.8080   44.3870 C.3   144  VAL144      0.0023
     71  CG2       16.1700   11.8680   42.5630 C.3   144  VAL144      0.0023
     72  N         15.5350   14.2310   46.4810 N.am  145  SER145     -0.1950
     73  CA        15.0520   14.5290   47.8140 C.3   145  SER145      0.1924
     74  C         13.5290   14.4970   47.8350 C.2   145  SER145      0.2314
     75  O         12.8690   15.0510   46.9490 O.2   145  SER145     -0.2863
     76  CB        15.5690   15.8980   48.2570 C.3   145  SER145      0.2116
     77  OG        14.9240   16.3410   49.4360 O.3   145  SER145     -0.2180
     78  N         10.6110   25.6300   44.9290 N.3   155  PHE155     -0.1241
     79  CA        11.6650   25.0910   45.7810 C.3   155  PHE155      0.1605
     80  C         13.0290   25.4560   45.2100 C.2   155  PHE155      0.2264
     81  O         13.3280   25.1720   44.0440 O.2   155  PHE155     -0.2867
     82  CB        11.5380   23.5770   45.9640 C.3   155  PHE155      0.0534
     83  CG        12.4370   23.0180   47.0350 C.ar  155  PHE155     -0.0203
     84  CD1       13.7690   22.7100   46.7600 C.ar  155  PHE155     -0.0042
     85  CD2       11.9530   22.8020   48.3210 C.ar  155  PHE155     -0.0042
     86  CE1       14.6010   22.1950   47.7500 C.ar  155  PHE155     -0.0003
     87  CE2       12.7820   22.2870   49.3210 C.ar  155  PHE155     -0.0003
     88  CZ        14.1060   21.9810   49.0320 C.ar  155  PHE155     -0.0000
     89  N         17.0360   25.2200   46.0900 N.3   157  LEU157     -0.1245
     90  CA        18.2490   24.8480   46.8020 C.3   157  LEU157      0.1561
     91  C         19.2930   25.9250   46.5370 C.2   157  LEU157      0.2260
     92  O         19.4660   26.3680   45.4010 O.2   157  LEU157     -0.2867
     93  CB        18.7510   23.4690   46.3640 C.3   157  LEU157      0.0270
     94  CG        19.9260   22.8780   47.1530 C.3   157  LEU157      0.0019
     95  CD1       19.4710   22.2850   48.4830 C.3   157  LEU157      0.0001
     96  CD2       20.6590   21.8310   46.3250 C.3   157  LEU157      0.0001
     97  N         23.1530   26.4490   47.4570 N.3   159  VAL159     -0.1245
     98  CA        24.4100   25.9320   48.0160 C.3   159  VAL159      0.1561
     99  C         25.4550   27.0140   48.2620 C.2   159  VAL159      0.2260
    100  O         25.5770   27.9670   47.4830 O.2   159  VAL159     -0.2867
    101  CB        25.0380   24.8130   47.1390 C.3   159  VAL159      0.0252
    102  CG1       24.1640   23.5600   47.1420 C.3   159  VAL159      0.0019
    103  CG2       25.2880   25.2960   45.7190 C.3   159  VAL159      0.0019
    104  N         30.0900   21.5920   41.4390 N.3   165  PHE165     -0.1241
    105  CA        28.8840   20.8780   41.8270 C.3   165  PHE165      0.1605
    106  C         27.9810   20.7180   40.6020 C.2   165  PHE165      0.2264
    107  O         27.0030   21.4550   40.4300 O.2   165  PHE165     -0.2867
    108  CB        28.1710   21.6160   42.9630 C.3   165  PHE165      0.0534
    109  CG        27.1170   20.8000   43.6540 C.ar  165  PHE165     -0.0203
    110  CD1       27.4670   19.8510   44.6070 C.ar  165  PHE165     -0.0042
    111  CD2       25.7730   20.9920   43.3640 C.ar  165  PHE165     -0.0042
    112  CE1       26.4910   19.0890   45.2510 C.ar  165  PHE165     -0.0003
    113  CE2       24.7900   20.2420   44.0000 C.ar  165  PHE165     -0.0003
    114  CZ        25.1480   19.2870   44.9460 C.ar  165  PHE165     -0.0000
    115  N         20.1850   18.1520   41.3170 N.3   169  VAL169     -0.1245
    116  CA        19.4250   17.8270   42.5140 C.3   169  VAL169      0.1561
    117  C         17.9300   17.9120   42.2240 C.2   169  VAL169      0.2260
    118  O         17.4370   18.9220   41.7140 O.2   169  VAL169     -0.2867
    119  CB        19.8080   18.7470   43.6930 C.3   169  VAL169      0.0252
    120  CG1       18.9100   18.4910   44.9020 C.3   169  VAL169      0.0019
    121  CG2       21.2710   18.5530   44.0650 C.3   169  VAL169      0.0019
    122  N         14.0290   17.6480   43.8140 N.3   171  THR171     -0.1218
    123  CA        13.1790   17.7040   44.9980 C.3   171  THR171      0.1862
    124  C         11.7220   17.6490   44.5530 C.2   171  THR171      0.2287
    125  O         11.2390   18.5440   43.8490 O.2   171  THR171     -0.2866
    126  CB        13.4290   18.9750   45.8500 C.3   171  THR171      0.1770
    127  OG1       14.8340   19.1710   46.0460 O.3   171  THR171     -0.2211
    128  CG2       12.7620   18.8450   47.2050 C.3   171  THR171      0.0375
@<TRIPOS>BOND
     1   107   106    2
     2   106   105    1
     3   115   116    1
     4   104   105    1
     5   118   117    2
     6   105   108    1
     7   117   116    1
     8   116   119    1
     9    71    69    1
    10    54    55    1
    11   108   109    1
    12    57    56    2
    13   111   109   ar
    14   111   113   ar
    15   109   110   ar
    16   119   121    1
    17   119   120    1
    18   122   123    1
    19   125   124    2
    20    56    55    1
    21    56    65   am
    22   113   114   ar
    23    81    80    2
    24    69    70    1
    25    69    66    1
    26    55    58    1
    27     1     2    1
    28   124   123    1
    29   110   112   ar
    30    60    62   ar
    31    60    59   ar
    32    65    66    1
    33    66    67    1
    34    62    64   ar
    35    78    79    1
    36   114   112   ar
    37    58    59    1
    38   123   126    1
    39    80    79    1
    40    59    61   ar
    41    92    91    2
    42     2     5    1
    43     2     3    1
    44   103   101    1
    45    79    82    1
    46    64    63   ar
    47   126   127    1
    48   126   128    1
    49    82    83    1
    50     4     3    2
    51     5     6    1
    52    89    90    1
    53    67    72   am
    54    67    68    2
    55    61    63   ar
    56    96    94    1
    57    93    90    1
    58    93    94    1
    59    72    73    1
    60    91    90    1
    61    84    83   ar
    62    84    86   ar
    63    75    74    2
    64    83    85   ar
    65   101   102    1
    66   101    98    1
    67    94    95    1
    68    97    98    1
    69   100    99    2
    70    86    88   ar
    71    73    74    1
    72    73    76    1
    73    98    99    1
    74    76    77    1
    75    85    87   ar
    76    88    87   ar
    77     7     8    1
    78    12    11    1
    79    51    53   ar
    80    51    49   ar
    81     8    11    1
    82     8     9    1
    83    10     9    2
    84    13    11    1
    85    53    52   ar
    86    29    30    1
    87    29    26    1
    88    49    48   ar
    89    27    28    2
    90    27    26    1
    91    26    25    1
    92    52    50   ar
    93    48    50   ar
    94    48    47    1
    95    47    44    1
    96    42    41    1
    97    23    21   ar
    98    23    24   ar
    99    44    45    1
   100    44    43    1
   101    21    19   ar
   102    41    39   ar
   103    41    40   ar
   104    24    22   ar
   105    45    46    2
   106    34    33    2
   107    39    37   ar
   108    40    38   ar
   109    43    33   am
   110    19    18    1
   111    19    20   ar
   112    33    32    1
   113    37    36   ar
   114    22    20   ar
   115    38    36   ar
   116    18    15    1
   117    36    35    1
   118    16    15    1
   119    16    17    2
   120    32    35    1
   121    32    31    1
   122    15    14    1
