@<TRIPOS>MOLECULE
tmp/3u9hB00.pdb
 90 89 0 0 0
SMALL
GASTEIGER

@<TRIPOS>ATOM
      1  N        -50.4890  -39.4590   11.9810 N.3    80  HIS80      -0.1226
      2  CA       -50.7150  -39.8830   13.3500 C.3    80  HIS80       0.1752
      3  C        -51.0900  -38.6660   14.1880 C.2    80  HIS80       0.2596
      4  O        -50.3680  -37.6690   14.1790 O.2    80  HIS80      -0.2718
      5  CB       -49.4600  -40.5480   13.9270 C.3    80  HIS80       0.0759
      6  CG       -49.6290  -41.0380   15.3320 C.ar   80  HIS80       0.0818
      7  ND1      -50.2260  -42.2440   15.6370 N.ar   80  HIS80      -0.2268
      8  CD2      -49.3480  -40.4470   16.5230 C.ar   80  HIS80       0.1154
      9  CE1      -50.2850  -42.3850   16.9520 C.ar   80  HIS80       0.1986
     10  NE2      -49.7450  -41.3170   17.5160 N.ar   80  HIS80      -0.2212
     11  N        -52.1790  -38.7900   14.9390 N.am   81  GLY81      -0.1957
     12  CA       -52.6500  -37.7490   15.8420 C.3    81  GLY81       0.1869
     13  C        -52.6350  -38.2600   17.2730 C.2    81  GLY81       0.2309
     14  O        -53.0140  -39.4040   17.5380 O.2    81  GLY81      -0.2863
     15  N        -53.0730  -47.4940   21.2430 N.3    99  TYR99      -0.1241
     16  CA       -54.4720  -47.2000   21.4970 C.3    99  TYR99       0.1605
     17  C        -55.0360  -48.5380   21.9360 C.2    99  TYR99       0.2264
     18  O        -55.3210  -49.4180   21.1230 O.2    99  TYR99      -0.2867
     19  CB       -55.1270  -46.6450   20.2300 C.3    99  TYR99       0.0534
     20  CG       -56.6210  -46.4430   20.2910 C.ar   99  TYR99      -0.0201
     21  CD1      -57.3010  -46.3810   21.5070 C.ar   99  TYR99      -0.0009
     22  CD2      -57.3530  -46.2610   19.1200 C.ar   99  TYR99      -0.0009
     23  CE1      -58.6740  -46.1820   21.5560 C.ar   99  TYR99       0.0417
     24  CE2      -58.7230  -46.0490   19.1600 C.ar   99  TYR99       0.0417
     25  CZ       -59.3740  -46.0270   20.3820 C.ar   99  TYR99       0.1957
     26  OH       -60.7330  -45.8300   20.4250 O.3    99  TYR99      -0.2866
     27  N        -51.7680  -46.5390   15.9320 N.3   109  TYR109     -0.1227
     28  CA       -52.6800  -46.3500   14.8000 C.3   109  TYR109      0.1736
     29  C        -52.2350  -45.2230   13.8700 C.2   109  TYR109      0.2595
     30  O        -51.8270  -44.1570   14.3350 O.2   109  TYR109     -0.2718
     31  CB       -54.0950  -46.0350   15.3230 C.3   109  TYR109      0.0548
     32  CG       -54.8070  -47.2690   15.8240 C.ar  109  TYR109     -0.0200
     33  CD1      -55.9990  -47.6820   15.2570 C.ar  109  TYR109     -0.0009
     34  CD2      -54.2690  -48.0340   16.8540 C.ar  109  TYR109     -0.0009
     35  CE1      -56.6210  -48.8340   15.6950 C.ar  109  TYR109      0.0417
     36  CE2      -54.8910  -49.2060   17.2890 C.ar  109  TYR109      0.0417
     37  CZ       -56.0650  -49.5950   16.6980 C.ar  109  TYR109      0.1957
     38  OH       -56.6970  -50.7410   17.1380 O.3   109  TYR109     -0.2866
     39  N        -52.3400  -45.4360   12.5580 N.am  110  PHE110     -0.1962
     40  CA       -51.9560  -44.4360   11.5810 C.3   110  PHE110      0.1771
     41  C        -53.0850  -44.3570   10.5620 C.2   110  PHE110      0.2619
     42  O        -53.8340  -45.3290   10.3930 O.2   110  PHE110     -0.2715
     43  CB       -50.6390  -44.7770   10.8880 C.3   110  PHE110      0.0574
     44  CG       -49.4650  -44.7530   11.8070 C.ar  110  PHE110     -0.0200
     45  CD1      -48.6950  -43.6140   11.9690 C.ar  110  PHE110     -0.0042
     46  CD2      -49.1470  -45.8820   12.5440 C.ar  110  PHE110     -0.0042
     47  CE1      -47.6460  -43.5990   12.8490 C.ar  110  PHE110     -0.0003
     48  CE2      -48.1030  -45.8790   13.4370 C.ar  110  PHE110     -0.0003
     49  CZ       -47.3430  -44.7320   13.5930 C.ar  110  PHE110     -0.0000
     50  N        -53.2400  -43.2090    9.9120 N.am  111  ALA111     -0.1977
     51  CA       -54.3510  -43.0300    8.9800 C.3   111  ALA111      0.1597
     52  C        -53.9190  -42.4510    7.6350 C.2   111  ALA111      0.2287
     53  O        -53.0200  -41.6140    7.5400 O.2   111  ALA111     -0.2864
     54  CB       -55.3720  -42.0860    9.5810 C.3   111  ALA111      0.0319
     55  N        -58.9340  -38.1620    9.8840 N.3   116  LYS116     -0.1231
     56  CA       -59.0700  -39.2410   10.8480 C.3   116  LYS116      0.1693
     57  C        -58.0810  -39.0110   11.9980 C.2   116  LYS116      0.2592
     58  O        -58.4790  -39.0680   13.1510 O.2   116  LYS116     -0.2718
     59  CB       -58.8510  -40.6130   10.1960 C.3   116  LYS116      0.0285
     60  CG       -58.7490  -41.7950   11.1760 C.3   116  LYS116      0.0035
     61  CD       -59.9090  -41.9210   12.1500 C.3   116  LYS116      0.0206
     62  CE       -61.2790  -42.2350   11.5490 C.3   116  LYS116      0.1093
     63  NZ       -62.3030  -42.5210   12.6650 N.3   116  LYS116     -0.1314
     64  N        -56.8110  -38.7560   11.6960 N.am  117  SER117     -0.1952
     65  CA       -55.8330  -38.5040   12.7600 C.3   117  SER117      0.1924
     66  C        -56.1760  -37.2430   13.5490 C.2   117  SER117      0.2314
     67  O        -55.9200  -37.1840   14.7550 O.2   117  SER117     -0.2863
     68  CB       -54.4120  -38.4010   12.2030 C.3   117  SER117      0.2116
     69  OG       -54.0240  -39.6070   11.5990 O.3   117  SER117     -0.2180
     70  N        -57.9350  -37.4830   16.8690 N.3   120  TYR120     -0.1241
     71  CA       -57.1890  -38.0210   18.0060 C.3   120  TYR120      0.1605
     72  C        -56.2160  -37.0160   18.6100 C.2   120  TYR120      0.2264
     73  O        -55.5810  -37.3020   19.6230 O.2   120  TYR120     -0.2867
     74  CB       -56.4480  -39.2940   17.6160 C.3   120  TYR120      0.0534
     75  CG       -57.4280  -40.4300   17.4100 C.ar  120  TYR120     -0.0201
     76  CD1      -57.7820  -41.2710   18.4620 C.ar  120  TYR120     -0.0009
     77  CD2      -58.0820  -40.5880   16.1920 C.ar  120  TYR120     -0.0009
     78  CE1      -58.7080  -42.2750   18.2750 C.ar  120  TYR120      0.0417
     79  CE2      -59.0290  -41.5590   16.0140 C.ar  120  TYR120      0.0417
     80  CZ       -59.3180  -42.4130   17.0530 C.ar  120  TYR120      0.1957
     81  OH       -60.2500  -43.4050   16.8650 O.3   120  TYR120     -0.2866
     82  N        -56.8420  -47.3960    7.7140 N.3   186  GLU186     -0.1245
     83  CA       -56.1270  -47.1000    8.9410 C.3   186  GLU186      0.1567
     84  C        -55.2380  -48.3190    9.1510 C.2   186  GLU186      0.2260
     85  O        -55.6160  -49.4260    8.7580 O.2   186  GLU186     -0.2867
     86  CB       -57.1610  -46.8740   10.0430 C.3   186  GLU186      0.0388
     87  CG       -58.2600  -45.9040    9.5610 C.3   186  GLU186      0.1160
     88  CD       -59.5070  -45.9390   10.4140 C.2   186  GLU186      0.3649
     89  OE1      -59.3960  -46.5380   11.5110 O.co2 186  GLU186     -0.2457
     90  OE2      -60.5590  -45.3880    9.9820 O.co2 186  GLU186     -0.2457
@<TRIPOS>BOND
     1    53    52    2
     2    52    51    1
     3    82    83    1
     4    85    84    2
     5    83    84    1
     6    83    86    1
     7    51    54    1
     8    51    50    1
     9    87    86    1
    10    87    88    1
    11    55    56    1
    12    50    41   am
    13    90    88   ar
    14    59    56    1
    15    59    60    1
    16    42    41    2
    17    88    89   ar
    18    41    40    1
    19    56    57    1
    20    43    40    1
    21    43    44    1
    22    60    61    1
    23    62    61    1
    24    62    63    1
    25    40    39    1
    26    69    68    1
    27    64    57   am
    28    64    65    1
    29    44    45   ar
    30    44    46   ar
    31    45    47   ar
    32     1     2    1
    33    57    58    2
    34    68    65    1
    35    46    48   ar
    36    39    29   am
    37    65    66    1
    38    47    49   ar
    39     2     5    1
    40     2     3    1
    41    48    49   ar
    42    66    67    2
    43    29    30    2
    44    29    28    1
    45     5     6    1
    46     4     3    2
    47     3    11   am
    48    28    31    1
    49    28    27    1
    50    11    12    1
    51    33    35   ar
    52    33    32   ar
    53    31    32    1
    54     6     7   ar
    55     6     8   ar
    56     7     9   ar
    57    35    37   ar
    58    32    34   ar
    59    12    13    1
    60    79    77   ar
    61    79    80   ar
    62    77    75   ar
    63     8    10   ar
    64    37    38    1
    65    37    36   ar
    66    34    36   ar
    67    81    80    1
    68    70    71    1
    69     9    10   ar
    70    80    78   ar
    71    13    14    2
    72    75    74    1
    73    75    76   ar
    74    74    71    1
    75    71    72    1
    76    78    76   ar
    77    72    73    2
    78    22    24   ar
    79    22    20   ar
    80    24    25   ar
    81    19    20    1
    82    19    16    1
    83    20    21   ar
    84    25    26    1
    85    25    23   ar
    86    18    17    2
    87    15    16    1
    88    16    17    1
    89    21    23   ar
