@<TRIPOS>MOLECULE
tmp/3u9nA00.pdb
 162 151 0 0 0
SMALL
GASTEIGER

@<TRIPOS>ATOM
      1  N         14.6520   -7.0220    3.3710 N.3     9  LEU9       -0.1231
      2  CA        15.2140   -6.0840    4.3290 C.3     9  LEU9        0.1693
      3  C         15.2840   -6.7380    5.6980 C.2     9  LEU9        0.2592
      4  O         16.3360   -6.7550    6.3390 O.2     9  LEU9       -0.2718
      5  CB        14.3410   -4.8290    4.4090 C.3     9  LEU9        0.0284
      6  CG        14.8180   -3.5720    3.6830 C.3     9  LEU9        0.0019
      7  CD1       15.7510   -3.9220    2.5400 C.3     9  LEU9        0.0001
      8  CD2       13.6300   -2.7580    3.1870 C.3     9  LEU9        0.0001
      9  N         14.1510   -7.2690    6.1430 N.am   10  GLY10      -0.1957
     10  CA        14.0670   -7.9080    7.4430 C.3    10  GLY10       0.1869
     11  C         13.4420   -9.2960    7.3740 C.2    10  GLY10       0.2309
     12  O         12.3400   -9.4750    6.8590 O.2    10  GLY10      -0.2863
     13  N          8.7360  -11.3650   12.8450 N.3    14  TYR14      -0.1241
     14  CA         7.7570  -10.3710   12.4220 C.3    14  TYR14       0.1605
     15  C          7.1650  -10.7720   11.0780 C.2    14  TYR14       0.2264
     16  O          6.2700  -10.1170   10.5510 O.2    14  TYR14      -0.2867
     17  CB         8.3910   -8.9690   12.3060 C.3    14  TYR14       0.0534
     18  CG         9.8780   -9.0120   11.9670 C.ar   14  TYR14      -0.0201
     19  CD1       10.3180   -8.7860   10.6570 C.ar   14  TYR14      -0.0009
     20  CD2       10.8280   -9.1960   12.9710 C.ar   14  TYR14      -0.0009
     21  CE1       11.6710   -8.8080   10.3670 C.ar   14  TYR14       0.0417
     22  CE2       12.1840   -9.2160   12.6820 C.ar   14  TYR14       0.0417
     23  CZ        12.6040   -9.0010   11.3820 C.ar   14  TYR14       0.1957
     24  OH        13.9470   -9.0330   11.0980 O.3    14  TYR14      -0.2866
     25  N         10.1250   -8.2840    5.8880 N.3    17  VAL17      -0.1245
     26  CA        10.0460   -6.9050    5.4020 C.3    17  VAL17       0.1561
     27  C         10.8540   -6.7980    4.1230 C.2    17  VAL17       0.2260
     28  O         12.0320   -7.1660    4.0870 O.2    17  VAL17      -0.2867
     29  CB        10.5630   -5.8780    6.4500 C.3    17  VAL17       0.0252
     30  CG1       10.6110   -4.4790    5.8370 C.3    17  VAL17       0.0019
     31  CG2        9.6920   -5.8860    7.6930 C.3    17  VAL17       0.0019
     32  N          8.6530    0.3560    2.3480 N.3    30  ALA30      -0.1245
     33  CA         8.9260   -0.9330    2.9500 C.3    30  ALA30       0.1562
     34  C          7.6250   -1.7130    2.9630 C.2    30  ALA30       0.2260
     35  O          6.5520   -1.1330    3.0570 O.2    30  ALA30      -0.2867
     36  CB         9.4700   -0.7600    4.3870 C.3    30  ALA30       0.0290
     37  N          5.8150   -5.0290    4.8370 N.3    32  LYS32      -0.1245
     38  CA         5.8460   -6.0880    5.8330 C.3    32  LYS32       0.1561
     39  C          4.8590   -7.1650    5.3940 C.2    32  LYS32       0.2260
     40  O          3.6730   -6.8990    5.2170 O.2    32  LYS32      -0.2867
     41  CB         5.4840   -5.5410    7.2240 C.3    32  LYS32       0.0271
     42  CG         4.3180   -6.2430    7.8910 C.3    32  LYS32       0.0035
     43  CD         4.7290   -6.8590    9.2240 C.3    32  LYS32       0.0206
     44  CE         3.6840   -6.5920   10.2970 C.3    32  LYS32       0.1093
     45  NZ         2.7020   -7.7070   10.4190 N.3    32  LYS32      -0.1314
     46  N         -3.0180   -3.8810   14.4750 N.3    41  GLU41      -0.1245
     47  CA        -1.8080   -3.2280   13.9880 C.3    41  GLU41       0.1567
     48  C         -2.1420   -2.1890   12.9190 C.2    41  GLU41       0.2260
     49  O         -1.6570   -1.0610   12.9670 O.2    41  GLU41      -0.2867
     50  CB        -0.8060   -4.2490   13.4450 C.3    41  GLU41       0.0388
     51  CG         0.4150   -3.6090   12.7820 C.3    41  GLU41       0.1160
     52  CD         1.4630   -4.6240   12.3490 C.2    41  GLU41       0.3649
     53  OE1        1.0920   -5.7690   12.0110 O.co2  41  GLU41      -0.2457
     54  OE2        2.6570   -4.2640   12.3250 O.co2  41  GLU41      -0.2457
     55  N          7.3430    5.6600   11.9940 N.3    54  VAL54      -0.1245
     56  CA         7.2420    5.0800   10.6540 C.3    54  VAL54       0.1561
     57  C          5.8300    5.3060   10.1010 C.2    54  VAL54       0.2260
     58  O          4.8420    4.8860   10.7060 O.2    54  VAL54      -0.2867
     59  CB         7.6130    3.5910   10.6490 C.3    54  VAL54       0.0252
     60  CG1        7.1680    2.9390    9.3360 C.3    54  VAL54       0.0019
     61  CG2        9.1190    3.4140   10.8480 C.3    54  VAL54       0.0019
     62  N          4.7540    0.5100    4.4080 N.3    70  LEU70      -0.1231
     63  CA         5.2920    1.4600    5.3730 C.3    70  LEU70       0.1693
     64  C          6.4370    2.3380    4.8800 C.2    70  LEU70       0.2592
     65  O          7.1080    2.0200    3.9020 O.2    70  LEU70      -0.2718
     66  CB         5.7420    0.6950    6.6150 C.3    70  LEU70       0.0284
     67  CG         4.7030   -0.2780    7.1790 C.3    70  LEU70       0.0019
     68  CD1        5.3630   -1.5350    7.7200 C.3    70  LEU70       0.0001
     69  CD2        3.8800    0.4020    8.2520 C.3    70  LEU70       0.0001
     70  N          6.6830    3.4270    5.6070 N.am   71  GLU71      -0.1966
     71  CA         7.7660    4.3390    5.2750 C.3    71  GLU71       0.1733
     72  C          9.1030    3.6120    5.2720 C.2    71  GLU71       0.2616
     73  O          9.4600    2.9360    6.2410 O.2    71  GLU71      -0.2715
     74  CB         7.8110    5.4950    6.2740 C.3    71  GLU71       0.0429
     75  CG         8.9870    6.4330    6.0770 C.3    71  GLU71       0.1163
     76  CD         8.9820    7.5810    7.0610 C.2    71  GLU71       0.3649
     77  OE1        8.1180    7.5890    7.9580 O.co2  71  GLU71      -0.2457
     78  OE2        9.8430    8.4760    6.9400 O.co2  71  GLU71      -0.2457
     79  N          9.8470    3.7520    4.1830 N.am   72  TYR72      -0.1960
     80  CA        11.1470    3.1080    4.0750 C.3    72  TYR72       0.1771
     81  C         12.2230    3.9360    4.7740 C.2    72  TYR72       0.2620
     82  O         12.3020    5.1520    4.6020 O.2    72  TYR72      -0.2715
     83  CB        11.5130    2.8800    2.6080 C.3    72  TYR72       0.0574
     84  CG        12.9110    2.3450    2.3950 C.ar   72  TYR72      -0.0198
     85  CD1       13.3390    1.1910    3.0300 C.ar   72  TYR72      -0.0009
     86  CD2       13.7990    2.9910    1.5370 C.ar   72  TYR72      -0.0009
     87  CE1       14.6110    0.7010    2.8300 C.ar   72  TYR72       0.0417
     88  CE2       15.0680    2.5030    1.3270 C.ar   72  TYR72       0.0417
     89  CZ        15.4720    1.3600    1.9790 C.ar   72  TYR72       0.1957
     90  OH        16.7400    0.8690    1.7710 O.3    72  TYR72      -0.2866
     91  N         13.0280    3.2690    5.5880 N.am   73  CYS73      -0.1954
     92  CA        14.0930    3.9250    6.3320 C.3    73  CYS73       0.1843
     93  C         15.4170    3.3070    5.8900 C.2    73  CYS73       0.2626
     94  O         15.8170    2.2600    6.3810 O.2    73  CYS73      -0.2714
     95  CB        13.8700    3.7260    7.8380 C.3    73  CYS73       0.0997
     96  SG        12.2670    4.3640    8.4300 S.3    73  CYS73      -0.0797
     97  N         16.0690    3.9470    4.9240 N.am   74  SER74      -0.1950
     98  CA        17.3010    3.4210    4.3430 C.3    74  SER74       0.1924
     99  C         18.4680    3.3100    5.3090 C.2    74  SER74       0.2314
    100  O         19.4140    2.5630    5.0560 O.2    74  SER74      -0.2863
    101  CB        17.7040    4.2280    3.1030 C.3    74  SER74       0.2116
    102  OG        18.1490    5.5320    3.4490 O.3    74  SER74      -0.2180
    103  N         18.4040    2.0010    8.1720 N.3    76  GLY76      -0.1210
    104  CA        18.3170    0.7420    8.8970 C.3    76  GLY76       0.1956
    105  C         18.0380    0.9070   10.3940 C.2    76  GLY76       0.2611
    106  O         17.4990    1.9260   10.8320 O.2    76  GLY76      -0.2717
    107  N         18.4150   -0.1140   11.1600 N.am   77  GLU77      -0.1979
    108  CA        18.1830   -0.1580   12.5970 C.3    77  GLU77       0.1602
    109  C         19.2270    0.5430   13.4540 C.2    77  GLU77       0.2287
    110  O         20.4350    0.4290   13.2230 O.2    77  GLU77      -0.2864
    111  CB        18.0370   -1.6050   13.0560 C.3    77  GLU77       0.0415
    112  CG        16.8840   -2.3370   12.4040 C.3    77  GLU77       0.1163
    113  CD        16.8570   -3.8000   12.7600 C.2    77  GLU77       0.3649
    114  OE1       17.6950   -4.2290   13.5610 O.co2  77  GLU77      -0.2457
    115  OE2       15.9930   -4.5190   12.2400 O.co2  77  GLU77      -0.2457
    116  N         22.1900   -1.4050   14.7650 N.3    80  ASP80      -0.1239
    117  CA        23.4480   -1.5220   14.0150 C.3    80  ASP80       0.1674
    118  C         24.4140   -0.3420   14.1480 C.2    80  ASP80       0.2266
    119  O         25.5550   -0.4070   13.6710 O.2    80  ASP80      -0.2867
    120  CB        23.1900   -1.8930   12.5550 C.3    80  ASP80       0.1410
    121  CG        22.5180   -3.2590   12.4100 C.2    80  ASP80       0.3668
    122  OD1       22.9930   -4.2290   13.0420 O.co2  80  ASP80      -0.2456
    123  OD2       21.4890   -3.3470   11.7120 O.co2  80  ASP80      -0.2456
    124  N         16.2850   -2.3520   17.8830 N.3   120  GLU120     -0.1231
    125  CA        15.8970   -3.0810   16.6900 C.3   120  GLU120      0.1699
    126  C         14.6590   -2.4740   16.0200 C.2   120  GLU120      0.2592
    127  O         14.4670   -2.6160   14.7960 O.2   120  GLU120     -0.2718
    128  CB        15.6560   -4.5570   17.0360 C.3   120  GLU120      0.0402
    129  CG        16.9170   -5.2810   17.5570 C.3   120  GLU120      0.1161
    130  CD        16.9990   -5.3200   19.0790 C.2   120  GLU120      0.3649
    131  OE1       16.6260   -4.3250   19.7310 O.co2 120  GLU120     -0.2457
    132  OE2       17.4550   -6.3450   19.6230 O.co2 120  GLU120     -0.2457
    133  N         13.8310   -1.7820   16.8150 N.am  121  ASN121     -0.1974
    134  CA        12.5940   -1.1560   16.3170 C.3   121  ASN121      0.1688
    135  C         12.7110    0.3350   16.0300 C.2   121  ASN121      0.2292
    136  O         11.7510    0.9640   15.5910 O.2   121  ASN121     -0.2864
    137  CB        11.4420   -1.3950   17.2970 C.3   121  ASN121      0.1181
    138  CG        11.0010   -2.8340   17.3180 C.2   121  ASN121      0.2629
    139  OD1       11.2080   -3.5660   16.3540 O.2   121  ASN121     -0.2716
    140  ND2       10.3970   -3.2530   18.4170 N.am  121  ASN121     -0.0877
    141  N         14.2960    2.9280   13.7180 N.3   123  LEU123     -0.1245
    142  CA        14.9230    2.9800   12.3930 C.3   123  LEU123      0.1561
    143  C         15.4490    4.3620   12.0400 C.2   123  LEU123      0.2260
    144  O         15.0670    5.3540   12.6450 O.2   123  LEU123     -0.2867
    145  CB        13.9230    2.5110   11.3220 C.3   123  LEU123      0.0270
    146  CG        13.1480    1.2410   11.6850 C.3   123  LEU123      0.0019
    147  CD1       12.1780    0.8460   10.5620 C.3   123  LEU123      0.0001
    148  CD2       14.1120    0.1010   11.9990 C.3   123  LEU123      0.0001
    149  N          9.2280    2.1110   14.9510 N.3   133  SER133     -0.1202
    150  CA         8.5850    1.1160   14.0850 C.3   133  SER133      0.2020
    151  C          8.0380   -0.0810   14.8460 C.2   133  SER133      0.2618
    152  O          8.3520   -0.2870   16.0250 O.2   133  SER133     -0.2717
    153  CB         9.5860    0.6180   13.0290 C.3   133  SER133      0.2103
    154  OG        10.4630   -0.3470   13.5970 O.3   133  SER133     -0.2182
    155  N          7.2390   -0.8870   14.1450 N.am  134  ASP134     -0.1973
    156  CA         6.6370   -2.0990   14.7050 C.3   134  ASP134      0.1709
    157  C          5.6020   -1.8510   15.8020 C.2   134  ASP134      0.2293
    158  O          5.9320   -1.8440   16.9870 O.2   134  ASP134     -0.2864
    159  CB         7.7080   -3.0790   15.1930 C.3   134  ASP134      0.1436
    160  CG         7.1520   -4.4740   15.4330 C.2   134  ASP134      0.3671
    161  OD1        5.9110   -4.6140   15.4840 O.co2 134  ASP134     -0.2456
    162  OD2        7.9530   -5.4340   15.5520 O.co2 134  ASP134     -0.2456
@<TRIPOS>BOND
     1    88    86   ar
     2    88    89   ar
     3    86    84   ar
     4    90    89    1
     5    89    87   ar
     6    32    33    1
     7    84    83    1
     8    84    85   ar
     9     7     6    1
    10    83    80    1
    11    87    85   ar
    12    33    34    1
    13    33    36    1
    14    34    35    2
    15   101   102    1
    16   101    98    1
    17     8     6    1
    18     1     2    1
    19     6     5    1
    20    65    64    2
    21    80    79    1
    22    80    81    1
    23    28    27    2
    24    27    26    1
    25    79    72   am
    26     2     5    1
    27     2     3    1
    28    98    97    1
    29    98    99    1
    30    62    63    1
    31    82    81    2
    32    81    91   am
    33    37    38    1
    34    64    63    1
    35    64    70   am
    36    97    93   am
    37   100    99    2
    38    40    39    2
    39    72    71    1
    40    72    73    2
    41    71    70    1
    42    71    74    1
    43    63    66    1
    44    39    38    1
    45    26    25    1
    46    26    29    1
    47    91    92    1
    48     3     9   am
    49     3     4    2
    50    38    41    1
    51    30    29    1
    52    93    92    1
    53    93    94    2
    54    75    74    1
    55    75    76    1
    56     9    10    1
    57    92    95    1
    58    29    31    1
    59    66    67    1
    60    12    11    2
    61    78    76   ar
    62    76    77   ar
    63    67    68    1
    64    67    69    1
    65    41    42    1
    66    11    10    1
    67    95    96    1
    68    42    43    1
    69   103   104    1
    70   104   105    1
    71    43    44    1
    72    60    59    1
    73    57    56    1
    74    57    58    2
    75    44    45    1
    76    21    19   ar
    77    21    23   ar
    78   105   106    2
    79   105   107   am
    80    16    15    2
    81   147   146    1
    82    59    56    1
    83    59    61    1
    84    56    55    1
    85    19    18   ar
    86    15    14    1
    87    24    23    1
    88   107   108    1
    89   145   146    1
    90   145   142    1
    91    23    22   ar
    92   146   148    1
    93   123   121   ar
    94    18    17    1
    95    18    20   ar
    96    53    52   ar
    97   143   142    1
    98   143   144    2
    99   115   113   ar
   100    17    14    1
   101    54    52   ar
   102    52    51    1
   103   142   141    1
   104   112   113    1
   105   112   111    1
   106   121   120    1
   107   121   122   ar
   108    14    13    1
   109   120   117    1
   110   108   111    1
   111   108   109    1
   112    22    20   ar
   113   113   114   ar
   114    51    50    1
   115    48    49    2
   116    48    47    1
   117   153   154    1
   118   153   150    1
   119   110   109    2
   120    50    47    1
   121   119   118    2
   122    47    46    1
   123   117   118    1
   124   117   116    1
   125   150   151    1
   126   150   149    1
   127   155   156    1
   128   155   151   am
   129   156   159    1
   130   156   157    1
   131   127   126    2
   132   151   152    2
   133   159   160    1
   134   160   161   ar
   135   160   162   ar
   136   136   135    2
   137   157   158    2
   138   126   125    1
   139   126   133   am
   140   135   134    1
   141   134   133    1
   142   134   137    1
   143   139   138    2
   144   125   128    1
   145   125   124    1
   146   128   129    1
   147   137   138    1
   148   138   140   am
   149   129   130    1
   150   130   132   ar
   151   130   131   ar
