@<TRIPOS>MOLECULE
tmp/3u9rA00.pdb
 72 64 0 0 0
SMALL
GASTEIGER

@<TRIPOS>ATOM
      1  N         43.5340  -30.0710   -8.2040 N.3   449  GLU449     -0.1245
      2  CA        44.9780  -29.9340   -8.0200 C.3   449  GLU449      0.1567
      3  C         45.3270  -29.3180   -6.6540 C.2   449  GLU449      0.2260
      4  O         46.2930  -29.7350   -6.0200 O.2   449  GLU449     -0.2867
      5  CB        45.6070  -29.1810   -9.2240 C.3   449  GLU449      0.0388
      6  CG        45.1380  -27.7370   -9.4140 C.3   449  GLU449      0.1160
      7  CD        45.2690  -27.2120  -10.8650 C.2   449  GLU449      0.3649
      8  OE1       44.5760  -27.7420  -11.7710 O.co2 449  GLU449     -0.2457
      9  OE2       46.0580  -26.2620  -11.1000 O.co2 449  GLU449     -0.2457
     10  N         44.7050  -31.9930   -3.9700 N.3   452  ALA452     -0.1231
     11  CA        45.7550  -33.0260   -4.0660 C.3   452  ALA452      0.1694
     12  C         47.0640  -32.5250   -3.4320 C.2   452  ALA452      0.2592
     13  O         47.7500  -33.2740   -2.7060 O.2   452  ALA452     -0.2718
     14  CB        45.9750  -33.4090   -5.5240 C.3   452  ALA452      0.0304
     15  N         47.3920  -31.2690   -3.7000 N.am  453  GLY453     -0.1957
     16  CA        48.5920  -30.6770   -3.1150 C.3   453  GLY453      0.1869
     17  C         48.6060  -30.7610   -1.5910 C.2   453  GLY453      0.2309
     18  O         49.6510  -30.9860   -0.9790 O.2   453  GLY453     -0.2863
     19  N         49.4530  -34.1980   -0.4010 N.3   456  ALA456     -0.1245
     20  CA        50.8680  -34.3690   -0.7590 C.3   456  ALA456      0.1562
     21  C         51.7880  -33.5120    0.1200 C.2   456  ALA456      0.2260
     22  O         52.7130  -34.0360    0.7450 O.2   456  ALA456     -0.2867
     23  CB        51.0830  -34.0010   -2.2270 C.3   456  ALA456      0.0290
     24  N         54.4840  -35.2020    2.7340 N.3   460  ARG460     -0.1245
     25  CA        55.9130  -34.9340    2.6160 C.3   460  ARG460      0.1563
     26  C         56.4630  -34.6130    4.0030 C.2   460  ARG460      0.2260
     27  O         57.5530  -35.0450    4.3670 O.2   460  ARG460     -0.2867
     28  CB        56.1810  -33.7630    1.6570 C.3   460  ARG460      0.0307
     29  CG        55.8400  -34.0910    0.1960 C.3   460  ARG460      0.0489
     30  CD        56.7590  -33.3930   -0.8110 C.3   460  ARG460      0.2205
     31  NE        56.4650  -31.9760   -0.9800 N.pl3 460  ARG460     -0.0865
     32  CZ        55.4340  -31.4960   -1.6690 C.cat 460  ARG460      0.5346
     33  NH1       54.5870  -32.3240   -2.2620 N.pl3 460  ARG460      0.1354
     34  NH2       55.2530  -30.1830   -1.7700 N.pl3 460  ARG460      0.1354
     35  N         58.8770  -39.2300   -6.7260 N.3   472  VAL472     -0.1245
     36  CA        57.9820  -38.6730   -7.7380 C.3   472  VAL472      0.1561
     37  C         56.7590  -39.5550   -7.9520 C.2   472  VAL472      0.2260
     38  O         55.6160  -39.0520   -7.9370 O.2   472  VAL472     -0.2867
     39  CB        58.7450  -38.4480   -9.0880 C.3   472  VAL472      0.0252
     40  CG1       57.7580  -38.0960  -10.2060 C.3   472  VAL472      0.0019
     41  CG2       59.7810  -37.3370   -8.9160 C.3   472  VAL472      0.0019
     42  N         54.5360  -39.6140   -4.7950 N.3   475  GLU475     -0.1231
     43  CA        53.6350  -38.4480   -4.6900 C.3   475  GLU475      0.1699
     44  C         52.4950  -38.5560   -5.6790 C.2   475  GLU475      0.2592
     45  O         51.3560  -38.2300   -5.3570 O.2   475  GLU475     -0.2718
     46  CB        54.3780  -37.1460   -4.9280 C.3   475  GLU475      0.0402
     47  CG        55.2860  -36.7810   -3.7830 C.3   475  GLU475      0.1161
     48  CD        55.7390  -35.3440   -3.8670 C.2   475  GLU475      0.3649
     49  OE1       54.9310  -34.4830   -4.3110 O.co2 475  GLU475     -0.2457
     50  OE2       56.8940  -35.0780   -3.4740 O.co2 475  GLU475     -0.2457
     51  N         52.7810  -39.0110   -6.8960 N.am  476  ALA476     -0.1980
     52  CA        51.7090  -39.1450   -7.8810 C.3   476  ALA476      0.1597
     53  C         50.6520  -40.1150   -7.3980 C.2   476  ALA476      0.2287
     54  O         49.4350  -39.8750   -7.5720 O.2   476  ALA476     -0.2864
     55  CB        52.2900  -39.6210   -9.2530 C.3   476  ALA476      0.0319
     56  N         48.4370  -38.5480   -4.6770 N.3   479  LYS479     -0.1245
     57  CA        47.4860  -37.5700   -5.2370 C.3   479  LYS479      0.1561
     58  C         46.3710  -38.1510   -6.0840 C.2   479  LYS479      0.2260
     59  O         45.2920  -37.5510   -6.2030 O.2   479  LYS479     -0.2867
     60  CB        48.2370  -36.5180   -6.0530 C.3   479  LYS479      0.0271
     61  CG        49.1200  -35.6110   -5.1930 C.3   479  LYS479      0.0035
     62  CD        49.7410  -34.5000   -5.9970 C.3   479  LYS479      0.0206
     63  CE        50.9940  -34.9940   -6.7150 C.3   479  LYS479      0.1093
     64  NZ        51.4940  -33.9720   -7.6730 N.3   479  LYS479     -0.1314
     65  N         42.6410  -36.3980   -7.0890 N.3   483  LEU483     -0.1245
     66  CA        42.4190  -35.8610   -8.4160 C.3   483  LEU483      0.1561
     67  C         41.2040  -36.5430   -9.0300 C.2   483  LEU483      0.2260
     68  O         40.3880  -35.8910   -9.7020 O.2   483  LEU483     -0.2867
     69  CB        43.6570  -36.1230   -9.3000 C.3   483  LEU483      0.0270
     70  CG        44.8660  -35.3430   -8.8150 C.3   483  LEU483      0.0019
     71  CD1       46.1230  -35.9030   -9.5680 C.3   483  LEU483      0.0001
     72  CD2       44.6850  -33.8550   -9.0750 C.3   483  LEU483      0.0001
@<TRIPOS>BOND
     1     8     7   ar
     2     9     7   ar
     3     7     6    1
     4    40    39    1
     5    68    67    2
     6    71    70    1
     7     6     5    1
     8    69    70    1
     9    69    66    1
    10    55    52    1
    11     5     2    1
    12    39    41    1
    13    39    36    1
    14    72    70    1
    15    67    66    1
    16    66    65    1
    17     1     2    1
    18     2     3    1
    19    37    38    2
    20    37    36    1
    21    52    53    1
    22    52    51    1
    23    36    35    1
    24    64    63    1
    25    54    53    2
    26    51    44   am
    27    63    62    1
    28     3     4    2
    29    59    58    2
    30    58    57    1
    31    60    57    1
    32    60    61    1
    33    62    61    1
    34    44    45    2
    35    44    43    1
    36    14    11    1
    37    57    56    1
    38    46    43    1
    39    46    47    1
    40    42    43    1
    41    49    48   ar
    42    11    10    1
    43    11    12    1
    44    48    47    1
    45    48    50   ar
    46    15    12   am
    47    15    16    1
    48    12    13    2
    49    16    17    1
    50    33    32    1
    51    23    20    1
    52    34    32    1
    53    32    31    2
    54    17    18    2
    55    31    30    1
    56    30    29    1
    57    20    19    1
    58    20    21    1
    59    21    22    2
    60    29    28    1
    61    28    25    1
    62    25    24    1
    63    25    26    1
    64    26    27    2
