@<TRIPOS>MOLECULE
tmp/3u9sB00.pdb
 146 139 0 0 0
SMALL
GASTEIGER

@<TRIPOS>ATOM
      1  N         77.3430   18.9500   74.6650 N.3    49  ARG49      -0.1245
      2  CA        78.4920   18.2770   74.0740 C.3    49  ARG49       0.1563
      3  C         78.2050   17.9930   72.5700 C.2    49  ARG49       0.2260
      4  O         79.0830   17.5590   71.8170 O.2    49  ARG49      -0.2867
      5  CB        78.7580   16.9920   74.8570 C.3    49  ARG49       0.0307
      6  CG        79.5360   15.9570   74.1010 C.3    49  ARG49       0.0489
      7  CD        78.9750   14.6060   74.4270 C.3    49  ARG49       0.2205
      8  NE        79.2930   13.6240   73.3990 N.pl3  49  ARG49      -0.0865
      9  CZ        78.6730   12.4550   73.2650 C.cat  49  ARG49       0.5346
     10  NH1       77.6890   12.1090   74.0950 N.pl3  49  ARG49       0.1354
     11  NH2       79.0400   11.6270   72.2990 N.pl3  49  ARG49       0.1354
     12  N         80.3040   19.7560   68.6400 N.3    53  ARG53      -0.1245
     13  CA        80.7510   19.3270   67.3040 C.3    53  ARG53       0.1563
     14  C         80.2770   20.2530   66.1800 C.2    53  ARG53       0.2260
     15  O         80.4930   19.9610   64.9920 O.2    53  ARG53      -0.2867
     16  CB        80.2490   17.9100   66.9660 C.3    53  ARG53       0.0307
     17  CG        80.7840   16.7740   67.8210 C.3    53  ARG53       0.0489
     18  CD        80.3720   15.4090   67.2570 C.3    53  ARG53       0.2205
     19  NE        80.6830   14.3350   68.1960 N.pl3  53  ARG53      -0.0865
     20  CZ        80.2810   14.3130   69.4660 C.cat  53  ARG53       0.5346
     21  NH1       79.5460   15.3100   69.9590 N.pl3  53  ARG53       0.1354
     22  NH2       80.6180   13.2960   70.2500 N.pl3  53  ARG53       0.1354
     23  N         66.5180    3.5340   81.9180 N.3    86  GLU86      -0.1245
     24  CA        67.0200    4.9030   81.8180 C.3    86  GLU86       0.1567
     25  C         66.0050    5.8930   81.2290 C.2    86  GLU86       0.2260
     26  O         64.8750    5.5240   80.9060 O.2    86  GLU86      -0.2867
     27  CB        68.2740    4.8540   80.9470 C.3    86  GLU86       0.0388
     28  CG        68.1700    3.7550   79.8680 C.3    86  GLU86       0.1160
     29  CD        69.5090    3.0900   79.5400 C.2    86  GLU86       0.3649
     30  OE1       69.5040    2.0430   78.8280 O.co2  86  GLU86      -0.2457
     31  OE2       70.5580    3.6220   79.9940 O.co2  86  GLU86      -0.2457
     32  N         70.7700    8.7400   74.3940 N.3   115  LYS115     -0.1231
     33  CA        71.5720    7.5070   74.3070 C.3   115  LYS115      0.1693
     34  C         72.1640    7.2310   72.9200 C.2   115  LYS115      0.2592
     35  O         71.8840    6.1960   72.3060 O.2   115  LYS115     -0.2718
     36  CB        70.7820    6.2710   74.7800 C.3   115  LYS115      0.0285
     37  CG        71.6600    5.0160   75.0790 C.3   115  LYS115      0.0035
     38  CD        72.0880    4.8920   76.5630 C.3   115  LYS115      0.0206
     39  CE        72.8860    3.5910   76.8350 C.3   115  LYS115      0.1093
     40  NZ        72.2290    2.2860   76.4280 N.3   115  LYS115     -0.1314
     41  N         72.9890    8.1690   72.4480 N.am  116  GLY116     -0.1957
     42  CA        73.6520    8.0340   71.1620 C.3   116  GLY116      0.1869
     43  C         72.7490    7.9160   69.9490 C.2   116  GLY116      0.2309
     44  O         73.1730    7.4080   68.9090 O.2   116  GLY116     -0.2863
     45  N         70.6690    5.8890   69.1660 N.3   118  THR118     -0.1218
     46  CA        70.3030    4.5140   68.8190 C.3   118  THR118      0.1862
     47  C         68.8230    4.1900   68.9600 C.2   118  THR118      0.2287
     48  O         68.0710    4.8420   69.6880 O.2   118  THR118     -0.2866
     49  CB        71.0800    3.4790   69.6400 C.3   118  THR118      0.1770
     50  OG1       70.7890    3.6230   71.0420 O.3   118  THR118     -0.2211
     51  CG2       72.5500    3.6520   69.3870 C.3   118  THR118      0.0375
     52  N         72.9450    6.4820   65.9550 N.3   148  GLY148     -0.1210
     53  CA        74.0090    5.5200   66.1750 C.3   148  GLY148      0.1956
     54  C         73.6220    4.3020   65.3800 C.2   148  GLY148      0.2612
     55  O         73.7970    4.2850   64.1720 O.2   148  GLY148     -0.2717
     56  N         73.0900    3.2910   66.0480 N.am  149  GLY149     -0.1942
     57  CA        72.6530    2.0970   65.3480 C.3   149  GLY149      0.2014
     58  C         71.3460    1.7190   65.9950 C.2   149  GLY149      0.2639
     59  O         70.4860    2.5840   66.1940 O.2   149  GLY149     -0.2714
     60  N         71.1900    0.4360   66.3110 N.am  150  ALA150     -0.1963
     61  CA        70.0050   -0.0370   67.0130 C.3   150  ALA150      0.1728
     62  C         70.5750   -0.3820   68.4040 C.2   150  ALA150      0.2616
     63  O         71.7070   -0.8720   68.4940 O.2   150  ALA150     -0.2715
     64  CB        69.4440   -1.2480   66.3140 C.3   150  ALA150      0.0334
     65  N         69.8330   -0.0820   69.4770 N.am  151  ASN151     -0.1958
     66  CA        70.2990   -0.3450   70.8650 C.3   151  ASN151      0.1819
     67  C         70.6210   -1.8340   71.1270 C.2   151  ASN151      0.2621
     68  O         69.7590   -2.6320   71.5480 O.2   151  ASN151     -0.2715
     69  CB        69.2700    0.2080   71.8990 C.3   151  ASN151      0.1195
     70  CG        69.7270    0.0570   73.3660 C.2   151  ASN151      0.2630
     71  OD1       69.4650   -0.9680   74.0020 O.2   151  ASN151     -0.2716
     72  ND2       70.4080    1.0800   73.8970 N.am  151  ASN151     -0.0877
     73  N         71.8930   -2.1610   70.8800 N.am  152  LEU152     -0.1964
     74  CA        72.4540   -3.4970   71.0070 C.3   152  LEU152      0.1713
     75  C         71.9470   -4.4430   72.0840 C.2   152  LEU152      0.2458
     76  O         71.8100   -5.6430   71.8220 O.2   152  LEU152     -0.2730
     77  CB        73.9680   -3.3890   71.1130 C.3   152  LEU152      0.0310
     78  CG        74.6510   -3.1890   69.7620 C.3   152  LEU152      0.0022
     79  CD1       76.1360   -2.8510   69.9540 C.3   152  LEU152      0.0001
     80  CD2       74.4600   -4.4620   68.9290 C.3   152  LEU152      0.0001
     81  N         71.6980   -3.9380   73.3170 N.am  153  PRO153     -0.2727
     82  CA        71.2000   -4.8160   74.3930 C.3   153  PRO153      0.1402
     83  C         69.7710   -5.3450   74.1900 C.2   153  PRO153      0.2269
     84  O         69.4790   -6.5010   74.5280 O.2   153  PRO153     -0.2865
     85  CB        71.2900   -3.9370   75.6450 C.3   153  PRO153      0.0296
     86  CG        72.4020   -3.0030   75.3320 C.3   153  PRO153      0.0237
     87  CD        72.1440   -2.6480   73.8790 C.3   153  PRO153      0.0939
     88  N         65.1120   -5.9240   65.9930 N.3   159  PHE159     -0.1241
     89  CA        65.6210   -6.3460   64.6910 C.3   159  PHE159      0.1605
     90  C         64.8070   -7.3180   63.8260 C.2   159  PHE159      0.2264
     91  O         64.4370   -6.9970   62.6850 O.2   159  PHE159     -0.2867
     92  CB        67.0340   -6.8960   64.9150 C.3   159  PHE159      0.0534
     93  CG        67.6010   -7.6040   63.7480 C.ar  159  PHE159     -0.0203
     94  CD1       68.2260   -6.9040   62.7420 C.ar  159  PHE159     -0.0042
     95  CD2       67.5050   -8.9800   63.6570 C.ar  159  PHE159     -0.0042
     96  CE1       68.7510   -7.5600   61.6560 C.ar  159  PHE159     -0.0003
     97  CE2       68.0240   -9.6450   62.5800 C.ar  159  PHE159     -0.0003
     98  CZ        68.6520   -8.9330   61.5700 C.ar  159  PHE159     -0.0000
     99  N         62.5680   -2.8690   63.1430 N.3   165  PHE165     -0.1241
    100  CA        63.4260   -2.0540   62.2480 C.3   165  PHE165      0.1605
    101  C         63.3980   -2.7310   60.8560 C.2   165  PHE165      0.2264
    102  O         62.8880   -3.8440   60.7290 O.2   165  PHE165     -0.2867
    103  CB        64.8390   -2.0480   62.8570 C.3   165  PHE165      0.0534
    104  CG        65.7470   -0.9120   62.4190 C.ar  165  PHE165     -0.0203
    105  CD1       66.7370   -0.4410   63.3010 C.ar  165  PHE165     -0.0042
    106  CD2       65.6870   -0.3660   61.1480 C.ar  165  PHE165     -0.0042
    107  CE1       67.6450    0.5450   62.9230 C.ar  165  PHE165     -0.0003
    108  CE2       66.6000    0.6290   60.7640 C.ar  165  PHE165     -0.0003
    109  CZ        67.5780    1.0800   61.6550 C.ar  165  PHE165     -0.0000
    110  N         76.3710   10.3820   62.4410 N.3   189  SER189     -0.1217
    111  CA        76.8150    9.0270   62.1440 C.3   189  SER189      0.1889
    112  C         75.5770    8.3660   61.6120 C.2   189  SER189      0.2288
    113  O         74.4670    8.8390   61.8280 O.2   189  SER189     -0.2866
    114  CB        77.3100    8.2910   63.4030 C.3   189  SER189      0.2089
    115  OG        77.8830    7.0190   63.1020 O.3   189  SER189     -0.2183
    116  N         75.6270    4.5010   61.0190 N.3   191  THR191     -0.1203
    117  CA        76.2210    3.2080   60.8100 C.3   191  THR191      0.1994
    118  C         75.2140    2.0550   60.7090 C.2   191  THR191      0.2618
    119  O         74.1640    2.0760   61.3320 O.2   191  THR191     -0.2717
    120  CB        77.2780    2.9460   61.9200 C.3   191  THR191      0.1784
    121  OG1       76.6330    2.4260   63.0820 O.3   191  THR191     -0.2211
    122  CG2       77.9990    4.2550   62.3060 C.3   191  THR191      0.0376
    123  N         75.5330    1.0710   59.8730 N.am  192  ALA192     -0.1965
    124  CA        74.7060   -0.1230   59.6900 C.3   192  ALA192      0.1728
    125  C         73.2140    0.0810   59.3990 C.2   192  ALA192      0.2616
    126  O         72.8310    0.4060   58.2770 O.2   192  ALA192     -0.2715
    127  CB        74.8710   -1.0310   60.9120 C.3   192  ALA192      0.0334
    128  N         72.3840   -0.1470   60.4170 N.am  193  GLY193     -0.1955
    129  CA        70.9420   -0.0070   60.2810 C.3   193  GLY193      0.1869
    130  C         70.4490    1.2330   59.5500 C.2   193  GLY193      0.2309
    131  O         70.0380    1.1700   58.3970 O.2   193  GLY193     -0.2863
    132  N         84.5250    0.5570   64.1580 N.3   219  PRO219     -0.2102
    133  CA        84.6040   -0.4570   65.2250 C.3   219  PRO219      0.1504
    134  C         84.3920   -1.8380   64.5900 C.2   219  PRO219      0.2575
    135  O         85.2380   -2.7320   64.6920 O.2   219  PRO219     -0.2718
    136  CB        83.4510   -0.0840   66.1690 C.3   219  PRO219      0.0282
    137  CG        83.2940    1.3750   65.9690 C.3   219  PRO219      0.0208
    138  CD        83.4720    1.5460   64.4640 C.3   219  PRO219      0.0893
    139  N         83.2490   -1.9850   63.9220 N.am  220  LEU220     -0.1980
    140  CA        82.8960   -3.2140   63.2360 C.3   220  LEU220      0.1596
    141  C         83.9550   -3.5590   62.1610 C.2   220  LEU220      0.2287
    142  O         84.4740   -4.6740   62.1500 O.2   220  LEU220     -0.2864
    143  CB        81.4840   -3.0790   62.6090 C.3   220  LEU220      0.0297
    144  CG        80.2810   -2.8110   63.5360 C.3   220  LEU220      0.0022
    145  CD1       80.1100   -1.3060   63.7680 C.3   220  LEU220      0.0001
    146  CD2       79.0160   -3.3790   62.9140 C.3   220  LEU220      0.0001
@<TRIPOS>BOND
     1   126   125    2
     2   131   130    2
     3   125   124    1
     4   125   128   am
     5   130   129    1
     6   124   123    1
     7   124   127    1
     8   123   118   am
     9   129   128    1
    10   118   117    1
    11   118   119    2
    12   102   101    2
    13   108   106   ar
    14   108   109   ar
    15   117   116    1
    16   117   120    1
    17   101   100    1
    18   106   104   ar
    19    98    96   ar
    20    98    97   ar
    21   112   113    2
    22   112   111    1
    23   109   107   ar
    24    96    94   ar
    25   120   122    1
    26   120   121    1
    27   111   110    1
    28   111   114    1
    29   142   141    2
    30   141   140    1
    31   100   103    1
    32   100    99    1
    33   104   103    1
    34   104   105   ar
    35    97    95   ar
    36   143   140    1
    37   143   144    1
    38    91    90    2
    39    94    93   ar
    40   146   144    1
    41   107   105   ar
    42   115   114    1
    43   140   139    1
    44   144   145    1
    45    95    93   ar
    46    93    92    1
    47    90    89    1
    48   139   134   am
    49   132   138    1
    50   132   133    1
    51    55    54    2
    52   138   137    1
    53   134   135    2
    54   134   133    1
    55    89    92    1
    56    89    88    1
    57    15    14    2
    58   133   136    1
    59    57    58    1
    60    57    56    1
    61    54    56   am
    62    54    53    1
    63    52    53    1
    64   137   136    1
    65    58    59    2
    66    58    60   am
    67    14    13    1
    68    60    61    1
    69    64    61    1
    70    16    13    1
    71    16    17    1
    72    61    62    1
    73    18    17    1
    74    18    19    1
    75    13    12    1
    76    19    20    2
    77    62    63    2
    78    62    65   am
    79    46    47    1
    80    46    45    1
    81    46    49    1
    82    44    43    2
    83    80    78    1
    84    47    48    2
    85    51    49    1
    86    20    21    1
    87    20    22    1
    88    65    66    1
    89    49    50    1
    90    78    79    1
    91    78    77    1
    92    43    42    1
    93    66    67    1
    94    66    69    1
    95    73    74    1
    96    73    67   am
    97    74    77    1
    98    74    75    1
    99    67    68    2
   100    42    41    1
   101     4     3    2
   102    76    75    2
   103    69    70    1
   104    75    81   am
   105    11     9    1
   106    35    34    2
   107    41    34   am
   108     3     2    1
   109    34    33    1
   110     9     8    2
   111     9    10    1
   112    81    87    1
   113    81    82    1
   114    70    72   am
   115    70    71    2
   116     8     7    1
   117    87    86    1
   118     2     1    1
   119     2     5    1
   120     6     7    1
   121     6     5    1
   122    83    82    1
   123    83    84    2
   124    33    32    1
   125    33    36    1
   126    82    85    1
   127    36    37    1
   128    37    38    1
   129    86    85    1
   130    40    39    1
   131    38    39    1
   132    30    29   ar
   133    29    28    1
   134    29    31   ar
   135    28    27    1
   136    26    25    2
   137    27    24    1
   138    25    24    1
   139    24    23    1
