@<TRIPOS>MOLECULE
tmp/3u9sF00.pdb
 81 78 0 0 0
SMALL
GASTEIGER

@<TRIPOS>ATOM
      1  N         79.6780   13.8270   22.7200 N.3   379  THR379     -0.1203
      2  CA        80.6210   13.3370   21.7270 C.3   379  THR379      0.1994
      3  C         80.6880   11.7950   21.7690 C.2   379  THR379      0.2618
      4  O         81.2130   11.1710   20.8560 O.2   379  THR379     -0.2717
      5  CB        82.0000   13.9230   21.9870 C.3   379  THR379      0.1784
      6  OG1       82.7460   13.0300   22.8200 O.3   379  THR379     -0.2211
      7  CG2       81.8600   15.2490   22.6960 C.3   379  THR379      0.0376
      8  N         80.1500   11.1920   22.8310 N.am  380  GLY380     -0.1942
      9  CA        80.1490    9.7450   22.9540 C.3   380  GLY380      0.2014
     10  C         80.4350    9.2230   24.3470 C.2   380  GLY380      0.2638
     11  O         80.5630    9.9840   25.3030 O.2   380  GLY380     -0.2714
     12  N         80.5310    7.9020   24.4500 N.am  381  PHE381     -0.1973
     13  CA        80.8210    7.2200   25.7120 C.3   381  PHE381      0.1639
     14  C         82.3000    6.9260   25.8550 C.2   381  PHE381      0.2290
     15  O         82.9010    6.3150   24.9740 O.2   381  PHE381     -0.2864
     16  CB        80.0600    5.9030   25.7920 C.3   381  PHE381      0.0560
     17  CG        78.6400    6.0690   26.1770 C.ar  381  PHE381     -0.0200
     18  CD1       77.7470    6.6800   25.3170 C.ar  381  PHE381     -0.0042
     19  CD2       78.2030    5.6700   27.4300 C.ar  381  PHE381     -0.0042
     20  CE1       76.4440    6.8940   25.7000 C.ar  381  PHE381     -0.0003
     21  CE2       76.8990    5.8800   27.8230 C.ar  381  PHE381     -0.0003
     22  CZ        76.0190    6.4930   26.9590 C.ar  381  PHE381     -0.0000
     23  N         85.5280    5.3180   25.9580 N.3   383  VAL383     -0.1245
     24  CA        85.9320    3.9480   25.5930 C.3   383  VAL383      0.1561
     25  C         87.2320    3.5470   26.2990 C.2   383  VAL383      0.2260
     26  O         87.8570    4.3780   26.9620 O.2   383  VAL383     -0.2867
     27  CB        86.1490    3.8270   24.0730 C.3   383  VAL383      0.0252
     28  CG1       84.9640    4.4310   23.3400 C.3   383  VAL383      0.0019
     29  CG2       87.4410    4.5300   23.6740 C.3   383  VAL383      0.0019
     30  N         76.4620   12.4080   18.5280 N.3   419  PHE419     -0.1227
     31  CA        77.3100   11.4660   17.8510 C.3   419  PHE419      0.1736
     32  C         77.3190   10.1500   18.5830 C.2   419  PHE419      0.2596
     33  O         77.7630   10.0830   19.7300 O.2   419  PHE419     -0.2718
     34  CB        78.7260   12.0170   17.7820 C.3   419  PHE419      0.0547
     35  CG        78.8660   13.2150   16.8960 C.ar  419  PHE419     -0.0202
     36  CD1       78.6560   13.1090   15.5270 C.ar  419  PHE419     -0.0042
     37  CD2       79.1980   14.4560   17.4300 C.ar  419  PHE419     -0.0042
     38  CE1       78.7730   14.2200   14.7020 C.ar  419  PHE419     -0.0003
     39  CE2       79.3190   15.5790   16.6070 C.ar  419  PHE419     -0.0003
     40  CZ        79.1060   15.4610   15.2410 C.ar  419  PHE419     -0.0000
     41  N         76.8150    9.1100   17.9210 N.am  420  GLY420     -0.1942
     42  CA        76.7940    7.7720   18.5080 C.3   420  GLY420      0.2014
     43  C         75.8160    7.4610   19.6420 C.2   420  GLY420      0.2639
     44  O         74.7620    8.1070   19.7980 O.2   420  GLY420     -0.2714
     45  N         76.1640    6.4440   20.4280 N.am  421  ALA421     -0.1963
     46  CA        75.3430    6.0430   21.5500 C.3   421  ALA421      0.1728
     47  C         74.7550    7.3010   22.1930 C.2   421  ALA421      0.2616
     48  O         73.5970    7.3270   22.5890 O.2   421  ALA421     -0.2715
     49  CB        76.1880    5.2750   22.5580 C.3   421  ALA421      0.0334
     50  N         75.5600    8.3530   22.2720 N.am  422  GLY422     -0.1955
     51  CA        75.1100    9.5960   22.8710 C.3   422  GLY422      0.1869
     52  C         73.7170   10.0180   22.4530 C.2   422  GLY422      0.2309
     53  O         72.8440   10.1900   23.3120 O.2   422  GLY422     -0.2863
     54  N         76.6760    9.4960   12.9880 N.3   446  VAL446     -0.1231
     55  CA        76.9890    8.2130   13.6460 C.3   446  VAL446      0.1692
     56  C         78.2700    8.3000   14.4720 C.2   446  VAL446      0.2592
     57  O         78.4220    7.5950   15.4740 O.2   446  VAL446     -0.2718
     58  CB        77.1420    7.0740   12.6170 C.3   446  VAL446      0.0266
     59  CG1       77.8460    7.5930   11.3950 C.3   446  VAL446      0.0020
     60  CG2       77.9490    5.9300   13.2090 C.3   446  VAL446      0.0020
     61  N         79.1860    9.1580   14.0330 N.am  447  MET447     -0.1965
     62  CA        80.4470    9.4000   14.7180 C.3   447  MET447      0.1736
     63  C         81.1760   10.3900   13.8670 C.2   447  MET447      0.2617
     64  O         80.7650   10.6480   12.7420 O.2   447  MET447     -0.2715
     65  CB        81.2820    8.1330   14.8360 C.3   447  MET447      0.0427
     66  CG        82.0530    7.7500   13.5850 C.3   447  MET447      0.0599
     67  SD        82.9700    6.1860   13.7870 S.3   447  MET447     -0.1393
     68  CE        83.8760    6.5190   15.3620 C.3   447  MET447      0.0692
     69  N         82.2590   10.9360   14.4010 N.am  448  GLY448     -0.1955
     70  CA        83.0510   11.9180   13.6720 C.3   448  GLY448      0.1869
     71  C         83.4660   11.6360   12.2270 C.2   448  GLY448      0.2309
     72  O         83.4030   10.4960   11.7550 O.2   448  GLY448     -0.2863
     73  N         86.7240    9.8340   12.2010 N.3   451  GLN451     -0.1245
     74  CA        86.4800    8.7430   13.1400 C.3   451  GLN451      0.1566
     75  C         86.0690    7.5220   12.3350 C.2   451  GLN451      0.2260
     76  O         86.6620    6.4500   12.4530 O.2   451  GLN451     -0.2867
     77  CB        85.3410    9.0850   14.0950 C.3   451  GLN451      0.0367
     78  CG        85.6400   10.1950   15.0440 C.3   451  GLN451      0.0905
     79  CD        86.9780   10.0120   15.6850 C.2   451  GLN451      0.2608
     80  OE1       87.4310    8.8800   15.8810 O.2   451  GLN451     -0.2717
     81  NE2       87.6280   11.1230   16.0300 N.am  451  GLN451     -0.0878
@<TRIPOS>BOND
     1    59    58    1
     2    72    71    2
     3    73    74    1
     4    71    70    1
     5    75    76    2
     6    75    74    1
     7    58    60    1
     8    58    55    1
     9    64    63    2
    10    54    55    1
    11    74    77    1
    12    66    67    1
    13    66    65    1
    14    55    56    1
    15    70    69    1
    16    67    68    1
    17    63    69   am
    18    63    62    1
    19    61    56   am
    20    61    62    1
    21    77    78    1
    22    56    57    2
    23    38    40   ar
    24    38    36   ar
    25    62    65    1
    26    78    79    1
    27    40    39   ar
    28    36    35   ar
    29    79    80    2
    30    79    81   am
    31    39    37   ar
    32    35    37   ar
    33    35    34    1
    34    34    31    1
    35    31    30    1
    36    31    32    1
    37    41    42    1
    38    41    32   am
    39    42    43    1
    40    32    33    2
    41    43    44    2
    42    43    45   am
    43    45    46    1
    44     4     3    2
    45    46    47    1
    46    46    49    1
    47     2     3    1
    48     2     5    1
    49     2     1    1
    50     3     8   am
    51     5     7    1
    52     5     6    1
    53    47    50   am
    54    47    48    2
    55    50    51    1
    56    52    51    1
    57    52    53    2
    58     8     9    1
    59     9    10    1
    60    28    27    1
    61    29    27    1
    62    27    24    1
    63    10    12   am
    64    10    11    2
    65    12    13    1
    66    15    14    2
    67    18    20   ar
    68    18    17   ar
    69    24    23    1
    70    24    25    1
    71    20    22   ar
    72    13    16    1
    73    13    14    1
    74    16    17    1
    75    17    19   ar
    76    25    26    2
    77    22    21   ar
    78    19    21   ar
