@<TRIPOS>MOLECULE
tmp/3u9yA00.pdb
 198 197 0 0 0
SMALL
GASTEIGER

@<TRIPOS>ATOM
      1  N          9.9890   -1.7790    8.5900 N.3    79  PHE79      -0.1227
      2  CA        10.8200   -2.2910    9.6620 C.3    79  PHE79       0.1736
      3  C         10.5200   -1.6670   11.0090 C.2    79  PHE79       0.2595
      4  O         10.1790   -0.4910   11.0980 O.2    79  PHE79      -0.2718
      5  CB        12.2910   -2.0680    9.3160 C.3    79  PHE79       0.0547
      6  CG        12.6880   -2.7500    8.0690 C.ar   79  PHE79      -0.0202
      7  CD1       12.8930   -4.1390    8.0670 C.ar   79  PHE79      -0.0042
      8  CD2       12.7460   -2.0540    6.8810 C.ar   79  PHE79      -0.0042
      9  CE1       13.2140   -4.7850    6.9240 C.ar   79  PHE79      -0.0003
     10  CE2       13.0650   -2.6930    5.7300 C.ar   79  PHE79      -0.0003
     11  CZ        13.2840   -4.0660    5.7390 C.ar   79  PHE79      -0.0000
     12  N         10.7230   -2.4540   12.0600 N.am   80  HIS80      -0.1961
     13  CA        10.6600   -1.9980   13.4170 C.3    80  HIS80       0.1787
     14  C         11.7390   -2.6790   14.2680 C.2    80  HIS80       0.2621
     15  O         11.7580   -3.9060   14.3670 O.2    80  HIS80      -0.2715
     16  CB         9.3090   -2.3260   14.0030 C.3    80  HIS80       0.0785
     17  CG         9.1670   -1.8920   15.4180 C.ar   80  HIS80       0.0821
     18  ND1        8.7990   -0.6140   15.7600 N.ar   80  HIS80      -0.2267
     19  CD2        9.3510   -2.5640   16.5830 C.ar   80  HIS80       0.1154
     20  CE1        8.7560   -0.5160   17.0820 C.ar   80  HIS80       0.1986
     21  NE2        9.0990   -1.6850   17.6030 N.ar   80  HIS80      -0.2212
     22  N         12.6210   -1.8860   14.8780 N.am   81  GLY81      -0.1940
     23  CA        13.6220   -2.4040   15.8260 C.3    81  GLY81       0.2014
     24  C         13.3120   -2.0100   17.2640 C.2    81  GLY81       0.2639
     25  O         12.8310   -0.9000   17.5340 O.2    81  GLY81      -0.2714
     26  N         13.5510   -2.9180   18.1930 N.am   82  SER82      -0.1949
     27  CA        13.2200   -2.6690   19.5960 C.3    82  SER82       0.1924
     28  C         13.8180   -3.7360   20.4940 C.2    82  SER82       0.2314
     29  O         13.9270   -4.8910   20.0770 O.2    82  SER82      -0.2863
     30  CB        11.7020   -2.6550   19.7520 C.3    82  SER82       0.2116
     31  OG        11.2940   -2.9300   21.0670 O.3    82  SER82      -0.2180
     32  N         12.2230   -5.0110   22.7900 N.3    84  PHE84      -0.1241
     33  CA        11.1000   -5.8320   23.2340 C.3    84  PHE84       0.1605
     34  C         10.4130   -6.6030   22.0830 C.2    84  PHE84       0.2264
     35  O          9.2180   -6.8930   22.1180 O.2    84  PHE84      -0.2867
     36  CB        10.1310   -4.9300   24.0030 C.3    84  PHE84       0.0534
     37  CG        10.8090   -4.0750   25.0680 C.ar   84  PHE84      -0.0203
     38  CD1       11.3220   -4.6570   26.2300 C.ar   84  PHE84      -0.0042
     39  CD2       10.9020   -2.6950   24.9200 C.ar   84  PHE84      -0.0042
     40  CE1       11.9380   -3.8810   27.2200 C.ar   84  PHE84      -0.0003
     41  CE2       11.5140   -1.9080   25.8940 C.ar   84  PHE84      -0.0003
     42  CZ        12.0380   -2.5050   27.0490 C.ar   84  PHE84      -0.0000
     43  N          8.3630   -9.6980   23.2040 N.3    87  ALA87      -0.1231
     44  CA         7.0290   -9.3200   23.6430 C.3    87  ALA87       0.1694
     45  C          6.0940   -8.8720   22.4990 C.2    87  ALA87       0.2591
     46  O          4.8670   -9.0910   22.5780 O.2    87  ALA87      -0.2718
     47  CB         7.1380   -8.2300   24.6690 C.3    87  ALA87       0.0304
     48  N          6.6240   -8.2080   21.4630 N.am   88  ILE88      -0.1980
     49  CA         5.7480   -7.7490   20.3550 C.3    88  ILE88       0.1595
     50  C          5.1720   -8.9280   19.5810 C.2    88  ILE88       0.2287
     51  O          3.9990   -8.9190   19.2460 O.2    88  ILE88      -0.2864
     52  CB         6.4300   -6.7980   19.3590 C.3    88  ILE88       0.0276
     53  CG1        6.7480   -5.4780   20.0440 C.3    88  ILE88       0.0022
     54  CG2        5.5030   -6.5350   18.1270 C.3    88  ILE88       0.0022
     55  CD1        7.5120   -4.5140   19.1730 C.3    88  ILE88       0.0001
     56  N          2.4120  -10.7050   22.1400 N.3    91  LYS91      -0.1231
     57  CA         1.2840   -9.8930   22.6050 C.3    91  LYS91       0.1693
     58  C          0.8190   -8.8220   21.6000 C.2    91  LYS91       0.2593
     59  O         -0.2020   -8.1570   21.8210 O.2    91  LYS91      -0.2718
     60  CB         1.6650   -9.2300   23.9220 C.3    91  LYS91       0.0285
     61  CG         1.9730  -10.2110   25.0790 C.3    91  LYS91       0.0035
     62  CD         3.3800   -9.9320   25.6950 C.3    91  LYS91       0.0206
     63  CE         3.4230  -10.0150   27.2520 C.3    91  LYS91       0.1093
     64  NZ         4.6900   -9.4060   27.8220 N.3    91  LYS91      -0.1314
     65  N          1.5600   -8.6610   20.5060 N.am   92  GLY92      -0.1942
     66  CA         1.2990   -7.6020   19.5230 C.3    92  GLY92       0.2014
     67  C          1.8490   -6.2570   19.9630 C.2    92  GLY92       0.2639
     68  O          2.4200   -6.1330   21.0320 O.2    92  GLY92      -0.2714
     69  N          1.6790   -5.2410   19.1270 N.am   93  PHE93      -0.1959
     70  CA         2.2100   -3.9070   19.4350 C.3    93  PHE93       0.1771
     71  C          1.3200   -3.2610   20.4710 C.2    93  PHE93       0.2619
     72  O          0.1030   -3.3160   20.3460 O.2    93  PHE93      -0.2715
     73  CB         2.2270   -3.0320   18.1850 C.3    93  PHE93       0.0574
     74  CG         3.3170   -3.3650   17.2490 C.ar   93  PHE93      -0.0200
     75  CD1        4.5990   -2.8840   17.4670 C.ar   93  PHE93      -0.0042
     76  CD2        3.0870   -4.1630   16.1620 C.ar   93  PHE93      -0.0042
     77  CE1        5.6260   -3.1990   16.6040 C.ar   93  PHE93      -0.0003
     78  CE2        4.0970   -4.4690   15.3110 C.ar   93  PHE93      -0.0003
     79  CZ         5.3690   -3.9770   15.5260 C.ar   93  PHE93      -0.0000
     80  N          1.9280   -2.6530   21.4840 N.am   94  ASP94      -0.1971
     81  CA         1.1790   -2.0300   22.5780 C.3    94  ASP94       0.1709
     82  C          1.3970   -0.5220   22.5100 C.2    94  ASP94       0.2293
     83  O          2.5350   -0.0550   22.6220 O.2    94  ASP94      -0.2864
     84  CB         1.6550   -2.5860   23.9300 C.3    94  ASP94       0.1436
     85  CG         0.5670   -2.5410   25.0130 C.2    94  ASP94       0.3671
     86  OD1       -0.3300   -1.6480   24.9540 O.co2  94  ASP94      -0.2456
     87  OD2        0.6290   -3.4200   25.9220 O.co2  94  ASP94      -0.2456
     88  N          3.0530    1.5940   25.3170 N.3    97  HIS97      -0.1226
     89  CA         4.5070    1.5520   25.3940 C.3    97  HIS97       0.1752
     90  C          5.0850    2.1330   24.1330 C.2    97  HIS97       0.2596
     91  O          6.0600    1.6110   23.6020 O.2    97  HIS97      -0.2718
     92  CB         4.9930    0.1200   25.5380 C.3    97  HIS97       0.0759
     93  CG         4.4890   -0.5490   26.7660 C.ar   97  HIS97       0.0818
     94  ND1        5.3070   -0.8630   27.8280 N.ar   97  HIS97      -0.2268
     95  CD2        3.2420   -0.9450   27.1150 C.ar   97  HIS97       0.1154
     96  CE1        4.5890   -1.4390   28.7760 C.ar   97  HIS97       0.1986
     97  NE2        3.3310   -1.4960   28.3700 N.ar   97  HIS97      -0.2212
     98  N          4.4820    3.2110   23.6480 N.am   98  ALA98      -0.1966
     99  CA         4.9480    3.8770   22.4320 C.3    98  ALA98       0.1728
    100  C          6.2830    4.6000   22.6670 C.2    98  ALA98       0.2616
    101  O          6.8310    4.5780   23.7720 O.2    98  ALA98      -0.2715
    102  CB         3.8920    4.8600   21.9580 C.3    98  ALA98       0.0334
    103  N          6.8160    5.2130   21.6140 N.am   99  TYR99      -0.1974
    104  CA         7.9410    6.1270   21.7590 C.3    99  TYR99       0.1639
    105  C          7.3990    7.4610   22.2370 C.2    99  TYR99       0.2290
    106  O          6.9190    8.2490   21.4340 O.2    99  TYR99      -0.2864
    107  CB         8.6570    6.3180   20.4270 C.3    99  TYR99       0.0560
    108  CG         9.9730    7.0450   20.4880 C.ar   99  TYR99      -0.0198
    109  CD1       10.6080    7.4240   19.3170 C.ar   99  TYR99      -0.0009
    110  CD2       10.5960    7.3480   21.7010 C.ar   99  TYR99      -0.0009
    111  CE1       11.8270    8.0680   19.3300 C.ar   99  TYR99       0.0417
    112  CE2       11.8260    8.0050   21.7290 C.ar   99  TYR99       0.0417
    113  CZ        12.4340    8.3640   20.5360 C.ar   99  TYR99       0.1957
    114  OH        13.6500    9.0150   20.5440 O.3    99  TYR99      -0.2866
    115  N          3.8170    7.3770   19.8300 N.3   107  GLY107     -0.1210
    116  CA         3.1560    6.3730   19.0070 C.3   107  GLY107      0.1956
    117  C          4.1230    5.2900   18.6510 C.2   107  GLY107      0.2612
    118  O          5.2520    5.2900   19.1340 O.2   107  GLY107     -0.2717
    119  N          3.6890    4.3840   17.7800 N.am  108  ILE108     -0.1965
    120  CA         4.4990    3.2590   17.3690 C.3   108  ILE108      0.1727
    121  C          5.2200    3.6360   16.0600 C.2   108  ILE108      0.2616
    122  O          4.5860    3.9780   15.0710 O.2   108  ILE108     -0.2715
    123  CB         3.6180    1.9850   17.2130 C.3   108  ILE108      0.0290
    124  CG1        2.8410    1.6890   18.5160 C.3   108  ILE108      0.0022
    125  CG2        4.4790    0.7880   16.8650 C.3   108  ILE108      0.0023
    126  CD1        1.4330    1.1110   18.3000 C.3   108  ILE108      0.0001
    127  N          6.5350    3.5650   16.0730 N.am  109  TYR109     -0.1960
    128  CA         7.3910    4.0200   14.9810 C.3   109  TYR109      0.1771
    129  C          7.8560    2.8710   14.0930 C.2   109  TYR109      0.2620
    130  O          8.1970    1.8070   14.5900 O.2   109  TYR109     -0.2715
    131  CB         8.6360    4.7300   15.5360 C.3   109  TYR109      0.0574
    132  CG         8.3260    6.1480   15.9640 C.ar  109  TYR109     -0.0198
    133  CD1        8.8900    7.2450   15.3040 C.ar  109  TYR109     -0.0009
    134  CD2        7.4230    6.3990   17.0080 C.ar  109  TYR109     -0.0009
    135  CE1        8.5910    8.5150   15.6750 C.ar  109  TYR109      0.0417
    136  CE2        7.1060    7.6870   17.3710 C.ar  109  TYR109      0.0417
    137  CZ         7.6870    8.7360   16.7110 C.ar  109  TYR109      0.1957
    138  OH         7.3610   10.0180   17.0780 O.3   109  TYR109     -0.2866
    139  N          7.8880    3.1300   12.7820 N.am  110  PHE110     -0.1960
    140  CA         8.4000    2.2190   11.7920 C.3   110  PHE110      0.1771
    141  C          9.2900    2.9770   10.8510 C.2   110  PHE110      0.2619
    142  O          9.1510    4.2160   10.7070 O.2   110  PHE110     -0.2715
    143  CB         7.2650    1.6030   11.0070 C.3   110  PHE110      0.0574
    144  CG         6.3510    0.7690   11.8450 C.ar  110  PHE110     -0.0200
    145  CD1        6.6250   -0.5820   12.0570 C.ar  110  PHE110     -0.0042
    146  CD2        5.2400    1.3280   12.4520 C.ar  110  PHE110     -0.0042
    147  CE1        5.7870   -1.3730   12.8490 C.ar  110  PHE110     -0.0003
    148  CE2        4.3950    0.5440   13.2390 C.ar  110  PHE110     -0.0003
    149  CZ         4.6730   -0.8020   13.4400 C.ar  110  PHE110     -0.0000
    150  N         10.1780    2.2410   10.1800 N.am  111  ALA111     -0.1977
    151  CA        11.1040    2.8360    9.2230 C.3   111  ALA111      0.1597
    152  C         11.1190    2.1000    7.8760 C.2   111  ALA111      0.2287
    153  O         11.0250    0.8690    7.8420 O.2   111  ALA111     -0.2864
    154  CB        12.5170    2.8570    9.8250 C.3   111  ALA111      0.0319
    155  N         17.8440    2.3390    9.7780 N.3   116  LYS116     -0.1231
    156  CA        17.2520    3.2770   10.7640 C.3   116  LYS116      0.1693
    157  C         16.6720    2.4540   11.9170 C.2   116  LYS116      0.2592
    158  O         16.9520    2.7210   13.0700 O.2   116  LYS116     -0.2718
    159  CB        16.2140    4.1980   10.1060 C.3   116  LYS116      0.0285
    160  CG        15.2610    4.9890   10.9990 C.3   116  LYS116      0.0035
    161  CD        15.8880    5.8890   12.0660 C.3   116  LYS116      0.0206
    162  CE        16.7250    7.0150   11.5080 C.3   116  LYS116      0.1093
    163  NZ        17.3470    7.9280   12.5920 N.3   116  LYS116     -0.1314
    164  N         15.8840    1.4260   11.5870 N.am  117  SER117     -0.1952
    165  CA        15.3940    0.4820   12.5920 C.3   117  SER117      0.1924
    166  C         16.5400   -0.1850   13.3500 C.2   117  SER117      0.2314
    167  O         16.4850   -0.3180   14.5730 O.2   117  SER117     -0.2863
    168  CB        14.4920   -0.5750   11.9640 C.3   117  SER117      0.2116
    169  OG        13.2310   -0.0260   11.5910 O.3   117  SER117     -0.2180
    170  N         17.6330    1.2160   16.7100 N.3   120  TYR120     -0.1241
    171  CA        16.8320    1.0850   17.9440 C.3   120  TYR120      0.1605
    172  C         16.8270   -0.3260   18.5520 C.2   120  TYR120      0.2264
    173  O         16.1680   -0.5870   19.5880 O.2   120  TYR120     -0.2867
    174  CB        15.4030    1.5050   17.6540 C.3   120  TYR120      0.0534
    175  CG        15.3190    2.9700   17.3900 C.ar  120  TYR120     -0.0201
    176  CD1       15.0910    3.8790   18.4320 C.ar  120  TYR120     -0.0009
    177  CD2       15.5180    3.4610   16.1210 C.ar  120  TYR120     -0.0009
    178  CE1       15.0320    5.2420   18.1910 C.ar  120  TYR120      0.0417
    179  CE2       15.4740    4.8120   15.8680 C.ar  120  TYR120      0.0417
    180  CZ        15.2390    5.6950   16.9000 C.ar  120  TYR120      0.1957
    181  OH        15.1970    7.0260   16.6180 O.3   120  TYR120     -0.2866
    182  N         17.0730    3.2560   22.5570 N.3   124  ILE124     -0.1245
    183  CA        17.0210    4.5460   21.8740 C.3   124  ILE124      0.1561
    184  C         18.4570    4.9850   21.6370 C.2   124  ILE124      0.2260
    185  O         19.2890    4.8500   22.5010 O.2   124  ILE124     -0.2867
    186  CB        16.3680    5.6710   22.7330 C.3   124  ILE124      0.0252
    187  CG1       15.0010    5.2770   23.3220 C.3   124  ILE124      0.0019
    188  CG2       16.2780    6.9410   21.9060 C.3   124  ILE124      0.0019
    189  CD1       13.8510    5.4800   22.4250 C.3   124  ILE124      0.0001
    190  N          9.8430    7.5910    7.7650 N.3   185  GLU185     -0.1245
    191  CA         9.4500    6.9150    8.9900 C.3   185  GLU185      0.1567
    192  C          7.9700    7.1470    9.1500 C.2   185  GLU185      0.2260
    193  O          7.4530    8.1200    8.6480 O.2   185  GLU185     -0.2867
    194  CB        10.1330    7.5160   10.2120 C.3   185  GLU185      0.0388
    195  CG        11.6330    7.3840   10.2750 C.3   185  GLU185      0.1160
    196  CD        12.1940    7.9830   11.5630 C.2   185  GLU185      0.3649
    197  OE1       13.4160    8.1120   11.6710 O.co2 185  GLU185     -0.2457
    198  OE2       11.4040    8.3360   12.4700 O.co2 185  GLU185     -0.2457
@<TRIPOS>BOND
     1    10    11   ar
     2    10     8   ar
     3    11     9   ar
     4     8     6   ar
     5     9     7   ar
     6   190   191    1
     7   153   152    2
     8   152   151    1
     9     7     6   ar
    10     6     5    1
    11     1     2    1
    12   193   192    2
    13   191   192    1
    14   191   194    1
    15   151   154    1
    16   151   150    1
    17     5     2    1
    18     2     3    1
    19   155   156    1
    20   159   156    1
    21   159   160    1
    22   150   141   am
    23   194   195    1
    24   195   196    1
    25   142   141    2
    26   156   157    1
    27   141   140    1
    28   160   161    1
    29   143   140    1
    30   143   144    1
    31     3     4    2
    32     3    12   am
    33   162   161    1
    34   162   163    1
    35   196   197   ar
    36   196   198   ar
    37   164   157   am
    38   164   165    1
    39   169   168    1
    40   140   139    1
    41   144   145   ar
    42   144   146   ar
    43   157   158    2
    44   168   165    1
    45   145   147   ar
    46    12    13    1
    47   146   148   ar
    48   165   166    1
    49   139   129   am
    50   147   149   ar
    51   148   149   ar
    52   166   167    2
    53    13    16    1
    54    13    14    1
    55    16    17    1
    56   129   130    2
    57   129   128    1
    58    14    15    2
    59    14    22   am
    60    22    23    1
    61   128   131    1
    62   128   127    1
    63   122   121    2
    64   133   135   ar
    65   133   132   ar
    66    78    79   ar
    67    78    76   ar
    68    17    18   ar
    69    17    19   ar
    70    79    77   ar
    71   131   132    1
    72   135   137   ar
    73    18    20   ar
    74    23    24    1
    75   179   177   ar
    76   179   180   ar
    77   132   134   ar
    78   121   127   am
    79   121   120    1
    80   177   175   ar
    81    76    74   ar
    82    19    21   ar
    83    77    75   ar
    84   181   180    1
    85   170   171    1
    86   137   138    1
    87   137   136   ar
    88   125   123    1
    89   180   178   ar
    90   134   136   ar
    91    20    21   ar
    92   123   120    1
    93   123   124    1
    94    74    75   ar
    95    74    73    1
    96    24    25    2
    97    24    26   am
    98   120   119    1
    99   175   174    1
   100   175   176   ar
   101   174   171    1
   102   119   117   am
   103   171   172    1
   104    54    52    1
   105    73    70    1
   106   178   176   ar
   107    26    27    1
   108   126   124    1
   109   172   173    2
   110   117   116    1
   111   117   118    2
   112   116   115    1
   113    69    70    1
   114    69    67   am
   115    55    53    1
   116    51    50    2
   117   109   111   ar
   118   109   108   ar
   119   111   113   ar
   120    52    53    1
   121    52    49    1
   122    70    71    1
   123    66    67    1
   124    66    65    1
   125    50    49    1
   126    27    30    1
   127    27    28    1
   128    30    31    1
   129    67    68    2
   130    29    28    2
   131    72    71    2
   132    49    48    1
   133   107   108    1
   134   107   104    1
   135    71    80   am
   136   108   110   ar
   137    65    58   am
   138   113   114    1
   139   113   112   ar
   140   106   105    2
   141    48    45   am
   142    80    81    1
   143    58    59    2
   144    58    57    1
   145   103   104    1
   146   103   100   am
   147   184   183    1
   148   184   185    2
   149   110   112   ar
   150   104   105    1
   151   183   182    1
   152   183   186    1
   153   188   186    1
   154   102    99    1
   155    34    35    2
   156    34    33    1
   157    56    57    1
   158   189   187    1
   159    99   100    1
   160    99    98    1
   161    45    46    2
   162    45    44    1
   163    82    81    1
   164    82    83    2
   165    81    84    1
   166    57    60    1
   167   100   101    2
   168   186   187    1
   169    32    33    1
   170    43    44    1
   171    33    36    1
   172    91    90    2
   173    44    47    1
   174    98    90   am
   175    60    61    1
   176    84    85    1
   177    36    37    1
   178    90    89    1
   179    39    37   ar
   180    39    41   ar
   181    86    85   ar
   182    85    87   ar
   183    37    38   ar
   184    61    62    1
   185    88    89    1
   186    89    92    1
   187    92    93    1
   188    62    63    1
   189    41    42   ar
   190    38    40   ar
   191    93    95   ar
   192    93    94   ar
   193    42    40   ar
   194    95    97   ar
   195    63    64    1
   196    94    96   ar
   197    97    96   ar
