@<TRIPOS>MOLECULE
tmp/3ua3A00.pdb
 203 195 0 0 0
SMALL
GASTEIGER

@<TRIPOS>ATOM
      1  N         24.3770   21.7550   32.6740 N.3   292  PRO292     -0.2102
      2  CA        23.9720   23.1040   32.2700 C.3   292  PRO292      0.1504
      3  C         24.0370   24.0900   33.4280 C.2   292  PRO292      0.2575
      4  O         24.3610   25.2560   33.2060 O.2   292  PRO292     -0.2718
      5  CB        22.5220   22.9120   31.8200 C.3   292  PRO292      0.0282
      6  CG        22.4390   21.4830   31.4190 C.3   292  PRO292      0.0208
      7  CD        23.3350   20.7560   32.3800 C.3   292  PRO292      0.0893
      8  N         23.7540   23.6200   34.6410 N.am  293  LEU293     -0.1980
      9  CA        23.6940   24.4890   35.8160 C.3   293  LEU293      0.1596
     10  C         25.0320   25.1310   36.1770 C.2   293  LEU293      0.2287
     11  O         25.0830   26.3160   36.5140 O.2   293  LEU293     -0.2864
     12  CB        23.1480   23.7320   37.0270 C.3   293  LEU293      0.0297
     13  CG        23.1340   24.5500   38.3200 C.3   293  LEU293      0.0022
     14  CD1       22.3820   25.8560   38.1040 C.3   293  LEU293      0.0001
     15  CD2       22.5300   23.7530   39.4680 C.3   293  LEU293      0.0001
     16  N         26.3990   26.2100   28.4020 N.3   297  LEU297     -0.1245
     17  CA        26.3130   25.4680   27.1490 C.3   297  LEU297      0.1561
     18  C         26.6260   26.3530   25.9440 C.2   297  LEU297      0.2260
     19  O         26.0680   27.4410   25.7970 O.2   297  LEU297     -0.2867
     20  CB        24.9280   24.8290   26.9960 C.3   297  LEU297      0.0270
     21  CG        24.5140   23.8340   28.0840 C.3   297  LEU297      0.0019
     22  CD1       23.1580   23.2310   27.7710 C.3   297  LEU297      0.0001
     23  CD2       25.5590   22.7400   28.2490 C.3   297  LEU297      0.0001
     24  N         23.1400   23.7750   21.9940 N.3   302  TYR302     -0.1241
     25  CA        21.7910   24.3110   21.8760 C.3   302  TYR302      0.1605
     26  C         21.1590   24.0140   20.5120 C.2   302  TYR302      0.2264
     27  O         20.0190   23.5550   20.4270 O.2   302  TYR302     -0.2867
     28  CB        21.8210   25.8200   22.1080 C.3   302  TYR302      0.0534
     29  CG        21.9780   26.2540   23.5520 C.ar  302  TYR302     -0.0201
     30  CD1       21.4450   25.5040   24.5930 C.ar  302  TYR302     -0.0009
     31  CD2       22.6420   27.4310   23.8700 C.ar  302  TYR302     -0.0009
     32  CE1       21.5760   25.9130   25.9120 C.ar  302  TYR302      0.0417
     33  CE2       22.7760   27.8460   25.1810 C.ar  302  TYR302      0.0417
     34  CZ        22.2420   27.0850   26.1990 C.ar  302  TYR302      0.1957
     35  OH        22.3830   27.5030   27.5050 O.3   302  TYR302     -0.2866
     36  N         20.3400   20.4800   20.2200 N.3   305  PHE305     -0.1241
     37  CA        19.1050   20.3500   20.9840 C.3   305  PHE305      0.1605
     38  C         17.9130   20.6290   20.0820 C.2   305  PHE305      0.2264
     39  O         16.9590   19.8470   20.0310 O.2   305  PHE305     -0.2867
     40  CB        19.0770   21.3460   22.1420 C.3   305  PHE305      0.0534
     41  CG        19.7490   20.8590   23.3900 C.ar  305  PHE305     -0.0203
     42  CD1       20.0290   21.7380   24.4220 C.ar  305  PHE305     -0.0042
     43  CD2       20.0930   19.5270   23.5380 C.ar  305  PHE305     -0.0042
     44  CE1       20.6420   21.3010   25.5740 C.ar  305  PHE305     -0.0003
     45  CE2       20.7070   19.0810   24.6930 C.ar  305  PHE305     -0.0003
     46  CZ        20.9810   19.9700   25.7110 C.ar  305  PHE305     -0.0000
     47  N         10.8000   16.8430   20.7060 N.3   311  LYS311     -0.1231
     48  CA        10.7750   17.2840   22.0940 C.3   311  LYS311      0.1693
     49  C          9.9430   18.5590   22.2030 C.2   311  LYS311      0.2592
     50  O          9.0540   18.6780   23.0540 O.2   311  LYS311     -0.2718
     51  CB        12.2090   17.5090   22.5840 C.3   311  LYS311      0.0285
     52  CG        12.3600   18.3760   23.8250 C.3   311  LYS311      0.0035
     53  CD        13.8440   18.5370   24.1950 C.3   311  LYS311      0.0206
     54  CE        14.6440   19.2230   23.0820 C.3   311  LYS311      0.1093
     55  NZ        16.0840   18.8250   23.0640 N.3   311  LYS311     -0.1314
     56  N         10.2140   19.4980   21.3050 N.am  312  TYR312     -0.1976
     57  CA         9.5350   20.7820   21.3140 C.3   312  TYR312      0.1639
     58  C          8.0580   20.6520   20.9570 C.2   312  TYR312      0.2290
     59  O          7.2150   21.2930   21.5760 O.2   312  TYR312     -0.2864
     60  CB        10.2400   21.7630   20.3770 C.3   312  TYR312      0.0560
     61  CG        11.6920   21.9990   20.7360 C.ar  312  TYR312     -0.0198
     62  CD1       12.0420   22.6420   21.9190 C.ar  312  TYR312     -0.0009
     63  CD2       12.7110   21.5850   19.8910 C.ar  312  TYR312     -0.0009
     64  CE1       13.3680   22.8590   22.2490 C.ar  312  TYR312      0.0417
     65  CE2       14.0390   21.8000   20.2120 C.ar  312  TYR312      0.0417
     66  CZ        14.3620   22.4370   21.3900 C.ar  312  TYR312      0.1957
     67  OH        15.6850   22.6490   21.7050 O.3   312  TYR312     -0.2866
     68  N         11.6850   28.3640   32.3010 N.3   339  LEU339     -0.1231
     69  CA        12.8130   28.3210   33.2280 C.3   339  LEU339      0.1693
     70  C         14.0770   27.6850   32.6210 C.2   339  LEU339      0.2593
     71  O         14.2430   26.4560   32.6080 O.2   339  LEU339     -0.2718
     72  CB        12.3990   27.6300   34.5300 C.3   339  LEU339      0.0284
     73  CG        11.2980   28.3500   35.3110 C.3   339  LEU339      0.0019
     74  CD1       10.9410   27.5810   36.5750 C.3   339  LEU339      0.0001
     75  CD2       11.7120   29.7790   35.6420 C.3   339  LEU339      0.0001
     76  N         14.9760   28.5420   32.1430 N.am  340  GLY340     -0.1942
     77  CA        16.1270   28.0950   31.3840 C.3   340  GLY340      0.2014
     78  C         15.7500   27.9870   29.9210 C.2   340  GLY340      0.2639
     79  O         15.4740   26.8920   29.4120 O.2   340  GLY340     -0.2714
     80  N         15.7390   29.1360   29.2490 N.am  341  GLY341     -0.1939
     81  CA        15.2420   29.2450   27.8900 C.3   341  GLY341      0.2014
     82  C         16.1930   28.8000   26.7970 C.2   341  GLY341      0.2639
     83  O         15.7570   28.4540   25.6990 O.2   341  GLY341     -0.2714
     84  N         17.4890   28.8080   27.0910 N.am  342  GLY342     -0.1939
     85  CA        18.4890   28.4720   26.0940 C.3   342  GLY342      0.2014
     86  C         18.5260   29.5240   25.0030 C.2   342  GLY342      0.2638
     87  O         18.7150   30.7010   25.2900 O.2   342  GLY342     -0.2714
     88  N         18.3610   29.0950   23.7530 N.am  343  ARG343     -0.1977
     89  CA        18.1590   30.0130   22.6310 C.3   343  ARG343      0.1597
     90  C         16.6650   30.2780   22.3920 C.2   343  ARG343      0.2287
     91  O         16.2930   31.0000   21.4670 O.2   343  ARG343     -0.2864
     92  CB        18.7810   29.4600   21.3500 C.3   343  ARG343      0.0334
     93  CG        20.2850   29.3010   21.3610 C.3   343  ARG343      0.0492
     94  CD        20.6750   28.2750   20.3130 C.3   343  ARG343      0.2205
     95  NE        21.5480   28.8040   19.2730 N.pl3 343  ARG343     -0.0865
     96  CZ        21.6180   28.3100   18.0400 C.cat 343  ARG343      0.5346
     97  NH1       22.4460   28.8470   17.1530 N.pl3 343  ARG343      0.1354
     98  NH2       20.8550   27.2830   17.6890 N.pl3 343  ARG343      0.1354
     99  N         13.7700   27.9460   21.9090 N.3   345  PRO345     -0.2102
    100  CA        12.8560   27.2190   21.0190 C.3   345  PRO345      0.1504
    101  C         11.5120   26.9830   21.6970 C.2   345  PRO345      0.2575
    102  O         10.4660   26.9910   21.0400 O.2   345  PRO345     -0.2718
    103  CB        13.5660   25.8760   20.8070 C.3   345  PRO345      0.0282
    104  CG        14.9790   26.1150   21.1930 C.3   345  PRO345      0.0208
    105  CD        14.9220   27.1210   22.2960 C.3   345  PRO345      0.0893
    106  N         11.5580   26.7640   23.0080 N.am  346  ILE346     -0.1980
    107  CA        10.3590   26.5740   23.8150 C.3   346  ILE346      0.1595
    108  C          9.6270   27.9010   24.0180 C.2   346  ILE346      0.2287
    109  O          8.4490   27.9160   24.3740 O.2   346  ILE346     -0.2864
    110  CB        10.6930   25.9580   25.1940 C.3   346  ILE346      0.0276
    111  CG1       11.5030   24.6760   25.0330 C.3   346  ILE346      0.0022
    112  CG2        9.4310   25.6620   25.9820 C.3   346  ILE346      0.0022
    113  CD1       11.9090   24.0580   26.3570 C.3   346  ILE346      0.0001
    114  N         13.4070   33.0310   32.1310 N.3   375  VAL375     -0.1231
    115  CA        14.4740   33.1590   33.1160 C.3   375  VAL375      0.1692
    116  C         15.6860   32.3320   32.7080 C.2   375  VAL375      0.2592
    117  O         15.5530   31.1560   32.3690 O.2   375  VAL375     -0.2718
    118  CB        13.9990   32.7310   34.5130 C.3   375  VAL375      0.0266
    119  CG1       15.1440   32.8060   35.5080 C.3   375  VAL375      0.0020
    120  CG2       12.8330   33.6010   34.9610 C.3   375  VAL375      0.0020
    121  N         16.8670   32.9480   32.7500 N.am  376  GLU376     -0.1966
    122  CA        18.0790   32.2780   32.2730 C.3   376  GLU376      0.1733
    123  C         19.3490   32.7820   32.9690 C.2   376  GLU376      0.2616
    124  O         19.3970   33.9230   33.4280 O.2   376  GLU376     -0.2715
    125  CB        18.1980   32.4280   30.7510 C.3   376  GLU376      0.0429
    126  CG        19.5010   31.9000   30.1520 C.3   376  GLU376      0.1163
    127  CD        19.6130   30.3820   30.1990 C.2   376  GLU376      0.3649
    128  OE1       19.9190   29.8360   31.2810 O.co2 376  GLU376     -0.2457
    129  OE2       19.4010   29.7350   29.1490 O.co2 376  GLU376     -0.2457
    130  N         20.3710   31.9270   33.0410 N.am  377  LYS377     -0.1963
    131  CA        21.6130   32.2360   33.7600 C.3   377  LYS377      0.1728
    132  C         22.8380   32.4320   32.8590 C.2   377  LYS377      0.2616
    133  O         23.6010   33.3780   33.0470 O.2   377  LYS377     -0.2715
    134  CB        21.9130   31.1510   34.7950 C.3   377  LYS377      0.0311
    135  CG        22.1490   29.7840   34.1880 C.3   377  LYS377      0.0038
    136  CD        23.1200   28.9820   35.0290 C.3   377  LYS377      0.0206
    137  CE        23.6400   27.7900   34.2490 C.3   377  LYS377      0.1093
    138  NZ        24.4430   28.1830   33.0540 N.3   377  LYS377     -0.1314
    139  N         23.0340   31.5320   31.9000 N.am  378  ASN378     -0.1972
    140  CA        24.1020   31.6910   30.9200 C.3   378  ASN378      0.1688
    141  C         23.9820   33.0430   30.2240 C.2   378  ASN378      0.2292
    142  O         23.0340   33.2800   29.4800 O.2   378  ASN378     -0.2864
    143  CB        24.0540   30.5570   29.8880 C.3   378  ASN378      0.1181
    144  CG        24.9930   30.7920   28.7020 C.2   378  ASN378      0.2629
    145  OD1       25.3760   31.9260   28.4030 O.2   378  ASN378     -0.2716
    146  ND2       25.3530   29.7120   28.0140 N.am  378  ASN378     -0.0877
    147  N         19.2000   35.5070   35.4590 N.3   401  SER401     -0.1202
    148  CA        19.3600   35.0870   36.8440 C.3   401  SER401      0.2020
    149  C         19.3340   33.5630   36.9360 C.2   401  SER401      0.2618
    150  O         18.9460   32.8780   35.9890 O.2   401  SER401     -0.2717
    151  CB        18.2470   35.6850   37.7150 C.3   401  SER401      0.2103
    152  OG        18.2360   35.1170   39.0160 O.3   401  SER401     -0.2182
    153  N         19.7790   33.0350   38.0670 N.am  402  ASP402     -0.1973
    154  CA        19.5150   31.6440   38.3800 C.3   402  ASP402      0.1709
    155  C         18.1360   31.5880   39.0120 C.2   402  ASP402      0.2293
    156  O         17.8930   32.2220   40.0400 O.2   402  ASP402     -0.2864
    157  CB        20.5660   31.0910   39.3380 C.3   402  ASP402      0.1436
    158  CG        20.2380   29.6880   39.8120 C.2   402  ASP402      0.3671
    159  OD1       19.3750   29.0260   39.1950 O.co2 402  ASP402     -0.2456
    160  OD2       20.8500   29.2450   40.8040 O.co2 402  ASP402     -0.2456
    161  N         16.6010   29.9050   40.9200 N.3   403  ARG403     -0.1245
    162  CA        16.5740   29.6760   42.3580 C.3   403  ARG403      0.1563
    163  C         16.7390   30.9800   43.1380 C.2   403  ARG403      0.2260
    164  O         16.9230   30.9690   44.3550 O.2   403  ARG403     -0.2867
    165  CB        17.6650   28.6740   42.7490 C.3   403  ARG403      0.0307
    166  CG        17.5410   27.3250   42.0510 C.3   403  ARG403      0.0489
    167  CD        18.6970   26.3960   42.3980 C.3   403  ARG403      0.2205
    168  NE        19.9530   26.8090   41.7770 N.pl3 403  ARG403     -0.0865
    169  CZ        21.1230   26.8380   42.4090 C.cat 403  ARG403      0.5346
    170  NH1       21.1950   26.4810   43.6840 N.pl3 403  ARG403      0.1354
    171  NH2       22.2220   27.2240   41.7700 N.pl3 403  ARG403      0.1354
    172  N         12.9390   22.5050   31.2030 N.3   423  GLU423     -0.1231
    173  CA        13.4370   21.3100   30.5390 C.3   423  GLU423      0.1699
    174  C         14.8730   21.0700   30.9910 C.2   423  GLU423      0.2592
    175  O         15.8210   21.3050   30.2460 O.2   423  GLU423     -0.2718
    176  CB        13.3590   21.4750   29.0180 C.3   423  GLU423      0.0402
    177  CG        13.3960   20.1680   28.2310 C.3   423  GLU423      0.1161
    178  CD        14.8020   19.7240   27.8810 C.2   423  GLU423      0.3649
    179  OE1       15.2260   19.9630   26.7300 O.co2 423  GLU423     -0.2457
    180  OE2       15.4760   19.1290   28.7500 O.co2 423  GLU423     -0.2457
    181  N         15.0220   20.6170   32.2320 N.am  424  LEU424     -0.1980
    182  CA        16.3360   20.3940   32.8250 C.3   424  LEU424      0.1596
    183  C         16.5490   18.9120   33.1040 C.2   424  LEU424      0.2287
    184  O         16.6750   18.5050   34.2590 O.2   424  LEU424     -0.2864
    185  CB        16.4480   21.1620   34.1390 C.3   424  LEU424      0.0297
    186  CG        15.7300   22.5040   34.2080 C.3   424  LEU424      0.0022
    187  CD1       15.7190   23.0090   35.6400 C.3   424  LEU424      0.0001
    188  CD2       16.3660   23.5140   33.2680 C.3   424  LEU424      0.0001
    189  N         20.7560   16.0750   36.0410 N.3   432  GLU432     -0.1245
    190  CA        21.1520   17.4490   35.7150 C.3   432  GLU432      0.1567
    191  C         20.5910   18.4570   36.7160 C.2   432  GLU432      0.2260
    192  O         20.2450   19.5770   36.3410 O.2   432  GLU432     -0.2867
    193  CB        20.6960   17.8290   34.3060 C.3   432  GLU432      0.0388
    194  CG        21.4450   17.1340   33.1890 C.3   432  GLU432      0.1160
    195  CD        21.0740   17.6790   31.8220 C.2   432  GLU432      0.3649
    196  OE1       20.2490   18.6220   31.7500 O.co2 432  GLU432     -0.2457
    197  OE2       21.6070   17.1620   30.8200 O.co2 432  GLU432     -0.2457
    198  N         16.8870   22.8960   41.0710 N.3   437  CYS437     -0.1235
    199  CA        16.5770   24.0650   40.2650 C.3   437  CYS437      0.1677
    200  C         15.1270   24.4920   40.4540 C.2   437  CYS437      0.2270
    201  O         14.8600   25.5990   40.9260 O.2   437  CYS437     -0.2867
    202  CB        16.8580   23.7860   38.7880 C.3   437  CYS437      0.0956
    203  SG        18.6100   23.8820   38.3310 S.3   437  CYS437     -0.0801
@<TRIPOS>BOND
     1    97    96    1
     2    98    96    1
     3    96    95    2
     4    95    94    1
     5    63    65   ar
     6    63    61   ar
     7    39    38    2
     8    38    37    1
     9    65    66   ar
    10    36    37    1
    11    94    93    1
    12    60    61    1
    13    60    57    1
    14    27    26    2
    15    26    25    1
    16    47    48    1
    17    61    62   ar
    18   103   100    1
    19   103   104    1
    20    58    57    1
    21    58    59    2
    22    37    40    1
    23   100   101    1
    24   100    99    1
    25   102   101    2
    26   104   105    1
    27    56    57    1
    28    56    49   am
    29    92    93    1
    30    92    89    1
    31    66    67    1
    32    66    64   ar
    33    91    90    2
    34   101   106   am
    35    25    24    1
    36    25    28    1
    37    99   105    1
    38    62    64   ar
    39    48    49    1
    40    48    51    1
    41    28    29    1
    42    40    41    1
    43    49    50    2
    44    90    89    1
    45    51    52    1
    46    89    88    1
    47   106   107    1
    48    55    54    1
    49    54    53    1
    50    41    43   ar
    51    41    42   ar
    52    43    45   ar
    53    29    31   ar
    54    29    30   ar
    55    88    86   am
    56   107   108    1
    57   107   110    1
    58    52    53    1
    59    31    33   ar
    60   108   109    2
    61    42    44   ar
    62    30    32   ar
    63    45    46   ar
    64    86    87    2
    65    86    85    1
    66   111   110    1
    67   111   113    1
    68    33    34   ar
    69   110   112    1
    70    44    46   ar
    71    83    82    2
    72    19    18    2
    73    32    34   ar
    74    18    17    1
    75    85    84    1
    76    34    35    1
    77   179   178   ar
    78    82    84   am
    79    82    81    1
    80    20    17    1
    81    20    21    1
    82    17    16    1
    83    22    21    1
    84   178   177    1
    85   178   180   ar
    86    81    80    1
    87   146   144   am
    88    21    23    1
    89   177   176    1
    90   145   144    2
    91   144   143    1
    92   176   173    1
    93   129   127   ar
    94    80    78   am
    95    79    78    2
    96   142   141    2
    97   143   140    1
    98    78    77    1
    99   126   127    1
   100   126   125    1
   101   127   128   ar
   102   141   140    1
   103   175   174    2
   104   173   174    1
   105   173   172    1
   106   125   122    1
   107   197   195   ar
   108   140   139    1
   109   174   181   am
   110    77    76    1
   111     6     5    1
   112     6     7    1
   113   196   195   ar
   114     5     2    1
   115   195   194    1
   116   139   132   am
   117   114   115    1
   118    76    70   am
   119   181   182    1
   120     2     1    1
   121     2     3    1
   122   122   121    1
   123   122   123    1
   124    68    69    1
   125   117   116    2
   126     7     1    1
   127    71    70    2
   128    70    69    1
   129   116   121   am
   130   116   115    1
   131   182   183    1
   132   182   185    1
   133   132   133    2
   134   132   131    1
   135   123   130   am
   136   123   124    2
   137   130   131    1
   138   138   137    1
   139   183   184    2
   140   115   118    1
   141   194   193    1
   142     4     3    2
   143    69    72    1
   144   188   186    1
   145     3     8   am
   146   131   134    1
   147   185   186    1
   148   135   134    1
   149   135   136    1
   150   186   187    1
   151   137   136    1
   152   193   190    1
   153   118   120    1
   154   118   119    1
   155    72    73    1
   156     8     9    1
   157    73    75    1
   158    73    74    1
   159   147   148    1
   160   190   189    1
   161   190   191    1
   162     9    10    1
   163     9    12    1
   164   150   149    2
   165    10    11    2
   166   192   191    2
   167   148   149    1
   168   148   151    1
   169   149   153   am
   170    12    13    1
   171   151   152    1
   172   153   154    1
   173    14    13    1
   174    13    15    1
   175   203   202    1
   176   154   155    1
   177   154   157    1
   178   202   199    1
   179   155   156    2
   180   159   158   ar
   181   157   158    1
   182   158   160   ar
   183   199   200    1
   184   199   198    1
   185   200   201    2
   186   161   162    1
   187   171   169    1
   188   168   167    1
   189   168   169    2
   190   166   167    1
   191   166   165    1
   192   162   165    1
   193   162   163    1
   194   169   170    1
   195   163   164    2
