@<TRIPOS>MOLECULE
tmp/3ua5A01.pdb
 157 149 0 0 0
SMALL
GASTEIGER

@<TRIPOS>ATOM
      1  N         10.0170   10.1520   35.9650 N.3    74  ILE74      -0.1245
      2  CA        11.4010    9.9640   35.6960 C.3    74  ILE74       0.1561
      3  C         11.6120   10.1130   34.2480 C.2    74  ILE74       0.2260
      4  O         11.6670    9.1780   33.5170 O.2    74  ILE74      -0.2867
      5  CB        11.8320    8.6100   36.1390 C.3    74  ILE74       0.0252
      6  CG1       11.8360    8.5730   37.6540 C.3    74  ILE74       0.0019
      7  CG2       13.1970    8.3380   35.6570 C.3    74  ILE74       0.0019
      8  CD1       11.5920    7.2610   38.2020 C.3    74  ILE74       0.0001
      9  N         12.9710    7.9660   31.1690 N.3    77  VAL77      -0.1245
     10  CA        12.3360    6.7060   30.7790 C.3    77  VAL77       0.1561
     11  C         10.8020    6.6790   30.7560 C.2    77  VAL77       0.2260
     12  O         10.2640    5.7450   30.2470 O.2    77  VAL77      -0.2867
     13  CB        12.8350    5.4920   31.6170 C.3    77  VAL77       0.0252
     14  CG1       14.3110    5.4370   31.6730 C.3    77  VAL77       0.0019
     15  CG2       12.3180    5.5510   33.0130 C.3    77  VAL77       0.0019
     16  N          7.1970   -0.5420   39.4980 N.3    87  ILE87      -0.1231
     17  CA         8.0130    0.5600   39.9890 C.3    87  ILE87       0.1692
     18  C          7.5220    1.9030   39.4430 C.2    87  ILE87       0.2592
     19  O          7.6730    2.9440   40.1180 O.2    87  ILE87      -0.2718
     20  CB         9.5360    0.3050   39.7450 C.3    87  ILE87       0.0266
     21  CG1       10.3930    1.3950   40.3830 C.3    87  ILE87       0.0019
     22  CG2        9.8330    0.1420   38.2940 C.3    87  ILE87       0.0020
     23  CD1       11.7390    0.8780   40.8850 C.3    87  ILE87       0.0001
     24  N          6.9060    1.8680   38.2770 N.am   88  PHE88      -0.1976
     25  CA         6.4670    3.0620   37.5870 C.3    88  PHE88       0.1639
     26  C          4.9910    3.3920   37.7000 C.2    88  PHE88       0.2290
     27  O          4.6040    4.5140   37.5190 O.2    88  PHE88      -0.2864
     28  CB         6.8450    2.9700   36.1220 C.3    88  PHE88       0.0560
     29  CG         8.2930    2.8130   35.8900 C.ar   88  PHE88      -0.0200
     30  CD1        9.1730    3.6850   36.4110 C.ar   88  PHE88      -0.0042
     31  CD2        8.7750    1.7910   35.1460 C.ar   88  PHE88      -0.0042
     32  CE1       10.4750    3.5170   36.2050 C.ar   88  PHE88      -0.0003
     33  CE2       10.0700    1.6530   34.9500 C.ar   88  PHE88      -0.0003
     34  CZ        10.9160    2.5050   35.4660 C.ar   88  PHE88      -0.0000
     35  N         21.4740    2.3060   31.8840 N.3   179  PHE179     -0.1241
     36  CA        21.6070    2.8570   33.2100 C.3   179  PHE179      0.1605
     37  C         22.5870    4.0140   33.2250 C.2   179  PHE179      0.2264
     38  O         22.2020    5.1220   33.5400 O.2   179  PHE179     -0.2867
     39  CB        21.9610    1.7600   34.2110 C.3   179  PHE179      0.0534
     40  CG        20.7510    1.0350   34.7760 C.ar  179  PHE179     -0.0203
     41  CD1       20.5270    0.9850   36.1410 C.ar  179  PHE179     -0.0042
     42  CD2       19.8200    0.4250   33.9490 C.ar  179  PHE179     -0.0042
     43  CE1       19.3930    0.3100   36.6580 C.ar  179  PHE179     -0.0003
     44  CE2       18.7080   -0.2330   34.4700 C.ar  179  PHE179     -0.0003
     45  CZ        18.4990   -0.2900   35.8050 C.ar  179  PHE179     -0.0000
     46  N         21.2730    7.1900   31.8920 N.3   182  ILE182     -0.1231
     47  CA        20.4410    7.9990   32.8010 C.3   182  ILE182      0.1692
     48  C         21.2520    8.5850   33.9500 C.2   182  ILE182      0.2592
     49  O         20.9400    9.6360   34.4890 O.2   182  ILE182     -0.2718
     50  CB        19.2600    7.2400   33.3690 C.3   182  ILE182      0.0266
     51  CG1       18.5510    6.4860   32.2610 C.3   182  ILE182      0.0019
     52  CG2       18.3010    8.2300   33.9200 C.3   182  ILE182      0.0020
     53  CD1       17.8490    5.2760   32.7040 C.3   182  ILE182      0.0001
     54  N         22.3160    7.8930   34.3050 N.am  183  SER183     -0.1952
     55  CA        23.2270    8.3720   35.3220 C.3   183  SER183      0.1924
     56  C         24.0290    9.5880   34.8680 C.2   183  SER183      0.2314
     57  O         24.6430   10.2510   35.6870 O.2   183  SER183     -0.2863
     58  CB        24.2060    7.2720   35.6870 C.3   183  SER183      0.2116
     59  OG        24.7750    7.1910   37.0280 O.3   183  SER183     -0.2180
     60  N         14.2790   -4.0560   34.9910 N.3   270  PHE270     -0.1227
     61  CA        14.8060   -2.7440   35.3380 C.3   270  PHE270      0.1736
     62  C         14.9680   -2.5940   36.8480 C.2   270  PHE270      0.2595
     63  O         16.0680   -2.3260   37.3330 O.2   270  PHE270     -0.2718
     64  CB        13.8950   -1.6410   34.7960 C.3   270  PHE270      0.0547
     65  CG        14.6270   -0.3900   34.4020 C.ar  270  PHE270     -0.0202
     66  CD1       15.0610   -0.2060   33.1000 C.ar  270  PHE270     -0.0042
     67  CD2       14.8790    0.6030   35.3340 C.ar  270  PHE270     -0.0042
     68  CE1       15.7340    0.9440   32.7350 C.ar  270  PHE270     -0.0003
     69  CE2       15.5520    1.7560   34.9750 C.ar  270  PHE270     -0.0003
     70  CZ        15.9800    1.9260   33.6740 C.ar  270  PHE270     -0.0000
     71  N         13.8770   -2.7640   37.5900 N.am  271  ALA271     -0.1980
     72  CA        13.9410   -2.6310   39.0180 C.3   271  ALA271      0.1597
     73  C         15.0860   -3.3600   39.6320 C.2   271  ALA271      0.2287
     74  O         15.7840   -2.8020   40.4250 O.2   271  ALA271     -0.2864
     75  CB        12.6640   -3.0310   39.6380 C.3   271  ALA271      0.0319
     76  N         17.7770   -4.4800   38.5010 N.3   273  THR273     -0.1203
     77  CA        19.0450   -4.3360   37.8640 C.3   273  THR273      0.1994
     78  C         19.9030   -3.4050   38.6280 C.2   273  THR273      0.2618
     79  O         19.4530   -2.3930   39.1150 O.2   273  THR273     -0.2717
     80  CB        18.8550   -3.7020   36.5370 C.3   273  THR273      0.1784
     81  OG1       17.7760   -4.3510   35.8770 O.3   273  THR273     -0.2211
     82  CG2       20.1020   -3.8160   35.7090 C.3   273  THR273      0.0376
     83  N         21.1690   -3.7320   38.7130 N.am  274  GLU274     -0.1965
     84  CA        22.0690   -2.7730   39.2520 C.3   274  GLU274      0.1733
     85  C         21.7630   -2.6180   40.6930 C.2   274  GLU274      0.2617
     86  O         21.8550   -1.5710   41.2370 O.2   274  GLU274     -0.2715
     87  CB        21.7820   -1.4700   38.5660 C.3   274  GLU274      0.0429
     88  CG        22.9960   -0.8880   38.0140 C.3   274  GLU274      0.1163
     89  CD        24.1150   -1.1930   38.9120 C.2   274  GLU274      0.3649
     90  OE1       23.8450   -1.2580   40.1270 O.co2 274  GLU274     -0.2457
     91  OE2       25.2390   -1.4040   38.4300 O.co2 274  GLU274     -0.2457
     92  N         21.3940   -3.7050   41.3060 N.am  275  THR275     -0.1951
     93  CA        20.7380   -3.6880   42.5560 C.3   275  THR275      0.1897
     94  C         21.6470   -4.4180   43.4660 C.2   275  THR275      0.2313
     95  O         22.5490   -3.8650   44.0010 O.2   275  THR275     -0.2863
     96  CB        19.4400   -4.4550   42.3780 C.3   275  THR275      0.1794
     97  OG1       18.3630   -3.5410   42.2370 O.3   275  THR275     -0.2208
     98  CG2       19.1760   -5.3220   43.5100 C.3   275  THR275      0.0378
     99  N         23.1420    2.1210   48.4450 N.3   335  LEU335     -0.1231
    100  CA        22.8480    1.9760   47.0340 C.3   335  LEU335      0.1693
    101  C         22.1550    3.1740   46.4290 C.2   335  LEU335      0.2591
    102  O         22.6100    3.7340   45.4460 O.2   335  LEU335     -0.2718
    103  CB        21.9320    0.7600   46.8860 C.3   335  LEU335      0.0284
    104  CG        22.1230   -0.1400   45.6710 C.3   335  LEU335      0.0019
    105  CD1       23.4220   -0.9300   45.9030 C.3   335  LEU335      0.0001
    106  CD2       20.8510   -1.0450   45.3940 C.3   335  LEU335      0.0001
    107  N         21.0280    3.5300   47.0290 N.am  336  LEU336     -0.1980
    108  CA        20.2020    4.6290   46.5820 C.3   336  LEU336      0.1596
    109  C         20.0530    5.6650   47.6850 C.2   336  LEU336      0.2287
    110  O         19.1010    5.6310   48.4440 O.2   336  LEU336     -0.2864
    111  CB        18.8220    4.0930   46.1950 C.3   336  LEU336      0.0297
    112  CG        18.8350    2.9850   45.1570 C.3   336  LEU336      0.0022
    113  CD1       17.4530    2.4390   44.9930 C.3   336  LEU336      0.0001
    114  CD2       19.3620    3.5800   43.8640 C.3   336  LEU336      0.0001
    115  N         16.4040    7.0450   47.6670 N.3   339  GLY339     -0.1210
    116  CA        15.2220    6.2680   47.3920 C.3   339  GLY339      0.1956
    117  C         14.8180    6.4130   45.9570 C.2   339  GLY339      0.2612
    118  O         15.6240    6.7400   45.1100 O.2   339  GLY339     -0.2717
    119  N         13.5290    6.1710   45.6840 N.am  340  VAL340     -0.1966
    120  CA        12.9420    6.4150   44.3720 C.3   340  VAL340      0.1712
    121  C         11.8470    7.4600   44.5420 C.2   340  VAL340      0.2458
    122  O         10.9940    7.3290   45.4200 O.2   340  VAL340     -0.2730
    123  CB        12.3380    5.1350   43.7720 C.3   340  VAL340      0.0289
    124  CG1       11.4860    5.4690   42.5570 C.3   340  VAL340      0.0023
    125  CG2       13.4390    4.1510   43.4040 C.3   340  VAL340      0.0023
    126  N         11.8870    8.5140   43.6840 N.am  341  PRO341     -0.2727
    127  CA        10.9820    9.6420   43.8960 C.3   341  PRO341      0.1402
    128  C          9.5740    9.2180   44.2540 C.2   341  PRO341      0.2269
    129  O          9.0490    8.2760   43.6590 O.2   341  PRO341     -0.2865
    130  CB        10.9580   10.2970   42.5380 C.3   341  PRO341      0.0296
    131  CG        12.3450   10.1290   42.0770 C.3   341  PRO341      0.0237
    132  CD        12.7350    8.7300   42.5020 C.3   341  PRO341      0.0939
    133  N         10.4080   -1.8550   48.7960 N.3   409  CYS409     -0.1235
    134  CA        11.0270   -2.6300   47.7250 C.3   409  CYS409      0.1677
    135  C         10.2940   -3.9410   47.4520 C.2   409  CYS409      0.2270
    136  O         10.0670   -4.7390   48.3610 O.2   409  CYS409     -0.2867
    137  CB        12.4970   -2.9100   48.0500 C.3   409  CYS409      0.0956
    138  SG        13.2630   -4.1750   47.0100 S.3   409  CYS409     -0.0801
    139  N         22.5010    9.2100   40.5410 N.3   450  VAL450     -0.1231
    140  CA        21.6420    8.8850   41.6660 C.3   450  VAL450      0.1692
    141  C         21.9920    7.6220   42.4010 C.2   450  VAL450      0.2592
    142  O         21.2290    7.1670   43.1920 O.2   450  VAL450     -0.2718
    143  CB        20.2520    8.6380   41.1900 C.3   450  VAL450      0.0266
    144  CG1       20.1420    8.9750   39.7480 C.3   450  VAL450      0.0020
    145  CG2       19.9290    7.2200   41.3980 C.3   450  VAL450      0.0020
    146  N         23.0530    6.9540   42.0550 N.am  451  GLY451     -0.1957
    147  CA        23.2940    5.7280   42.7490 C.3   451  GLY451      0.1869
    148  C         24.6170    5.9000   43.3780 C.2   451  GLY451      0.2309
    149  O         25.3890    6.7000   42.9250 O.2   451  GLY451     -0.2863
    150  N         28.0950    4.0020   43.5790 N.3   453  ILE453     -0.1245
    151  CA        28.7680    2.8780   42.9240 C.3   453  ILE453      0.1561
    152  C         30.2100    2.7310   43.4050 C.2   453  ILE453      0.2260
    153  O         30.9760    3.6720   43.4130 O.2   453  ILE453     -0.2867
    154  CB        28.6210    2.9890   41.3930 C.3   453  ILE453      0.0252
    155  CG1       27.2230    2.4820   41.0020 C.3   453  ILE453      0.0019
    156  CG2       29.6960    2.2200   40.6530 C.3   453  ILE453      0.0019
    157  CD1       26.4380    3.3900   40.0390 C.3   453  ILE453      0.0001
@<TRIPOS>BOND
     1    12    11    2
     2    11    10    1
     3    10     9    1
     4    10    13    1
     5    13    14    1
     6    13    15    1
     7    35    36    1
     8    46    47    1
     9    51    53    1
    10    51    50    1
    11    68    66   ar
    12    68    70   ar
    13    47    50    1
    14    47    48    1
    15    66    65   ar
    16    36    37    1
    17    36    39    1
    18    37    38    2
    19    50    52    1
    20     4     3    2
    21    70    69   ar
    22    42    44   ar
    23    42    40   ar
    24    48    54   am
    25    48    49    2
    26    39    40    1
    27     3     2    1
    28    54    55    1
    29    65    64    1
    30    65    67   ar
    31    44    45   ar
    32    40    41   ar
    33    64    61    1
    34    56    55    1
    35    56    57    2
    36    33    31   ar
    37    33    34   ar
    38    69    67   ar
    39    60    61    1
    40    31    29   ar
    41    55    58    1
    42    61    62    1
    43    34    32   ar
    44     7     5    1
    45    58    59    1
    46     2     1    1
    47     2     5    1
    48    82    80    1
    49    45    43   ar
    50    81    80    1
    51    29    28    1
    52    29    30   ar
    53    28    25    1
    54     5     6    1
    55    41    43   ar
    56    32    30   ar
    57    80    77    1
    58    62    63    2
    59    62    71   am
    60    27    26    2
    61    25    26    1
    62    25    24    1
    63    71    72    1
    64     6     8    1
    65    77    76    1
    66    77    78    1
    67    88    87    1
    68    88    89    1
    69    24    18   am
    70    22    20    1
    71    91    89   ar
    72    87    84    1
    73    78    83   am
    74    78    79    2
    75    83    84    1
    76    89    90   ar
    77    72    73    1
    78    72    75    1
    79    84    85    1
    80    18    17    1
    81    18    19    2
    82    16    17    1
    83    73    74    2
    84    20    17    1
    85    20    21    1
    86   144   143    1
    87   157   155    1
    88    21    23    1
    89   139   140    1
    90   156   154    1
    91    85    86    2
    92    85    92   am
    93   155   154    1
    94   143   145    1
    95   143   140    1
    96    92    93    1
    97   154   151    1
    98   140   141    1
    99   146   141   am
   100   146   147    1
   101   131   132    1
   102   131   130    1
   103    97    96    1
   104    96    93    1
   105    96    98    1
   106   141   142    2
   107   132   126    1
   108   130   127    1
   109    93    94    1
   110   124   123    1
   111   147   148    1
   112   151   152    1
   113   151   150    1
   114   149   148    2
   115   125   123    1
   116   152   153    2
   117    94    95    2
   118   129   128    2
   119   126   127    1
   120   126   121   am
   121   123   120    1
   122   114   112    1
   123   127   128    1
   124   120   121    1
   125   120   119    1
   126   121   122    2
   127   113   112    1
   128   118   117    2
   129   112   111    1
   130   106   104    1
   131   102   101    2
   132   104   105    1
   133   104   103    1
   134   119   117   am
   135   117   116    1
   136   111   108    1
   137   101   107   am
   138   101   100    1
   139   108   107    1
   140   108   109    1
   141   103   100    1
   142   138   137    1
   143   100    99    1
   144   116   115    1
   145   135   134    1
   146   135   136    2
   147   109   110    2
   148   134   137    1
   149   134   133    1
