@<TRIPOS>MOLECULE
tmp/3ua5A02.pdb
 203 188 0 0 0
SMALL
GASTEIGER

@<TRIPOS>ATOM
      1  N         19.5210   25.4830   41.6620 N.3    16  LEU16      -0.1245
      2  CA        20.5510   24.7450   40.9900 C.3    16  LEU16       0.1561
      3  C         21.9260   25.3320   41.0050 C.2    16  LEU16       0.2260
      4  O         22.9100   24.6030   40.8430 O.2    16  LEU16      -0.2867
      5  CB        20.1650   24.6380   39.5540 C.3    16  LEU16       0.0270
      6  CG        20.3790   23.2350   39.0450 C.3    16  LEU16       0.0019
      7  CD1       19.7880   22.2060   40.0150 C.3    16  LEU16       0.0001
      8  CD2       19.7200   23.1880   37.6880 C.3    16  LEU16       0.0001
      9  N         23.8700   24.4010   44.3890 N.3    19  MET19      -0.1245
     10  CA        24.2420   23.0260   44.7250 C.3    19  MET19       0.1570
     11  C         25.7570   22.9110   44.9080 C.2    19  MET19       0.2261
     12  O         26.4780   23.8820   44.7090 O.2    19  MET19      -0.2867
     13  CB        23.7770   22.0620   43.6410 C.3    19  MET19       0.0387
     14  CG        22.4380   22.3970   43.0270 C.3    19  MET19       0.0595
     15  SD        21.0350   21.7580   43.9470 S.3    19  MET19      -0.1393
     16  CE        21.0180   20.0210   43.4070 C.3    19  MET19       0.0692
     17  N         29.6860   20.7830   44.2270 N.3    21  ARG21      -0.1231
     18  CA        30.2770   20.1360   43.0520 C.3    21  ARG21       0.1694
     19  C         31.2450   19.0040   43.3810 C.2    21  ARG21       0.2591
     20  O         32.3270   19.2600   43.9110 O.2    21  ARG21      -0.2718
     21  CB        30.9740   21.1740   42.1680 C.3    21  ARG21       0.0321
     22  CG        30.2180   22.4870   42.0400 C.3    21  ARG21       0.0489
     23  CD        28.9810   22.3290   41.1720 C.3    21  ARG21       0.2205
     24  NE        28.2460   23.5840   41.0340 N.pl3  21  ARG21      -0.0865
     25  CZ        27.1970   23.7510   40.2360 C.cat  21  ARG21       0.5346
     26  NH1       26.9880   22.9150   39.2270 N.pl3  21  ARG21       0.1354
     27  NH2       26.3540   24.7530   40.4460 N.pl3  21  ARG21       0.1354
     28  N         30.8950   17.7580   43.0510 N.am   22  ARG22      -0.1980
     29  CA        29.6250   17.3530   42.5200 C.3    22  ARG22       0.1597
     30  C         28.9460   16.4290   43.5270 C.2    22  ARG22       0.2287
     31  O         28.4410   15.3870   43.1920 O.2    22  ARG22      -0.2864
     32  CB        29.8360   16.6390   41.2060 C.3    22  ARG22       0.0334
     33  CG        28.5780   16.2160   40.5790 C.3    22  ARG22       0.0492
     34  CD        27.9240   17.3740   39.9620 C.3    22  ARG22       0.2205
     35  NE        28.6060   17.6890   38.7300 N.pl3  22  ARG22      -0.0865
     36  CZ        28.2910   18.7020   37.9470 C.cat  22  ARG22       0.5346
     37  NH1       27.3610   19.5600   38.3220 N.pl3  22  ARG22       0.1354
     38  NH2       28.9120   18.8520   36.7890 N.pl3  22  ARG22       0.1354
     39  N         26.0270   16.1670   45.0060 N.3    24  LEU24      -0.1245
     40  CA        24.5970   16.4270   45.0150 C.3    24  LEU24       0.1561
     41  C         24.0050   16.0520   46.3610 C.2    24  LEU24       0.2260
     42  O         23.4800   16.9100   47.0700 O.2    24  LEU24      -0.2867
     43  CB        23.9030   15.6450   43.8980 C.3    24  LEU24       0.0270
     44  CG        24.5830   15.6720   42.5280 C.3    24  LEU24       0.0019
     45  CD1       24.0320   14.5730   41.6330 C.3    24  LEU24       0.0001
     46  CD2       24.4210   17.0350   41.8730 C.3    24  LEU24       0.0001
     47  N         22.3060   18.3500   49.3510 N.3    28  PHE28      -0.1241
     48  CA        21.1360   18.0730   50.1670 C.3    28  PHE28       0.1605
     49  C         21.4540   18.0770   51.6520 C.2    28  PHE28       0.2264
     50  O         20.6780   18.6010   52.4500 O.2    28  PHE28      -0.2867
     51  CB        20.4370   16.7870   49.7200 C.3    28  PHE28       0.0534
     52  CG        19.7450   16.9190   48.3890 C.ar   28  PHE28      -0.0203
     53  CD1       18.5180   17.5810   48.2770 C.ar   28  PHE28      -0.0042
     54  CD2       20.3310   16.3930   47.2390 C.ar   28  PHE28      -0.0042
     55  CE1       17.9000   17.7260   47.0420 C.ar   28  PHE28      -0.0003
     56  CE2       19.7160   16.5290   45.9880 C.ar   28  PHE28      -0.0003
     57  CZ        18.4940   17.2020   45.8920 C.ar   28  PHE28      -0.0000
     58  N         14.7690   21.9710   42.2510 N.3    43  LEU43      -0.1245
     59  CA        15.5290   21.3490   41.1660 C.3    43  LEU43       0.1561
     60  C         14.9370   21.8020   39.8450 C.2    43  LEU43       0.2260
     61  O         13.8910   21.3010   39.3950 O.2    43  LEU43      -0.2867
     62  CB        15.5040   19.8370   41.2750 C.3    43  LEU43       0.0270
     63  CG        16.0370   19.3810   42.6150 C.3    43  LEU43       0.0019
     64  CD1       15.3450   18.0980   42.9730 C.3    43  LEU43       0.0001
     65  CD2       17.5970   19.2470   42.6460 C.3    43  LEU43       0.0001
     66  N         11.0070   22.9520   39.0370 N.3    46  ARG46      -0.1245
     67  CA        10.1590   22.1260   39.8870 C.3    46  ARG46       0.1563
     68  C         10.5680   22.1370   41.3570 C.2    46  ARG46       0.2260
     69  O         11.7470   22.0440   41.6980 O.2    46  ARG46      -0.2867
     70  CB        10.1280   20.6860   39.3670 C.3    46  ARG46       0.0307
     71  CG         9.2080   19.7640   40.1510 C.3    46  ARG46       0.0489
     72  CD         9.2260   18.3540   39.5830 C.3    46  ARG46       0.2205
     73  NE        10.5340   17.7230   39.7260 N.pl3  46  ARG46      -0.0865
     74  CZ        11.4480   17.6710   38.7620 C.cat  46  ARG46       0.5346
     75  NH1       11.4050   16.7030   37.8570 N.pl3  46  ARG46       0.1354
     76  NH2       12.4050   18.5860   38.7030 N.pl3  46  ARG46       0.1354
     77  N         10.7860   20.3090   44.8090 N.3    48  VAL48      -0.1245
     78  CA        10.8990   18.9650   45.3910 C.3    48  VAL48       0.1561
     79  C         11.1450   18.9710   46.9140 C.2    48  VAL48       0.2260
     80  O         12.1610   19.4500   47.3930 O.2    48  VAL48      -0.2867
     81  CB        12.0140   18.1680   44.7100 C.3    48  VAL48       0.0252
     82  CG1       12.0630   16.7440   45.2650 C.3    48  VAL48       0.0019
     83  CG2       11.8190   18.1590   43.2030 C.3    48  VAL48       0.0019
     84  N          7.8130   11.1070   38.6930 N.3    73  LYS73      -0.1231
     85  CA         8.1360   10.9240   37.2830 C.3    73  LYS73       0.1693
     86  C          9.6320   10.7670   37.0780 C.2    73  LYS73       0.2591
     87  O         10.4280   11.1950   37.9140 O.2    73  LYS73      -0.2718
     88  CB         7.6130   12.1010   36.4570 C.3    73  LYS73       0.0285
     89  CG         7.3070   11.7550   35.0090 C.3    73  LYS73       0.0035
     90  CD         5.9580   12.3100   34.5810 C.3    73  LYS73       0.0206
     91  CE         6.0490   13.0050   33.2330 C.3    73  LYS73       0.1093
     92  NZ         5.0090   14.0580   33.0800 N.3    73  LYS73      -0.1314
     93  N         10.0170   10.1520   35.9650 N.am   74  ILE74      -0.1980
     94  CA        11.4010    9.9640   35.6960 C.3    74  ILE74       0.1595
     95  C         11.6120   10.1130   34.2480 C.2    74  ILE74       0.2287
     96  O         11.6670    9.1780   33.5170 O.2    74  ILE74      -0.2864
     97  CB        11.8320    8.6100   36.1390 C.3    74  ILE74       0.0276
     98  CG1       11.8360    8.5730   37.6540 C.3    74  ILE74       0.0022
     99  CG2       13.1970    8.3380   35.6570 C.3    74  ILE74       0.0022
    100  CD1       11.5920    7.2610   38.2020 C.3    74  ILE74       0.0001
    101  N         21.2730    7.1900   31.8920 N.3   182  ILE182     -0.1245
    102  CA        20.4410    7.9990   32.8010 C.3   182  ILE182      0.1561
    103  C         21.2520    8.5850   33.9500 C.2   182  ILE182      0.2260
    104  O         20.9400    9.6360   34.4890 O.2   182  ILE182     -0.2867
    105  CB        19.2600    7.2400   33.3690 C.3   182  ILE182      0.0252
    106  CG1       18.5510    6.4860   32.2610 C.3   182  ILE182      0.0019
    107  CG2       18.3010    8.2300   33.9200 C.3   182  ILE182      0.0019
    108  CD1       17.8490    5.2760   32.7040 C.3   182  ILE182      0.0001
    109  N         25.5760   13.1740   33.0530 N.3   185  VAL185     -0.1245
    110  CA        25.3570   14.6240   33.0580 C.3   185  VAL185      0.1561
    111  C         24.0440   15.0500   32.4140 C.2   185  VAL185      0.2260
    112  O         23.3280   15.9160   32.9040 O.2   185  VAL185     -0.2867
    113  CB        26.5060   15.2700   32.2560 C.3   185  VAL185      0.0252
    114  CG1       26.2780   16.7890   32.0030 C.3   185  VAL185      0.0019
    115  CG2       27.8520   14.9530   32.9300 C.3   185  VAL185      0.0019
    116  N         21.3410   13.0440   31.3580 N.3   187  GLY187     -0.1210
    117  CA        20.1510   12.4310   31.8570 C.3   187  GLY187      0.1956
    118  C         19.7630   13.2520   33.0480 C.2   187  GLY187      0.2612
    119  O         18.5800   13.4230   33.3600 O.2   187  GLY187     -0.2717
    120  N         20.7410   13.7750   33.7380 N.am  188  GLN188     -0.1965
    121  CA        20.3890   14.5710   34.8570 C.3   188  GLN188      0.1733
    122  C         19.6470   15.7100   34.2390 C.2   188  GLN188      0.2616
    123  O         18.4580   15.8390   34.3970 O.2   188  GLN188     -0.2715
    124  CB        21.6350   15.0330   35.5670 C.3   188  GLN188      0.0408
    125  CG        22.7370   14.0150   35.5380 C.3   188  GLN188      0.0908
    126  CD        23.3430   13.7640   36.8980 C.2   188  GLN188      0.2608
    127  OE1       22.8010   13.0120   37.6960 O.2   188  GLN188     -0.2717
    128  NE2       24.4810   14.3840   37.1640 N.am  188  GLN188     -0.0878
    129  N         20.3460   16.5220   33.4800 N.am  189  LEU189     -0.1977
    130  CA        19.7460   17.7420   32.9690 C.3   189  LEU189      0.1596
    131  C         18.4440   17.5250   32.2270 C.2   189  LEU189      0.2287
    132  O         17.6310   18.4580   32.1610 O.2   189  LEU189     -0.2864
    133  CB        20.7260   18.4660   32.0810 C.3   189  LEU189      0.0297
    134  CG        21.8300   19.0840   32.9330 C.3   189  LEU189      0.0022
    135  CD1       23.1560   19.0330   32.1980 C.3   189  LEU189      0.0001
    136  CD2       21.4660   20.5140   33.3000 C.3   189  LEU189      0.0001
    137  N         16.0980   15.5390   33.0510 N.3   191  GLU191     -0.1231
    138  CA        15.0340   15.4400   34.0500 C.3   191  GLU191      0.1699
    139  C         14.4890   16.7840   34.4770 C.2   191  GLU191      0.2592
    140  O         13.5350   16.8520   35.2260 O.2   191  GLU191     -0.2718
    141  CB        15.5120   14.7170   35.3000 C.3   191  GLU191      0.0402
    142  CG        15.6960   13.2260   35.1520 C.3   191  GLU191      0.1161
    143  CD        14.4090   12.4380   35.2320 C.2   191  GLU191      0.3649
    144  OE1       13.4570   12.9430   35.8450 O.co2 191  GLU191     -0.2457
    145  OE2       14.3550   11.3230   34.6810 O.co2 191  GLU191     -0.2457
    146  N         15.1000   17.8600   34.0160 N.am  192  LEU192     -0.1980
    147  CA        14.7520   19.1530   34.5160 C.3   192  LEU192      0.1596
    148  C         14.1190   19.9010   33.4330 C.2   192  LEU192      0.2287
    149  O         12.9990   20.3370   33.5560 O.2   192  LEU192     -0.2864
    150  CB        16.0110   19.8600   34.9080 C.3   192  LEU192      0.0297
    151  CG        16.5710   19.0240   36.0160 C.3   192  LEU192      0.0022
    152  CD1       17.3720   19.8230   36.9650 C.3   192  LEU192      0.0001
    153  CD2       15.3780   18.4590   36.6750 C.3   192  LEU192      0.0001
    154  N         18.8660    8.2550   47.9800 N.3   338  MET338     -0.1230
    155  CA        17.6630    9.0780   47.9930 C.3   338  MET338      0.1702
    156  C         16.3520    8.3670   47.6550 C.2   338  MET338      0.2592
    157  O         15.3230    8.9930   47.4710 O.2   338  MET338     -0.2718
    158  CB        17.9000   10.3330   47.1630 C.3   338  MET338      0.0401
    159  CG        18.9730   11.2110   47.8300 C.3   338  MET338      0.0596
    160  SD        19.3970   12.6670   46.8960 S.3   338  MET338     -0.1393
    161  CE        20.6690   11.9780   45.7810 C.3   338  MET338      0.0692
    162  N         16.4040    7.0450   47.6670 N.am  339  GLY339     -0.1957
    163  CA        15.2220    6.2680   47.3920 C.3   339  GLY339      0.1869
    164  C         14.8180    6.4130   45.9570 C.2   339  GLY339      0.2309
    165  O         15.6240    6.7400   45.1100 O.2   339  GLY339     -0.2863
    166  N         11.8870    8.5140   43.6840 N.3   341  PRO341     -0.2116
    167  CA        10.9820    9.6420   43.8960 C.3   341  PRO341      0.1372
    168  C          9.5740    9.2180   44.2540 C.2   341  PRO341      0.2244
    169  O          9.0490    8.2760   43.6590 O.2   341  PRO341     -0.2868
    170  CB        10.9580   10.2970   42.5380 C.3   341  PRO341      0.0268
    171  CG        12.3450   10.1290   42.0770 C.3   341  PRO341      0.0207
    172  CD        12.7350    8.7300   42.5020 C.3   341  PRO341      0.0892
    173  N          6.6560   16.3100   43.9630 N.3   360  GLU360     -0.1245
    174  CA         7.6730   15.2910   44.0890 C.3   360  GLU360      0.1567
    175  C          8.3150   15.3740   45.4550 C.2   360  GLU360      0.2260
    176  O          8.3920   16.4130   46.0410 O.2   360  GLU360     -0.2867
    177  CB         8.6970   15.4010   42.9620 C.3   360  GLU360      0.0388
    178  CG         9.2850   14.0720   42.4800 C.3   360  GLU360      0.1160
    179  CD         9.6770   14.0400   41.0080 C.2   360  GLU360      0.3649
    180  OE1       10.8510   13.8080   40.6820 O.co2 360  GLU360     -0.2457
    181  OE2        8.7930   14.2120   40.1700 O.co2 360  GLU360     -0.2457
    182  N         11.3510   13.1930   48.1660 N.3   362  PHE362     -0.1241
    183  CA        12.4660   12.2630   48.2360 C.3   362  PHE362      0.1605
    184  C         12.6660   11.7940   49.6400 C.2   362  PHE362      0.2264
    185  O         12.7750   12.5810   50.5130 O.2   362  PHE362     -0.2867
    186  CB        13.7450   12.9720   47.8990 C.3   362  PHE362      0.0534
    187  CG        13.9740   13.1730   46.4580 C.ar  362  PHE362     -0.0203
    188  CD1       15.1880   13.5690   45.9990 C.ar  362  PHE362     -0.0042
    189  CD2       12.9870   13.0110   45.5660 C.ar  362  PHE362     -0.0042
    190  CE1       15.3940   13.7810   44.6990 C.ar  362  PHE362     -0.0003
    191  CE2       13.2120   13.2230   44.2650 C.ar  362  PHE362     -0.0003
    192  CZ        14.4060   13.6020   43.8400 C.ar  362  PHE362     -0.0000
    193  N         25.7060   10.2660   39.7810 N.3   449  GLY449     -0.1210
    194  CA        24.3050   10.3050   39.4880 C.3   449  GLY449      0.1956
    195  C         23.5340    9.9890   40.7160 C.2   449  GLY449      0.2611
    196  O         23.8550   10.4130   41.7970 O.2   449  GLY449     -0.2717
    197  N         22.5010    9.2100   40.5410 N.am  450  VAL450     -0.1979
    198  CA        21.6420    8.8850   41.6660 C.3   450  VAL450      0.1595
    199  C         21.9920    7.6220   42.4010 C.2   450  VAL450      0.2287
    200  O         21.2290    7.1670   43.1920 O.2   450  VAL450     -0.2864
    201  CB        20.2520    8.6380   41.1900 C.3   450  VAL450      0.0276
    202  CG1       20.1420    8.9750   39.7480 C.3   450  VAL450      0.0022
    203  CG2       19.9290    7.2200   41.3980 C.3   450  VAL450      0.0022
@<TRIPOS>BOND
     1   116   117    1
     2   117   118    1
     3   101   102    1
     4   114   113    1
     5   133   134    1
     6   133   130    1
     7   132   131    2
     8   135   134    1
     9   131   130    1
    10   113   115    1
    11   113   110    1
    12   106   108    1
    13   106   105    1
    14   111   112    2
    15   111   110    1
    16   102   105    1
    17   102   103    1
    18   134   136    1
    19   130   129    1
    20   118   119    2
    21   118   120   am
    22   137   138    1
    23   109   110    1
    24    92    91    1
    25    91    90    1
    26   105   107    1
    27   148   149    2
    28   148   147    1
    29   129   122   am
    30    96    95    2
    31   120   121    1
    32   103   104    2
    33   146   139   am
    34   146   147    1
    35   138   139    1
    36   138   141    1
    37   122   123    2
    38   122   121    1
    39    95    94    1
    40   139   140    2
    41   147   150    1
    42    90    89    1
    43   145   143   ar
    44   121   124    1
    45   150   151    1
    46    89    88    1
    47   142   143    1
    48   142   141    1
    49   143   144   ar
    50   125   124    1
    51   125   126    1
    52    99    97    1
    53    94    93    1
    54    94    97    1
    55    93    86   am
    56   151   153    1
    57   151   152    1
    58    97    98    1
    59    88    85    1
    60    38    36    1
    61   126   128   am
    62   126   127    2
    63    86    85    1
    64    86    87    2
    65    85    84    1
    66    98   100    1
    67     8     6    1
    68    75    74    1
    69    36    37    1
    70    36    35    2
    71    76    74    1
    72    35    34    1
    73    74    73    2
    74    66    67    1
    75     6     5    1
    76     6     7    1
    77    26    25    1
    78    70    67    1
    79    70    71    1
    80    61    60    2
    81   194   193    1
    82   194   195    1
    83     5     2    1
    84    72    73    1
    85    72    71    1
    86   202   201    1
    87    60    59    1
    88    67    68    1
    89    34    33    1
    90   181   179   ar
    91    25    27    1
    92    25    24    2
    93   197   195   am
    94   197   198    1
    95    33    32    1
    96   180   179   ar
    97   195   196    2
    98     4     3    2
    99     2     3    1
   100     2     1    1
   101   179   178    1
   102    24    23    1
   103    59    62    1
   104    59    58    1
   105    23    22    1
   106   201   203    1
   107   201   198    1
   108    32    29    1
   109    62    63    1
   110    68    69    2
   111    45    44    1
   112   198   199    1
   113    46    44    1
   114    22    21    1
   115   171   172    1
   116   171   170    1
   117    21    18    1
   118   199   200    2
   119   178   177    1
   120   172   166    1
   121    29    28    1
   122    29    30    1
   123    44    43    1
   124   170   167    1
   125    63    65    1
   126    63    64    1
   127   177   174    1
   128    14    13    1
   129    14    15    1
   130    28    19   am
   131    18    19    1
   132    18    17    1
   133    31    30    2
   134    83    81    1
   135    19    20    2
   136    16    15    1
   137    13    10    1
   138   169   168    2
   139   166   167    1
   140   192   191   ar
   141   192   190   ar
   142   167   168    1
   143    43    40    1
   144   173   174    1
   145   174   175    1
   146   191   189   ar
   147     9    10    1
   148   190   188   ar
   149    12    11    2
   150    81    82    1
   151    81    78    1
   152    10    11    1
   153    77    78    1
   154    39    40    1
   155    40    41    1
   156   165   164    2
   157    78    79    1
   158   175   176    2
   159   189   187   ar
   160   161   160    1
   161    57    56   ar
   162    57    55   ar
   163   164   163    1
   164    56    54   ar
   165   188   187   ar
   166    41    42    2
   167   187   186    1
   168   160   159    1
   169    79    80    2
   170    55    53   ar
   171   158   159    1
   172   158   155    1
   173    54    52   ar
   174   163   162    1
   175   157   156    2
   176   156   162   am
   177   156   155    1
   178   186   183    1
   179   154   155    1
   180   182   183    1
   181   183   184    1
   182    53    52   ar
   183    52    51    1
   184    47    48    1
   185   184   185    2
   186    51    48    1
   187    48    49    1
   188    49    50    2
