@<TRIPOS>MOLECULE
tmp/3ua7A00.pdb
 98 100 0 0 0
SMALL
GASTEIGER

@<TRIPOS>ATOM
      1  N        -25.4480  -13.5920   -8.2660 N.3    11  TYR11      -0.1227
      2  CA       -26.3340  -13.2360   -7.1360 C.3    11  TYR11       0.1736
      3  C        -26.8160  -11.8320   -7.4030 C.2    11  TYR11       0.2595
      4  O        -26.0990  -11.0700   -8.1110 O.2    11  TYR11      -0.2718
      5  CB       -25.5730  -13.1550   -5.7730 C.3    11  TYR11       0.0548
      6  CG       -24.5380  -14.2380   -5.5550 C.ar   11  TYR11      -0.0200
      7  CD1      -24.9030  -15.5630   -5.2550 C.ar   11  TYR11      -0.0009
      8  CD2      -23.1950  -13.9310   -5.6210 C.ar   11  TYR11      -0.0009
      9  CE1      -23.8970  -16.5560   -5.1610 C.ar   11  TYR11       0.0417
     10  CE2      -22.1970  -14.8810   -5.5370 C.ar   11  TYR11       0.0417
     11  CZ       -22.5420  -16.1900   -5.2710 C.ar   11  TYR11       0.1957
     12  OH       -21.5020  -17.0860   -5.1340 O.3    11  TYR11      -0.2866
     13  N        -27.9480  -11.4770   -6.7800 N.am   12  ASP12      -0.1960
     14  CA       -28.3320  -10.0690   -6.6650 C.3    12  ASP12       0.1840
     15  C        -27.3280   -9.2510   -5.8370 C.2    12  ASP12       0.2622
     16  O        -26.7470   -9.7380   -4.8230 O.2    12  ASP12      -0.2715
     17  CB       -29.7000   -9.8880   -6.0080 C.3    12  ASP12       0.1450
     18  CG       -30.8580  -10.5770   -6.7510 C.2    12  ASP12       0.3671
     19  OD1      -30.7810  -10.9000   -7.9830 O.co2  12  ASP12      -0.2456
     20  OD2      -31.9070  -10.7860   -6.0850 O.co2  12  ASP12      -0.2456
     21  N        -27.1680   -7.9810   -6.1950 N.am   13  TYR13      -0.1974
     22  CA       -26.3520   -7.0470   -5.3780 C.3    13  TYR13       0.1639
     23  C        -26.9980   -5.6600   -5.2590 C.2    13  TYR13       0.2290
     24  O        -27.4460   -5.1330   -6.2680 O.2    13  TYR13      -0.2864
     25  CB       -24.9360   -6.9010   -5.9590 C.3    13  TYR13       0.0560
     26  CG       -24.0850   -5.8600   -5.2540 C.ar   13  TYR13      -0.0198
     27  CD1      -23.5140   -6.1580   -3.9880 C.ar   13  TYR13      -0.0009
     28  CD2      -23.7860   -4.6410   -5.8430 C.ar   13  TYR13      -0.0009
     29  CE1      -22.7700   -5.2110   -3.3050 C.ar   13  TYR13       0.0417
     30  CE2      -22.9840   -3.7060   -5.1790 C.ar   13  TYR13       0.0417
     31  CZ       -22.4830   -3.9800   -3.9070 C.ar   13  TYR13       0.1957
     32  OH       -21.7210   -3.0550   -3.2030 O.3    13  TYR13      -0.2866
     33  N        -23.5820    0.1360   -2.5570 N.3    16  ARG16      -0.1245
     34  CA       -23.2390    0.6630   -1.2110 C.3    16  ARG16       0.1563
     35  C        -22.3930    1.9470   -1.1900 C.2    16  ARG16       0.2260
     36  O        -21.9660    2.4340   -0.1220 O.2    16  ARG16      -0.2867
     37  CB       -22.5910   -0.4500   -0.3900 C.3    16  ARG16       0.0307
     38  CG       -23.6210   -1.4360    0.1330 C.3    16  ARG16       0.0489
     39  CD       -22.9010   -2.6090    0.7530 C.3    16  ARG16       0.2205
     40  NE       -23.8100   -3.5420    1.4020 N.pl3  16  ARG16      -0.0865
     41  CZ       -24.5770   -4.3900    0.7260 C.cat  16  ARG16       0.5346
     42  NH1      -24.5450   -4.3830   -0.6070 N.pl3  16  ARG16       0.1354
     43  NH2      -25.3110   -5.2810    1.3680 N.pl3  16  ARG16       0.1354
     44  N        -10.3650   -5.6330   -5.9020 N.3    38  ASP38      -0.1225
     45  CA       -11.3710   -6.7160   -6.0680 C.3    38  ASP38       0.1805
     46  C        -12.7720   -6.2140   -6.3650 C.2    38  ASP38       0.2597
     47  O        -13.7530   -6.9850   -6.5430 O.2    38  ASP38      -0.2718
     48  CB       -11.3330   -7.5950   -4.8330 C.3    38  ASP38       0.1424
     49  CG       -10.0340   -8.4010   -4.7630 C.2    38  ASP38       0.3668
     50  OD1       -9.3320   -8.5020   -5.8130 O.co2  38  ASP38      -0.2456
     51  OD2       -9.7070   -8.9380   -3.6800 O.co2  38  ASP38      -0.2456
     52  N        -12.8960   -4.9070   -6.3510 N.am   39  TRP39      -0.1976
     53  CA       -14.0920   -4.1880   -6.8390 C.3    39  TRP39       0.1640
     54  C        -13.7310   -3.7730   -8.2660 C.2    39  TRP39       0.2290
     55  O        -12.7260   -3.0720   -8.4890 O.2    39  TRP39      -0.2864
     56  CB       -14.3640   -2.9260   -5.9900 C.3    39  TRP39       0.0576
     57  CG       -14.8280   -3.2820   -4.6470 C.ar   39  TRP39       0.0006
     58  CD1      -14.0420   -3.4880   -3.5360 C.ar   39  TRP39       0.0946
     59  CD2      -16.1730   -3.4990   -4.2430 C.ar   39  TRP39       0.0152
     60  NE1      -14.8350   -3.8600   -2.4820 N.ar   39  TRP39      -0.2442
     61  CE2      -16.1510   -3.7970   -2.8600 C.ar   39  TRP39       0.0810
     62  CE3      -17.4130   -3.4000   -4.9030 C.ar   39  TRP39       0.0012
     63  CZ2      -17.3160   -4.1020   -2.1330 C.ar   39  TRP39       0.0191
     64  CZ3      -18.5880   -3.6330   -4.1700 C.ar   39  TRP39       0.0001
     65  CH2      -18.5330   -3.9810   -2.7820 C.ar   39  TRP39       0.0015
     66  N        -18.8100   -6.0220   -6.9570 N.3    54  PRO54      -0.2102
     67  CA       -17.9090   -6.9360   -6.2420 C.3    54  PRO54       0.1504
     68  C        -17.5720   -8.0980   -7.1960 C.2    54  PRO54       0.2576
     69  O        -18.4910   -8.8310   -7.6390 O.2    54  PRO54      -0.2718
     70  CB       -18.7740   -7.4200   -5.0550 C.3    54  PRO54       0.0282
     71  CG       -20.2160   -7.1810   -5.4380 C.3    54  PRO54       0.0208
     72  CD       -20.2170   -6.1200   -6.5170 C.3    54  PRO54       0.0893
     73  N        -16.2830   -8.3100   -7.4050 N.am   55  SER55      -0.1938
     74  CA       -15.8490   -9.3200   -8.3740 C.3    55  SER55       0.2055
     75  C        -16.2010  -10.7910   -8.0610 C.2    55  SER55       0.2643
     76  O        -16.3670  -11.6260   -8.9990 O.2    55  SER55      -0.2714
     77  CB       -14.3640   -9.1430   -8.7200 C.3    55  SER55       0.2130
     78  OG       -13.5550   -9.3990   -7.6040 O.3    55  SER55      -0.2179
     79  N        -16.4020  -11.0920   -6.7700 N.am   56  ASN56      -0.1957
     80  CA       -16.9030  -12.4050   -6.3730 C.3    56  ASN56       0.1819
     81  C        -18.3270  -12.6740   -6.7380 C.2    56  ASN56       0.2621
     82  O        -18.7460  -13.8120   -6.6000 O.2    56  ASN56      -0.2715
     83  CB       -16.6490  -12.6610   -4.8370 C.3    56  ASN56       0.1195
     84  CG       -17.3770  -11.6280   -3.9710 C.2    56  ASN56       0.2630
     85  OD1      -17.5800  -10.4930   -4.3860 O.2    56  ASN56      -0.2716
     86  ND2      -17.6910  -11.9910   -2.7390 N.am   56  ASN56      -0.0877
     87  N        -19.0820  -11.6350   -7.1810 N.am   57  TYR57      -0.1974
     88  CA       -20.4840  -11.8120   -7.5530 C.3    57  TYR57       0.1639
     89  C        -20.6530  -12.1520   -9.0610 C.2    57  TYR57       0.2290
     90  O        -21.7720  -12.3600   -9.4710 O.2    57  TYR57      -0.2864
     91  CB       -21.3420  -10.5750   -7.2620 C.3    57  TYR57       0.0560
     92  CG       -21.8010  -10.4650   -5.8330 C.ar   57  TYR57      -0.0198
     93  CD1      -20.9070  -10.5770   -4.7510 C.ar   57  TYR57      -0.0009
     94  CD2      -23.1390  -10.2460   -5.5720 C.ar   57  TYR57      -0.0009
     95  CE1      -21.3990  -10.4900   -3.4220 C.ar   57  TYR57       0.0417
     96  CE2      -23.6200  -10.1580   -4.2540 C.ar   57  TYR57       0.0417
     97  CZ       -22.7340  -10.2370   -3.1910 C.ar   57  TYR57       0.1957
     98  OH       -23.2340  -10.1470   -1.9040 O.3    57  TYR57      -0.2866
@<TRIPOS>BOND
     1    90    89    2
     2    89    88    1
     3    76    75    2
     4    77    74    1
     5    77    78    1
     6    55    54    2
     7    74    75    1
     8    74    73    1
     9    54    53    1
    10     1     2    1
    11     4     3    2
    12    75    79   am
    13    19    18   ar
    14    69    68    2
    15    88    91    1
    16    88    87    1
    17    73    68   am
    18     3     2    1
    19     3    13   am
    20    91    92    1
    21    68    67    1
    22    87    81   am
    23     2     5    1
    24    66    72    1
    25    66    67    1
    26    53    52    1
    27    53    56    1
    28    13    14    1
    29    79    80    1
    30    18    20   ar
    31    18    17    1
    32    81    82    2
    33    81    80    1
    34    14    17    1
    35    14    15    1
    36    47    46    2
    37    72    71    1
    38    80    83    1
    39    46    52   am
    40    46    45    1
    41    24    23    2
    42    67    70    1
    43    21    15   am
    44    21    22    1
    45    45    44    1
    46    45    48    1
    47    56    57    1
    48    25    22    1
    49    25    26    1
    50    28    26   ar
    51    28    30   ar
    52    15    16    2
    53    92    94   ar
    54    92    93   ar
    55    50    49   ar
    56     5     6    1
    57     8     6   ar
    58     8    10   ar
    59    94    96   ar
    60     6     7   ar
    61    10    11   ar
    62    71    70    1
    63    22    23    1
    64    11     9   ar
    65    11    12    1
    66     7     9   ar
    67    26    27   ar
    68    30    31   ar
    69    62    59   ar
    70    62    64   ar
    71    83    84    1
    72    48    49    1
    73    49    51   ar
    74    93    95   ar
    75    57    59   ar
    76    57    58   ar
    77    85    84    2
    78    96    97   ar
    79    59    61   ar
    80    64    65   ar
    81    27    29   ar
    82    84    86   am
    83    31    29   ar
    84    31    32    1
    85    58    60   ar
    86    95    97   ar
    87    97    98    1
    88    61    60   ar
    89    61    63   ar
    90    65    63   ar
    91    33    34    1
    92    34    35    1
    93    34    37    1
    94    35    36    2
    95    42    41    1
    96    37    38    1
    97    38    39    1
    98    41    43    1
    99    41    40    2
   100    39    40    1
