@<TRIPOS>MOLECULE
tmp/3ua8A00.pdb
 146 138 0 0 0
SMALL
GASTEIGER

@<TRIPOS>ATOM
      1  N         35.9830   36.1460    8.7520 N.3     9  GLU9       -0.1245
      2  CA        36.9040   36.3670    9.8410 C.3     9  GLU9        0.1567
      3  C         36.3290   37.4820   10.6890 C.2     9  GLU9        0.2260
      4  O         36.1910   38.5910   10.2100 O.2     9  GLU9       -0.2867
      5  CB        38.2600   36.8010    9.2880 C.3     9  GLU9        0.0388
      6  CG        39.3450   36.9310   10.3330 C.3     9  GLU9        0.1160
      7  CD        39.9890   35.5910   10.6530 C.2     9  GLU9        0.3649
      8  OE1       40.7420   35.0810    9.7890 O.co2   9  GLU9       -0.2457
      9  OE2       39.7580   35.0700   11.7630 O.co2   9  GLU9       -0.2457
     10  N         35.6240   41.2590   10.7650 N.3    12  TYR12      -0.1241
     11  CA        35.7430   41.8710    9.4340 C.3    12  TYR12       0.1605
     12  C         34.5910   41.4900    8.5080 C.2    12  TYR12       0.2264
     13  O         33.9980   42.3400    7.8450 O.2    12  TYR12      -0.2867
     14  CB        37.0710   41.4790    8.7790 C.3    12  TYR12       0.0534
     15  CG        38.2590   41.8560    9.6290 C.ar   12  TYR12      -0.0201
     16  CD1       38.8030   43.1310    9.5620 C.ar   12  TYR12      -0.0009
     17  CD2       38.7890   40.9590   10.5550 C.ar   12  TYR12      -0.0009
     18  CE1       39.8700   43.4890   10.3550 C.ar   12  TYR12       0.0417
     19  CE2       39.8700   41.3090   11.3500 C.ar   12  TYR12       0.0417
     20  CZ        40.3960   42.5780   11.2490 C.ar   12  TYR12       0.1957
     21  OH        41.4600   42.9280   12.0470 O.3    12  TYR12      -0.2866
     22  N         44.3480   33.5100    3.2680 N.3    57  TYR57      -0.1241
     23  CA        44.7510   34.8850    2.9790 C.3    57  TYR57       0.1605
     24  C         45.5260   34.9250    1.6810 C.2    57  TYR57       0.2264
     25  O         45.1380   35.6150    0.7450 O.2    57  TYR57      -0.2867
     26  CB        45.5330   35.4750    4.1560 C.3    57  TYR57       0.0534
     27  CG        44.5680   35.8670    5.2440 C.ar   57  TYR57      -0.0201
     28  CD1       44.2250   34.9800    6.2610 C.ar   57  TYR57      -0.0009
     29  CD2       43.9170   37.0960    5.1930 C.ar   57  TYR57      -0.0009
     30  CE1       43.2830   35.3380    7.2360 C.ar   57  TYR57       0.0417
     31  CE2       42.9920   37.4590    6.1470 C.ar   57  TYR57       0.0417
     32  CZ        42.6670   36.5850    7.1590 C.ar   57  TYR57       0.1957
     33  OH        41.7220   36.9780    8.0810 O.3    57  TYR57      -0.2866
     34  N         41.2550   41.8230    5.8770 N.3    85  PRO85      -0.2102
     35  CA        42.4420   42.0990    6.6810 C.3    85  PRO85       0.1504
     36  C         43.6860   41.3950    6.1090 C.2    85  PRO85       0.2576
     37  O         44.2100   40.4580    6.7100 O.2    85  PRO85      -0.2718
     38  CB        42.0480   41.5740    8.0690 C.3    85  PRO85       0.0282
     39  CG        41.0770   40.5130    7.8020 C.3    85  PRO85       0.0208
     40  CD        40.3320   40.8950    6.5650 C.3    85  PRO85       0.0893
     41  N         44.1250   41.8590    4.9380 N.am   86  LEU86      -0.1966
     42  CA        45.2230   41.2540    4.1880 C.3    86  LEU86       0.1728
     43  C         46.4510   42.1190    4.4130 C.2    86  LEU86       0.2616
     44  O         46.4690   43.2900    4.0260 O.2    86  LEU86      -0.2715
     45  CB        44.8820   41.1920    2.6970 C.3    86  LEU86       0.0311
     46  CG        45.8410   40.4590    1.7560 C.3    86  LEU86       0.0022
     47  CD1       45.8610   38.9420    2.0050 C.3    86  LEU86       0.0001
     48  CD2       45.4650   40.7750    0.3090 C.3    86  LEU86       0.0001
     49  N         47.4660   41.5380    5.0450 N.am   87  THR87      -0.1951
     50  CA        48.6600   42.2780    5.4350 C.3    87  THR87       0.1897
     51  C         49.4990   42.6420    4.2240 C.2    87  THR87       0.2313
     52  O         49.7430   41.8100    3.3330 O.2    87  THR87      -0.2863
     53  CB        49.5130   41.4730    6.4250 C.3    87  THR87       0.1794
     54  OG1       48.6760   41.0200    7.4960 O.3    87  THR87      -0.2208
     55  CG2       50.6670   42.3140    6.9880 C.3    87  THR87       0.0378
     56  N         52.6570   42.8680    2.4970 N.3    89  THR89      -0.1218
     57  CA        53.9390   42.1580    2.6200 C.3    89  THR89       0.1862
     58  C         54.7110   42.2040    1.3080 C.2    89  THR89       0.2287
     59  O         54.1210   42.3560    0.2290 O.2    89  THR89      -0.2866
     60  CB        53.7520   40.6860    3.0590 C.3    89  THR89       0.1770
     61  OG1       53.0870   39.9500    2.0240 O.3    89  THR89      -0.2211
     62  CG2       52.9220   40.6090    4.3330 C.3    89  THR89       0.0375
     63  N         53.7650   39.5250   -1.3600 N.3    92  ARG92      -0.1245
     64  CA        52.5140   39.8390   -2.0320 C.3    92  ARG92       0.1563
     65  C         52.5970   41.0740   -2.9400 C.2    92  ARG92       0.2260
     66  O         52.0150   41.0690   -4.0240 O.2    92  ARG92      -0.2867
     67  CB        51.3960   40.0040   -1.0150 C.3    92  ARG92       0.0307
     68  CG        51.0570   38.7220   -0.2880 C.3    92  ARG92       0.0489
     69  CD        50.0490   38.9960    0.7570 C.3    92  ARG92       0.2205
     70  NE        49.6130   37.7910    1.4360 N.pl3  92  ARG92      -0.0865
     71  CZ        49.1790   37.7440    2.6920 C.cat  92  ARG92       0.5346
     72  NH1       49.1460   38.8430    3.4500 N.pl3  92  ARG92       0.1354
     73  NH2       48.7960   36.5780    3.2040 N.pl3  92  ARG92       0.1354
     74  N         52.9590   31.9480   17.2180 N.3   134  LEU134     -0.1245
     75  CA        52.7010   30.9510   16.1790 C.3   134  LEU134      0.1561
     76  C         54.0360   30.3590   15.7240 C.2   134  LEU134      0.2260
     77  O         55.0320   31.0810   15.6230 O.2   134  LEU134     -0.2867
     78  CB        52.0170   31.5920   14.9690 C.3   134  LEU134      0.0270
     79  CG        50.5070   31.7620   14.8780 C.3   134  LEU134      0.0019
     80  CD1       50.1710   32.2990   13.4820 C.3   134  LEU134      0.0001
     81  CD2       49.7410   30.4460   15.1330 C.3   134  LEU134      0.0001
     82  N         55.4270   32.0080   10.4380 N.3   137  GLY137     -0.1210
     83  CA        54.7990   33.2580   10.0570 C.3   137  GLY137      0.1956
     84  C         55.5440   34.4600   10.5900 C.2   137  GLY137      0.2612
     85  O         56.5750   34.3320   11.2510 O.2   137  GLY137     -0.2717
     86  N         54.9860   35.6270   10.2990 N.am  138  SER138     -0.1952
     87  CA        55.6720   36.9070   10.4580 C.3   138  SER138      0.1924
     88  C         56.0460   37.2780   11.8890 C.2   138  SER138      0.2314
     89  O         57.0280   37.9930   12.0980 O.2   138  SER138     -0.2863
     90  CB        54.8020   38.0160    9.8670 C.3   138  SER138      0.2116
     91  OG        53.5800   38.1260   10.5750 O.3   138  SER138     -0.2180
     92  N         48.1130   27.3280   16.0570 N.3   169  THR169     -0.1203
     93  CA        47.0070   28.2030   15.7050 C.3   169  THR169      0.1994
     94  C         46.7830   29.2710   16.7710 C.2   169  THR169      0.2619
     95  O         47.1490   29.0960   17.9400 O.2   169  THR169     -0.2717
     96  CB        45.6870   27.4100   15.5850 C.3   169  THR169      0.1784
     97  OG1       45.3160   26.9210   16.8770 O.3   169  THR169     -0.2211
     98  CG2       45.8270   26.2170   14.6120 C.3   169  THR169      0.0376
     99  N         46.1480   30.3630   16.3710 N.am  170  THR170     -0.1938
    100  CA        45.7560   31.4110   17.3150 C.3   170  THR170      0.2028
    101  C         44.9110   30.8400   18.4570 C.2   170  THR170      0.2642
    102  O         45.1620   31.1390   19.6200 O.2   170  THR170     -0.2714
    103  CB        44.9610   32.5030   16.6090 C.3   170  THR170      0.1808
    104  OG1       45.7770   33.0830   15.5860 O.3   170  THR170     -0.2208
    105  CG2       44.5170   33.5820   17.5930 C.3   170  THR170      0.0379
    106  N         43.9230   30.0070   18.1170 N.am  171  ALA171     -0.1977
    107  CA        43.0720   29.3590   19.1330 C.3   171  ALA171      0.1597
    108  C         43.8930   28.6130   20.1740 C.2   171  ALA171      0.2287
    109  O         43.5780   28.6800   21.3610 O.2   171  ALA171     -0.2864
    110  CB        42.0550   28.4010   18.4720 C.3   171  ALA171      0.0319
    111  N         49.0940   39.6080   16.6750 N.3   189  GLU189     -0.1245
    112  CA        48.6630   40.8760   16.0900 C.3   189  GLU189      0.1567
    113  C         47.6740   41.6290   16.9830 C.2   189  GLU189      0.2260
    114  O         46.7490   41.0440   17.5490 O.2   189  GLU189     -0.2867
    115  CB        48.0670   40.6660   14.6960 C.3   189  GLU189      0.0388
    116  CG        46.9760   39.6200   14.5990 C.3   189  GLU189      0.1160
    117  CD        47.5120   38.2470   14.1930 C.2   189  GLU189      0.3649
    118  OE1       48.1620   37.5740   15.0380 O.co2 189  GLU189     -0.2457
    119  OE2       47.2830   37.8490   13.0270 O.co2 189  GLU189     -0.2457
    120  N         45.2280   43.7220   16.5220 N.3   191  THR191     -0.1203
    121  CA        43.8110   43.7360   16.1420 C.3   191  THR191      0.1994
    122  C         43.0470   42.5410   16.7160 C.2   191  THR191      0.2617
    123  O         41.9380   42.6830   17.2760 O.2   191  THR191     -0.2717
    124  CB        43.6980   43.6830   14.6180 C.3   191  THR191      0.1784
    125  OG1       44.5560   42.6400   14.1210 O.3   191  THR191     -0.2211
    126  CG2       44.1400   45.0140   14.0230 C.3   191  THR191      0.0376
    127  N         43.6440   41.3640   16.5710 N.am  192  MET192     -0.1979
    128  CA        43.0630   40.1390   17.1180 C.3   192  MET192      0.1605
    129  C         43.1020   40.1730   18.6540 C.2   192  MET192      0.2287
    130  O         42.1160   39.8170   19.2920 O.2   192  MET192     -0.2864
    131  CB        43.7920   38.9050   16.5760 C.3   192  MET192      0.0413
    132  CG        43.2800   37.5630   17.1240 C.3   192  MET192      0.0598
    133  SD        41.6160   37.1580   16.5930 S.3   192  MET192     -0.1393
    134  CE        41.9150   36.6050   14.9070 C.3   192  MET192      0.0692
    135  N         47.0890   46.5080    7.1250 N.3   216  TYR216     -0.1241
    136  CA        46.2010   45.8320    6.1900 C.3   216  TYR216      0.1605
    137  C         45.8940   46.7900    5.0450 C.2   216  TYR216      0.2264
    138  O         45.6470   47.9770    5.2790 O.2   216  TYR216     -0.2867
    139  CB        44.8840   45.3940    6.8360 C.3   216  TYR216      0.0534
    140  CG        44.9860   44.4110    7.9810 C.ar  216  TYR216     -0.0201
    141  CD1       45.8360   43.3080    7.9180 C.ar  216  TYR216     -0.0009
    142  CD2       44.1660   44.5430    9.1080 C.ar  216  TYR216     -0.0009
    143  CE1       45.9040   42.4010    8.9680 C.ar  216  TYR216      0.0417
    144  CE2       44.2310   43.6410   10.1600 C.ar  216  TYR216      0.0417
    145  CZ        45.1000   42.5760   10.0840 C.ar  216  TYR216      0.1957
    146  OH        45.1650   41.6820   11.1150 O.3   216  TYR216     -0.2866
@<TRIPOS>BOND
     1    66    65    2
     2    65    64    1
     3    64    63    1
     4    64    67    1
     5    67    68    1
     6    68    69    1
     7    59    58    2
     8    48    46    1
     9    25    24    2
    10    69    70    1
    11    58    57    1
    12    70    71    2
    13    24    23    1
    14    46    47    1
    15    46    45    1
    16    61    60    1
    17    56    57    1
    18    57    60    1
    19    71    73    1
    20    71    72    1
    21    45    42    1
    22    23    22    1
    23    23    26    1
    24    60    62    1
    25    52    51    2
    26    44    43    2
    27    26    27    1
    28    42    43    1
    29    42    41    1
    30    51    50    1
    31    43    49   am
    32    41    36   am
    33    49    50    1
    34   137   138    2
    35   137   136    1
    36    29    27   ar
    37    29    31   ar
    38    27    28   ar
    39    50    53    1
    40    34    40    1
    41    34    35    1
    42    36    35    1
    43    36    37    2
    44    31    32   ar
    45   136   139    1
    46   136   135    1
    47    28    30   ar
    48    53    55    1
    49    53    54    1
    50    40    39    1
    51    35    38    1
    52   139   140    1
    53    32    30   ar
    54    32    33    1
    55    39    38    1
    56    13    12    2
    57   141   140   ar
    58   141   143   ar
    59   140   142   ar
    60    12    11    1
    61     1     2    1
    62    14    11    1
    63    14    15    1
    64   143   145   ar
    65   142   144   ar
    66     5     2    1
    67     5     6    1
    68    11    10    1
    69    16    15   ar
    70    16    18   ar
    71    15    17   ar
    72     8     7   ar
    73     2     3    1
    74    90    87    1
    75    90    91    1
    76    83    82    1
    77    83    84    1
    78   145   144   ar
    79   145   146    1
    80     4     3    2
    81    86    87    1
    82    86    84   am
    83     6     7    1
    84    18    20   ar
    85    87    88    1
    86    17    19   ar
    87    84    85    2
    88     7     9   ar
    89    20    19   ar
    90    20    21    1
    91    88    89    2
    92   119   117   ar
    93    80    79    1
    94   126   124    1
    95   125   124    1
    96   117   116    1
    97   117   118   ar
    98   116   115    1
    99    98    96    1
   100   124   121    1
   101   115   112    1
   102    79    78    1
   103    79    81    1
   104   134   133    1
   105    78    75    1
   106    96    93    1
   107    96    97    1
   108   104   103    1
   109    77    76    2
   110    93    92    1
   111    93    94    1
   112    76    75    1
   113   112   111    1
   114   112   113    1
   115   121   120    1
   116   121   122    1
   117    75    74    1
   118    99    94   am
   119    99   100    1
   120   127   122   am
   121   127   128    1
   122   131   128    1
   123   131   132    1
   124   133   132    1
   125   103   100    1
   126   103   105    1
   127   122   123    2
   128    94    95    2
   129   113   114    2
   130   128   129    1
   131   100   101    1
   132   106   101   am
   133   106   107    1
   134   101   102    2
   135   110   107    1
   136   129   130    2
   137   107   108    1
   138   108   109    2
