@<TRIPOS>MOLECULE
tmp/3ua9A00.pdb
 154 155 0 0 0
SMALL
GASTEIGER

@<TRIPOS>ATOM
      1  N          8.9650   -6.3840   18.0740 N.3    80  HIS80      -0.1226
      2  CA         8.4680   -6.6600   16.7470 C.3    80  HIS80       0.1752
      3  C          9.6280   -6.9880   15.8480 C.2    80  HIS80       0.2597
      4  O         10.6150   -6.2030   15.7580 O.2    80  HIS80      -0.2718
      5  CB         7.7350   -5.4430   16.1560 C.3    80  HIS80       0.0759
      6  CG         7.4540   -5.5940   14.7030 C.ar   80  HIS80       0.0818
      7  ND1        6.2880   -6.1510   14.2260 N.ar   80  HIS80      -0.2268
      8  CD2        8.2410   -5.3720   13.6190 C.ar   80  HIS80       0.1154
      9  CE1        6.3680   -6.2510   12.9070 C.ar   80  HIS80       0.1986
     10  NE2        7.5300   -5.7560   12.5140 N.ar   80  HIS80      -0.2212
     11  N          9.5210   -8.1310   15.1750 N.am   81  GLY81      -0.1942
     12  CA        10.4620   -8.5240   14.1630 C.3    81  GLY81       0.2014
     13  C          9.8080   -8.7010   12.8120 C.2    81  GLY81       0.2640
     14  O          8.7490   -9.3230   12.7150 O.2    81  GLY81      -0.2714
     15  N         10.4340   -8.1670   11.7620 N.am   82  SER82      -0.1936
     16  CA         9.9850   -8.4150   10.3750 C.3    82  SER82       0.2040
     17  C         11.1130   -8.0030    9.4310 C.2    82  SER82       0.2485
     18  O         12.0360   -7.3300    9.8580 O.2    82  SER82      -0.2729
     19  CB         8.6950   -7.6450   10.0390 C.3    82  SER82       0.2129
     20  OG         8.9320   -6.2460    9.8360 O.3    82  SER82      -0.2179
     21  N         11.0470   -8.4100    8.1480 N.am   83  PRO83      -0.2715
     22  CA        12.0570   -7.9070    7.2020 C.3    83  PRO83       0.1536
     23  C         11.9500   -6.4110    6.8850 C.2    83  PRO83       0.2598
     24  O         12.8400   -5.8960    6.2280 O.2    83  PRO83      -0.2715
     25  CB        11.8140   -8.7440    5.9310 C.3    83  PRO83       0.0310
     26  CG        11.0420   -9.9410    6.3890 C.3    83  PRO83       0.0237
     27  CD        10.2210   -9.4800    7.5630 C.3    83  PRO83       0.0939
     28  N         10.9130   -5.7110    7.3580 N.am   84  PHE84      -0.1974
     29  CA        10.6220   -4.3340    6.8940 C.3    84  PHE84       0.1639
     30  C         10.8260   -3.2570    7.9680 C.2    84  PHE84       0.2290
     31  O         10.2880   -2.1550    7.8820 O.2    84  PHE84      -0.2864
     32  CB         9.1920   -4.2940    6.3650 C.3    84  PHE84       0.0560
     33  CG         8.8660   -5.4610    5.4670 C.ar   84  PHE84      -0.0200
     34  CD1        9.3790   -5.5170    4.1780 C.ar   84  PHE84      -0.0042
     35  CD2        8.1120   -6.5350    5.9360 C.ar   84  PHE84      -0.0042
     36  CE1        9.1060   -6.6110    3.3520 C.ar   84  PHE84      -0.0003
     37  CE2        7.8360   -7.6370    5.1150 C.ar   84  PHE84      -0.0003
     38  CZ         8.3320   -7.6760    3.8350 C.ar   84  PHE84      -0.0000
     39  N         11.6590    0.2130    6.6980 N.3    87  ALA87      -0.1231
     40  CA        10.4560    0.9360    6.2330 C.3    87  ALA87       0.1694
     41  C          9.6180    1.4490    7.3940 C.2    87  ALA87       0.2591
     42  O          9.1380    2.6170    7.3840 O.2    87  ALA87      -0.2718
     43  CB         9.5800    0.0290    5.3640 C.3    87  ALA87       0.0304
     44  N          9.4380    0.5860    8.3950 N.am   88  ILE88      -0.1980
     45  CA         8.6070    0.9310    9.5520 C.3    88  ILE88       0.1595
     46  C          9.0820    2.1690   10.3240 C.2    88  ILE88       0.2287
     47  O          8.2560    3.0030   10.7250 O.2    88  ILE88      -0.2864
     48  CB         8.4710   -0.2460   10.5410 C.3    88  ILE88       0.0276
     49  CG1        7.6880   -1.3780    9.8900 C.3    88  ILE88       0.0022
     50  CG2        7.7370    0.1870   11.8380 C.3    88  ILE88       0.0022
     51  CD1        7.9050   -2.7290   10.5770 C.3    88  ILE88       0.0001
     52  N          8.1100    5.3160    8.1060 N.3    91  LYS91      -0.1231
     53  CA         6.7450    5.5120    7.6400 C.3    91  LYS91       0.1693
     54  C          5.6860    5.0580    8.6500 C.2    91  LYS91       0.2593
     55  O          4.5170    5.3140    8.4430 O.2    91  LYS91      -0.2718
     56  CB         6.5380    4.7710    6.3060 C.3    91  LYS91       0.0285
     57  CG         7.5080    5.2100    5.1790 C.3    91  LYS91       0.0035
     58  CD         7.1810    4.5050    3.8250 C.3    91  LYS91       0.0206
     59  CE         8.3600    4.5060    2.8020 C.3    91  LYS91       0.1093
     60  NZ         8.9900    3.1320    2.5180 N.3    91  LYS91      -0.1314
     61  N          6.1140    4.4000    9.7360 N.am   92  GLY92      -0.1942
     62  CA         5.2210    3.8640   10.7480 C.3    92  GLY92       0.2014
     63  C          4.6990    2.5160   10.3260 C.2    92  GLY92       0.2639
     64  O          4.7970    2.1210    9.1600 O.2    92  GLY92      -0.2714
     65  N          4.1650    1.7840   11.2860 N.am   93  PHE93      -0.1959
     66  CA         3.4810    0.5330   11.0010 C.3    93  PHE93       0.1771
     67  C          2.2990    0.7430   10.0540 C.2    93  PHE93       0.2619
     68  O          1.6210    1.7550   10.1320 O.2    93  PHE93      -0.2715
     69  CB         3.0070   -0.0870   12.3090 C.3    93  PHE93       0.0574
     70  CG         4.1140   -0.6700   13.1200 C.ar   93  PHE93      -0.0200
     71  CD1        4.7010   -1.8600   12.7380 C.ar   93  PHE93      -0.0042
     72  CD2        4.5790   -0.0410   14.2230 C.ar   93  PHE93      -0.0042
     73  CE1        5.6990   -2.4120   13.4700 C.ar   93  PHE93      -0.0003
     74  CE2        5.5770   -0.6010   14.9600 C.ar   93  PHE93      -0.0003
     75  CZ         6.1390   -1.7890   14.5670 C.ar   93  PHE93      -0.0000
     76  N          2.0570   -0.2240    9.1800 N.am   94  ASP94      -0.1971
     77  CA         0.9310   -0.1440    8.2490 C.3    94  ASP94       0.1709
     78  C          0.2520   -1.4820    8.0430 C.2    94  ASP94       0.2293
     79  O          0.8590   -2.4270    7.5220 O.2    94  ASP94      -0.2864
     80  CB         1.3990    0.3830    6.9050 C.3    94  ASP94       0.1436
     81  CG         0.2380    0.7780    6.0060 C.2    94  ASP94       0.3671
     82  OD1       -0.8960    0.2670    6.2130 O.co2  94  ASP94      -0.2456
     83  OD2        0.4730    1.6210    5.1180 O.co2  94  ASP94      -0.2456
     84  N          0.1880   -3.3860    4.7370 N.3    97  HIS97      -0.1226
     85  CA         1.3150   -4.2710    4.3760 C.3    97  HIS97       0.1752
     86  C          1.3220   -5.5880    5.1620 C.2    97  HIS97       0.2596
     87  O          2.2740   -6.3650    5.0670 O.2    97  HIS97      -0.2718
     88  CB         2.6640   -3.5420    4.5270 C.3    97  HIS97       0.0759
     89  CG         2.9150   -2.5120    3.4650 C.ar   97  HIS97       0.0818
     90  ND1        2.7430   -1.1580    3.6790 N.ar   97  HIS97      -0.2268
     91  CD2        3.3090   -2.6380    2.1740 C.ar   97  HIS97       0.1154
     92  CE1        3.0190   -0.4940    2.5690 C.ar   97  HIS97       0.1986
     93  NE2        3.3680   -1.3690    1.6410 N.ar   97  HIS97      -0.2212
     94  N          0.2600   -5.8580    5.9210 N.am   98  ALA98      -0.1966
     95  CA         0.1920   -7.0840    6.7090 C.3    98  ALA98       0.1728
     96  C         -0.0270   -8.3090    5.8250 C.2    98  ALA98       0.2616
     97  O         -0.7340   -8.2510    4.8200 O.2    98  ALA98      -0.2715
     98  CB        -0.8930   -6.9890    7.7550 C.3    98  ALA98       0.0334
     99  N          0.5740   -9.4220    6.2350 N.am   99  TYR99      -0.1974
    100  CA         0.5520  -10.6790    5.4660 C.3    99  TYR99       0.1639
    101  C         -0.6510  -11.5680    5.8440 C.2    99  TYR99       0.2290
    102  O         -0.9840  -11.7050    7.0220 O.2    99  TYR99      -0.2864
    103  CB         1.8810  -11.4040    5.6890 C.3    99  TYR99       0.0560
    104  CG         1.9700  -12.7670    5.0840 C.ar   99  TYR99      -0.0198
    105  CD1        2.5550  -12.9580    3.8330 C.ar   99  TYR99      -0.0009
    106  CD2        1.4860  -13.8800    5.7650 C.ar   99  TYR99      -0.0009
    107  CE1        2.6370  -14.2290    3.2700 C.ar   99  TYR99       0.0417
    108  CE2        1.5640  -15.1460    5.2160 C.ar   99  TYR99       0.0417
    109  CZ         2.1400  -15.3180    3.9750 C.ar   99  TYR99       0.1957
    110  OH         2.2140  -16.5800    3.4380 O.3    99  TYR99      -0.2866
    111  N         -2.4470   -9.1770   10.5330 N.3   107  GLY107     -0.1210
    112  CA        -2.2740   -8.0950   11.4730 C.3   107  GLY107      0.1956
    113  C         -0.8100   -7.7800   11.6700 C.2   107  GLY107      0.2612
    114  O          0.0440   -8.3120   10.9550 O.2   107  GLY107     -0.2717
    115  N         -0.5490   -6.8760   12.6160 N.am  108  ILE108     -0.1965
    116  CA         0.7990   -6.4840   12.9920 C.3   108  ILE108      0.1727
    117  C          1.1050   -7.1830   14.3100 C.2   108  ILE108      0.2616
    118  O          0.4170   -6.9510   15.2880 O.2   108  ILE108     -0.2715
    119  CB         0.9070   -4.9850   13.1890 C.3   108  ILE108      0.0290
    120  CG1        0.3150   -4.2500   11.9670 C.3   108  ILE108      0.0022
    121  CG2        2.3910   -4.6120   13.4020 C.3   108  ILE108      0.0023
    122  CD1        0.2040   -2.7650   12.1270 C.3   108  ILE108      0.0001
    123  N          2.1190   -8.0290   14.3170 N.am  109  TYR109     -0.1974
    124  CA         2.4130   -8.9140   15.4220 C.3   109  TYR109      0.1639
    125  C          3.5180   -8.3880   16.3140 C.2   109  TYR109      0.2290
    126  O          4.5530   -7.9130   15.8390 O.2   109  TYR109     -0.2864
    127  CB         2.8620  -10.2850   14.9150 C.3   109  TYR109      0.0560
    128  CG         1.7850  -11.1680   14.3100 C.ar  109  TYR109     -0.0198
    129  CD1        1.7760  -12.5260   14.5680 C.ar  109  TYR109     -0.0009
    130  CD2        0.8260  -10.6620   13.4560 C.ar  109  TYR109     -0.0009
    131  CE1        0.8310  -13.3710   13.9960 C.ar  109  TYR109      0.0417
    132  CE2       -0.1480  -11.4960   12.8800 C.ar  109  TYR109      0.0417
    133  CZ        -0.1410  -12.8490   13.1630 C.ar  109  TYR109      0.1957
    134  OH        -1.0650  -13.6960   12.6070 O.3   109  TYR109     -0.2866
    135  N         11.1620  -13.9590   13.0780 N.3   120  TYR120     -0.1241
    136  CA        10.5600  -13.3110   11.9020 C.3   120  TYR120      0.1605
    137  C         11.4590  -12.3100   11.1830 C.2   120  TYR120      0.2264
    138  O         11.0480  -11.7540   10.1690 O.2   120  TYR120     -0.2867
    139  CB         9.3000  -12.5620   12.3080 C.3   120  TYR120      0.0534
    140  CG         8.1820  -13.4100   12.8900 C.ar  120  TYR120     -0.0201
    141  CD1        7.6700  -14.5150   12.2070 C.ar  120  TYR120     -0.0009
    142  CD2        7.5870  -13.0520   14.0900 C.ar  120  TYR120     -0.0009
    143  CE1        6.5980  -15.2740   12.7500 C.ar  120  TYR120      0.0417
    144  CE2        6.5420  -13.7850   14.6260 C.ar  120  TYR120      0.0417
    145  CZ         6.0550  -14.8950   13.9570 C.ar  120  TYR120      0.1957
    146  OH         5.0040  -15.5720   14.5240 O.3   120  TYR120     -0.2866
    147  N          8.6610  -15.1500    7.5380 N.3   124  ILE124     -0.1245
    148  CA         7.9500  -16.2300    8.2340 C.3   124  ILE124      0.1561
    149  C          8.8370  -17.4520    8.2630 C.2   124  ILE124      0.2260
    150  O          9.5710  -17.6910    7.3160 O.2   124  ILE124     -0.2867
    151  CB         6.6170  -16.6880    7.5320 C.3   124  ILE124      0.0252
    152  CG1        6.1740  -15.7410    6.4050 C.3   124  ILE124      0.0019
    153  CG2        5.4930  -16.8720    8.5810 C.3   124  ILE124      0.0019
    154  CD1        5.7090  -14.3910    6.8820 C.3   124  ILE124      0.0001
@<TRIPOS>BOND
     1    93    91   ar
     2    93    92   ar
     3    91    89   ar
     4    60    59    1
     5    92    90   ar
     6    59    58    1
     7   107   105   ar
     8   107   109   ar
     9    36    38   ar
    10    36    34   ar
    11   110   109    1
    12    89    90   ar
    13    89    88    1
    14    58    57    1
    15   105   104   ar
    16    38    37   ar
    17   109   108   ar
    18    34    33   ar
    19    85    88    1
    20    85    84    1
    21    85    86    1
    22    97    96    2
    23    87    86    2
    24   104   103    1
    25   104   106   ar
    26    37    35   ar
    27    83    81   ar
    28    86    94   am
    29    57    56    1
    30   108   106   ar
    31    43    40    1
    32   100   103    1
    33   100   101    1
    34   100    99    1
    35    33    35   ar
    36    33    32    1
    37    96    99   am
    38    96    95    1
    39   101   102    2
    40    94    95    1
    41    25    26    1
    42    25    22    1
    43    81    82   ar
    44    81    80    1
    45    24    23    2
    46    40    39    1
    47    40    41    1
    48    56    53    1
    49    32    29    1
    50    26    27    1
    51   152   154    1
    52   152   151    1
    53    95    98    1
    54    23    22    1
    55    23    28   am
    56    29    28    1
    57    29    30    1
    58    80    77    1
    59    22    21    1
    60   150   149    2
    61    42    41    2
    62    41    44   am
    63    79    78    2
    64   151   148    1
    65   151   153    1
    66   147   148    1
    67    27    21    1
    68    53    52    1
    69    53    54    1
    70    31    30    2
    71    78    77    1
    72    21    17   am
    73   148   149    1
    74    77    76    1
    75    44    45    1
    76    55    54    2
    77    54    61   am
    78    64    63    2
    79    76    67   am
    80    17    18    2
    81    17    16    1
    82    45    46    1
    83    45    48    1
    84    61    62    1
    85    20    19    1
    86    49    48    1
    87    49    51    1
    88    19    16    1
    89    67    68    2
    90    67    66    1
    91   138   137    2
    92    46    47    2
    93    63    62    1
    94    63    65   am
    95    16    15    1
    96   111   112    1
    97    48    50    1
    98   114   113    2
    99    66    65    1
   100    66    69    1
   101   137   136    1
   102   112   113    1
   103   113   115   am
   104    15    13   am
   105   136   139    1
   106   136   135    1
   107   120   122    1
   108   120   119    1
   109   141   143   ar
   110   141   140   ar
   111   139   140    1
   112    69    70    1
   113    10     9   ar
   114    10     8   ar
   115   134   133    1
   116   115   116    1
   117    14    13    2
   118    71    70   ar
   119    71    73   ar
   120   143   145   ar
   121    13    12    1
   122   132   133   ar
   123   132   130   ar
   124   140   142   ar
   125     9     7   ar
   126   116   119    1
   127   116   117    1
   128    70    72   ar
   129   133   131   ar
   130   119   121    1
   131   130   128   ar
   132    73    75   ar
   133     8     6   ar
   134   145   146    1
   135   145   144   ar
   136   131   129   ar
   137   142   144   ar
   138    12    11    1
   139    72    74   ar
   140     7     6   ar
   141   128   129   ar
   142   128   127    1
   143   117   123   am
   144   117   118    2
   145   123   124    1
   146    75    74   ar
   147     6     5    1
   148   127   124    1
   149    11     3   am
   150   124   125    1
   151     4     3    2
   152   126   125    2
   153     3     2    1
   154     5     2    1
   155     2     1    1
