@<TRIPOS>MOLECULE
tmp/3uagA01.pdb
 169 161 0 0 0
SMALL
GASTEIGER

@<TRIPOS>ATOM
      1  N         38.3080  -14.3210   19.9830 N.3   112  SER112     -0.1202
      2  CA        37.9600  -13.6970   18.7160 C.3   112  SER112      0.2020
      3  C         36.8230  -12.6880   18.8770 C.2   112  SER112      0.2619
      4  O         36.8390  -11.6390   18.2270 O.2   112  SER112     -0.2717
      5  CB        37.5950  -14.7670   17.6960 C.3   112  SER112      0.2103
      6  OG        38.7160  -15.6110   17.4690 O.3   112  SER112     -0.2182
      7  N         35.9000  -12.9640   19.8070 N.am  113  ASN113     -0.1960
      8  CA        34.7300  -12.1110   20.0660 C.3   113  ASN113      0.1819
      9  C         34.3400  -12.1400   21.5380 C.2   113  ASN113      0.2622
     10  O         34.5310  -13.1600   22.2050 O.2   113  ASN113     -0.2715
     11  CB        33.5360  -12.5850   19.2400 C.3   113  ASN113      0.1195
     12  CG        33.7070  -12.2880   17.7710 C.2   113  ASN113      0.2630
     13  OD1       33.9130  -11.1200   17.3960 O.2   113  ASN113     -0.2716
     14  ND2       33.7640  -13.3410   16.9380 N.am  113  ASN113     -0.0877
     15  N         33.7400  -11.0470   22.0050 N.am  114  GLY114     -0.1940
     16  CA        33.2350  -10.9650   23.3630 C.3   114  GLY114      0.2014
     17  C         34.2040  -10.3490   24.3390 C.2   114  GLY114      0.2639
     18  O         33.8470  -10.1450   25.4930 O.2   114  GLY114     -0.2714
     19  N         35.4400  -10.0660   23.9130 N.am  115  LYS115     -0.1963
     20  CA        36.4660   -9.5900   24.8650 C.3   115  LYS115      0.1728
     21  C         36.0430   -8.2900   25.6180 C.2   115  LYS115      0.2617
     22  O         36.1730   -8.2200   26.8480 O.2   115  LYS115     -0.2715
     23  CB        37.8290   -9.3350   24.1810 C.3   115  LYS115      0.0311
     24  CG        38.4540  -10.5000   23.4170 C.3   115  LYS115      0.0038
     25  CD        39.8410  -10.0930   22.8070 C.3   115  LYS115      0.0206
     26  CE        39.7300   -9.1410   21.6310 C.3   115  LYS115      0.1093
     27  NZ        38.9590   -9.7620   20.5320 N.3   115  LYS115     -0.1314
     28  N         35.5460   -7.2720   24.9060 N.am  116  SER116     -0.1936
     29  CA        35.2310   -5.9990   25.5770 C.3   116  SER116      0.2055
     30  C         34.0680   -6.2090   26.5200 C.2   116  SER116      0.2643
     31  O         34.0240   -5.6200   27.5960 O.2   116  SER116     -0.2714
     32  CB        34.8460   -4.9090   24.5890 C.3   116  SER116      0.2130
     33  OG        35.9010   -4.5950   23.7000 O.3   116  SER116     -0.2179
     34  N         33.0980   -7.0090   26.0920 N.am  117  THR117     -0.1950
     35  CA        31.9480   -7.3140   26.9340 C.3   117  THR117      0.1897
     36  C         32.3750   -8.0020   28.2380 C.2   117  THR117      0.2313
     37  O         32.0350   -7.5340   29.3310 O.2   117  THR117     -0.2863
     38  CB        30.9350   -8.1680   26.1570 C.3   117  THR117      0.1794
     39  OG1       30.4810   -7.4130   25.0300 O.3   117  THR117     -0.2208
     40  CG2       29.7160   -8.5050   27.0130 C.3   117  THR117      0.0378
     41  N         41.6250   -6.2820   28.5070 N.3   157  GLU157     -0.1245
     42  CA        41.3170   -6.8800   27.2050 C.3   157  GLU157      0.1567
     43  C         42.5950   -6.9650   26.3700 C.2   157  GLU157      0.2260
     44  O         43.2520   -5.9440   26.1330 O.2   157  GLU157     -0.2867
     45  CB        40.2820   -6.0590   26.4340 C.3   157  GLU157      0.0388
     46  CG        40.0850   -6.6330   25.0040 C.3   157  GLU157      0.1160
     47  CD        39.0420   -5.8860   24.2000 C.2   157  GLU157      0.3649
     48  OE1       38.1620   -5.2570   24.8140 O.co2 157  GLU157     -0.2457
     49  OE2       39.0720   -5.9680   22.9480 O.co2 157  GLU157     -0.2457
     50  N         38.1110  -16.6790   25.0570 N.3   177  LEU177     -0.1231
     51  CA        36.6610  -16.8750   25.0630 C.3   177  LEU177      0.1693
     52  C         36.2370  -17.7920   23.9210 C.2   177  LEU177      0.2592
     53  O         35.2750  -18.5730   24.0340 O.2   177  LEU177     -0.2718
     54  CB        35.9470  -15.5140   24.9650 C.3   177  LEU177      0.0284
     55  CG        36.1140  -14.5130   26.1380 C.3   177  LEU177      0.0019
     56  CD1       35.4930  -13.1850   25.7560 C.3   177  LEU177      0.0001
     57  CD2       35.4700  -15.0700   27.4380 C.3   177  LEU177      0.0001
     58  N         36.9660  -17.6970   22.8120 N.am  178  ASN178     -0.1974
     59  CA        36.6450  -18.4530   21.5990 C.3   178  ASN178      0.1688
     60  C         37.7210  -18.1590   20.5610 C.2   178  ASN178      0.2292
     61  O         38.4440  -17.1700   20.6710 O.2   178  ASN178     -0.2864
     62  CB        35.2390  -18.0790   21.0650 C.3   178  ASN178      0.1181
     63  CG        35.0150  -16.5820   20.9690 C.2   178  ASN178      0.2629
     64  OD1       35.6370  -15.9220   20.1730 O.2   178  ASN178     -0.2716
     65  ND2       34.1970  -16.0370   21.8410 N.am  178  ASN178     -0.0877
     66  N         25.2860  -16.0850   23.5320 N.3   259  HIS259     -0.1226
     67  CA        26.6950  -15.7620   23.6710 C.3   259  HIS259      0.1752
     68  C         26.9150  -14.7550   24.7840 C.2   259  HIS259      0.2596
     69  O         27.9990  -14.7260   25.3820 O.2   259  HIS259     -0.2718
     70  CB        27.2690  -15.2350   22.3500 C.3   259  HIS259      0.0759
     71  CG        26.5010  -14.1030   21.7640 C.ar  259  HIS259      0.0818
     72  ND1       25.2920  -14.2970   21.1370 N.ar  259  HIS259     -0.2268
     73  CD2       26.7690  -12.7710   21.8070 C.ar  259  HIS259      0.1154
     74  CE1       24.8460  -13.0940   20.8330 C.ar  259  HIS259      0.1986
     75  NE2       25.7110  -12.1400   21.2080 N.ar  259  HIS259     -0.2212
     76  N         25.9000  -13.9390   25.0900 N.am  260  ASN260     -0.1974
     77  CA        26.0440  -12.9850   26.1870 C.3   260  ASN260      0.1688
     78  C         25.8180  -13.6530   27.5320 C.2   260  ASN260      0.2292
     79  O         26.4510  -13.2780   28.5230 O.2   260  ASN260     -0.2864
     80  CB        25.1250  -11.7750   26.0100 C.3   260  ASN260      0.1181
     81  CG        25.6990  -10.7600   25.0490 C.2   260  ASN260      0.2629
     82  OD1       26.9070  -10.5120   25.0240 O.2   260  ASN260     -0.2716
     83  ND2       24.8510  -10.1850   24.2410 N.am  260  ASN260     -0.0877
     84  N         26.8670  -16.8600   27.9730 N.3   262  THR262     -0.1203
     85  CA        28.1780  -17.4760   28.2050 C.3   262  THR262      0.1994
     86  C         29.2840  -16.4400   28.4730 C.2   262  THR262      0.2617
     87  O         30.1980  -16.7150   29.2430 O.2   262  THR262     -0.2717
     88  CB        28.5940  -18.4690   27.0690 C.3   262  THR262      0.1784
     89  OG1       28.6460  -17.7940   25.8070 O.3   262  THR262     -0.2211
     90  CG2       27.5780  -19.6320   26.9750 C.3   262  THR262      0.0376
     91  N         29.1300  -15.2090   27.9680 N.am  263  ASN263     -0.1974
     92  CA        30.0530  -14.1310   28.3600 C.3   263  ASN263      0.1688
     93  C         29.9220  -13.8540   29.8610 C.2   263  ASN263      0.2292
     94  O         30.9230  -13.6060   30.5460 O.2   263  ASN263     -0.2864
     95  CB        29.7860  -12.8160   27.6180 C.3   263  ASN263      0.1181
     96  CG        30.2710  -12.8320   26.1660 C.2   263  ASN263      0.2629
     97  OD1       31.0570  -13.6910   25.7420 O.2   263  ASN263     -0.2716
     98  ND2       29.7550  -11.8970   25.3850 N.am  263  ASN263     -0.0877
     99  N         27.9810   -2.5960   20.1690 N.3   294  ARG294     -0.1231
    100  CA        27.8540   -4.0700   20.2380 C.3   294  ARG294      0.1694
    101  C         26.3680   -4.3980   20.2130 C.2   294  ARG294      0.2592
    102  O         25.6970   -4.2610   21.2390 O.2   294  ARG294     -0.2718
    103  CB        28.4720   -4.6410   21.5370 C.3   294  ARG294      0.0321
    104  CG        30.0010   -4.7080   21.5900 C.3   294  ARG294      0.0489
    105  CD        30.6270   -3.3220   21.7260 C.3   294  ARG294      0.2205
    106  NE        32.0680   -3.4130   21.9470 N.pl3 294  ARG294     -0.0865
    107  CZ        32.8660   -2.3720   22.1810 C.cat 294  ARG294      0.5346
    108  NH1       32.3610   -1.1370   22.2160 N.pl3 294  ARG294      0.1354
    109  NH2       34.1650   -2.5710   22.4350 N.pl3 294  ARG294      0.1354
    110  N         25.8670   -4.8170   19.0510 N.am  295  PHE295     -0.1976
    111  CA        24.4230   -4.9850   18.8120 C.3   295  PHE295      0.1639
    112  C         23.5630   -3.9940   19.6260 C.2   295  PHE295      0.2290
    113  O         22.7340   -4.3710   20.4770 O.2   295  PHE295     -0.2864
    114  CB        24.0050   -6.4310   19.0970 C.3   295  PHE295      0.0560
    115  CG        22.8300   -6.9030   18.2670 C.ar  295  PHE295     -0.0200
    116  CD1       23.0360   -7.5080   17.0290 C.ar  295  PHE295     -0.0042
    117  CD2       21.5180   -6.7460   18.7320 C.ar  295  PHE295     -0.0042
    118  CE1       21.9630   -7.9490   16.2630 C.ar  295  PHE295     -0.0003
    119  CE2       20.4170   -7.1930   17.9730 C.ar  295  PHE295     -0.0003
    120  CZ        20.6470   -7.7990   16.7340 C.ar  295  PHE295     -0.0000
    121  N         25.8110   -2.5680   15.1910 N.3   309  ASP309     -0.1239
    122  CA        26.6890   -3.6480   15.6000 C.3   309  ASP309      0.1674
    123  C         28.0220   -3.4110   14.8920 C.2   309  ASP309      0.2266
    124  O         28.6490   -4.3450   14.4020 O.2   309  ASP309     -0.2867
    125  CB        26.0780   -5.0040   15.2060 C.3   309  ASP309      0.1410
    126  CG        26.6990   -6.1650   15.9340 C.2   309  ASP309      0.3668
    127  OD1       27.2590   -5.9540   17.0420 O.co2 309  ASP309     -0.2456
    128  OD2       26.5770   -7.3120   15.4210 O.co2 309  ASP309     -0.2456
    129  N         30.8700   -3.1510   16.0030 N.3   311  LYS311     -0.1231
    130  CA        31.9690   -3.9340   16.5550 C.3   311  LYS311      0.1693
    131  C         31.9200   -5.4030   16.1290 C.2   311  LYS311      0.2592
    132  O         32.7370   -6.2060   16.5970 O.2   311  LYS311     -0.2718
    133  CB        31.9700   -3.8620   18.0760 C.3   311  LYS311      0.0285
    134  CG        33.2750   -3.3960   18.6380 C.3   311  LYS311      0.0035
    135  CD        34.4510   -4.2330   18.1670 C.3   311  LYS311      0.0206
    136  CE        35.7420   -3.7730   18.8440 C.3   311  LYS311      0.1093
    137  NZ        36.7240   -4.8930   18.9590 N.3   311  LYS311     -0.1314
    138  N         30.9860   -5.7630   15.2450 N.am  312  ALA312     -0.1966
    139  CA        31.0500   -7.0680   14.5990 C.3   312  ALA312      0.1728
    140  C         32.0540   -6.9480   13.4510 C.2   312  ALA312      0.2616
    141  O         31.7240   -6.4750   12.3610 O.2   312  ALA312     -0.2715
    142  CB        29.6920   -7.4920   14.0720 C.3   312  ALA312      0.0334
    143  N         33.2880   -7.3690   13.7050 N.am  313  THR313     -0.1951
    144  CA        34.3480   -7.1220   12.7550 C.3   313  THR313      0.1897
    145  C         34.9070   -8.4220   12.1930 C.2   313  THR313      0.2313
    146  O         35.9900   -8.4270   11.6370 O.2   313  THR313     -0.2863
    147  CB        35.4820   -6.2840   13.4150 C.3   313  THR313      0.1794
    148  OG1       36.0840   -7.0460   14.4670 O.3   313  THR313     -0.2208
    149  CG2       34.9230   -4.9840   13.9830 C.3   313  THR313      0.0378
    150  N         32.4070  -14.4790   12.9420 N.3   316  GLY316     -0.1210
    151  CA        31.8100  -15.0260   14.1480 C.3   316  GLY316      0.1956
    152  C         30.8290  -14.0580   14.7890 C.2   316  GLY316      0.2612
    153  O         29.7810  -14.4760   15.2620 O.2   316  GLY316     -0.2717
    154  N         31.1630  -12.7750   14.8650 N.am  317  SER317     -0.1952
    155  CA        30.2770  -11.8420   15.5380 C.3   317  SER317      0.1924
    156  C         29.0150  -11.5550   14.7140 C.2   317  SER317      0.2314
    157  O         27.9180  -11.4470   15.2640 O.2   317  SER317     -0.2863
    158  CB        31.0100  -10.5420   15.8750 C.3   317  SER317      0.2116
    159  OG        31.9050  -10.1650   14.8640 O.3   317  SER317     -0.2180
    160  N         26.8100  -14.4580   15.1570 N.3   320  ALA320     -0.1231
    161  CA        26.1190  -14.3330   16.4320 C.3   320  ALA320      0.1694
    162  C         24.9390  -13.3560   16.3910 C.2   320  ALA320      0.2591
    163  O         23.9210  -13.5680   17.0550 O.2   320  ALA320     -0.2718
    164  CB        27.1090  -13.9380   17.5370 C.3   320  ALA320      0.0304
    165  N         25.0470  -12.3000   15.6030 N.am  321  ALA321     -0.1980
    166  CA        23.9030  -11.3970   15.4200 C.3   321  ALA321      0.1597
    167  C         22.7410  -12.0430   14.6470 C.2   321  ALA321      0.2287
    168  O         21.5910  -11.7580   14.9200 O.2   321  ALA321     -0.2864
    169  CB        24.3570  -10.1150   14.7080 C.3   321  ALA321      0.0319
@<TRIPOS>BOND
     1   146   145    2
     2   145   144    1
     3   141   140    2
     4   144   147    1
     5   144   143    1
     6   150   151    1
     7   147   149    1
     8   147   148    1
     9   140   143   am
    10   140   139    1
    11   142   139    1
    12   151   152    1
    13   124   123    2
    14   139   138    1
    15   167   168    2
    16   167   166    1
    17   169   166    1
    18   156   157    2
    19   156   155    1
    20   152   154   am
    21   152   153    2
    22   159   158    1
    23   154   155    1
    24   123   122    1
    25   160   161    1
    26   121   122    1
    27   125   122    1
    28   125   126    1
    29   138   131   am
    30   166   165    1
    31   128   126   ar
    32   155   158    1
    33   165   162   am
    34   126   127   ar
    35   129   130    1
    36   131   130    1
    37   131   132    2
    38   118   120   ar
    39   118   116   ar
    40   162   161    1
    41   162   163    2
    42   161   164    1
    43   130   133    1
    44   120   119   ar
    45    14    12   am
    46   116   115   ar
    47    13    12    2
    48     6     5    1
    49     5     2    1
    50    12    11    1
    51   119   117   ar
    52   133   134    1
    53   135   134    1
    54   135   136    1
    55     4     3    2
    56   115   117   ar
    57   115   114    1
    58     2     3    1
    59     2     1    1
    60   111   110    1
    61   111   114    1
    62   111   112    1
    63   136   137    1
    64     3     7   am
    65   110   101   am
    66    11     8    1
    67   112   113    2
    68     7     8    1
    69     8     9    1
    70    99   100    1
    71    64    63    2
    72   101   100    1
    73   101   102    2
    74   100   103    1
    75    27    26    1
    76    60    61    2
    77    60    59    1
    78    74    72   ar
    79    74    75   ar
    80    63    62    1
    81    63    65   am
    82    62    59    1
    83    72    71   ar
    84    75    73   ar
    85   103   104    1
    86     9    15   am
    87     9    10    2
    88   104   105    1
    89    59    58    1
    90    26    25    1
    91   105   106    1
    92    71    73   ar
    93    71    70    1
    94   106   107    2
    95    15    16    1
    96   107   108    1
    97   107   109    1
    98    70    67    1
    99    25    24    1
   100    58    52   am
   101    49    47   ar
   102    16    17    1
   103    24    23    1
   104    66    67    1
   105    67    68    1
   106    33    32    1
   107    19    17   am
   108    19    20    1
   109    52    53    2
   110    52    51    1
   111    23    20    1
   112    47    48   ar
   113    47    46    1
   114    83    81   am
   115    17    18    2
   116    32    29    1
   117    68    76   am
   118    68    69    2
   119    20    21    1
   120    28    29    1
   121    28    21   am
   122    54    51    1
   123    54    55    1
   124    46    45    1
   125    82    81    2
   126    39    38    1
   127    81    80    1
   128    50    51    1
   129    76    77    1
   130    98    96   am
   131    29    30    1
   132    21    22    2
   133    97    96    2
   134    56    55    1
   135    89    88    1
   136    80    77    1
   137    34    30   am
   138    34    35    1
   139    44    43    2
   140    55    57    1
   141    38    35    1
   142    38    40    1
   143    96    95    1
   144    77    78    1
   145    43    42    1
   146    45    42    1
   147    30    31    2
   148    35    36    1
   149    90    88    1
   150    88    85    1
   151    42    41    1
   152    78    79    2
   153    95    92    1
   154    91    92    1
   155    91    86   am
   156    84    85    1
   157    85    86    1
   158    36    37    2
   159    92    93    1
   160    86    87    2
   161    93    94    2
