@<TRIPOS>MOLECULE
tmp/3uarA00.pdb
 158 156 0 0 0
SMALL
GASTEIGER

@<TRIPOS>ATOM
      1  N         -0.2910   25.3320    1.3620 N.3    10  ALA10      -0.1231
      2  CA        -1.4380   25.9150    0.6800 C.3    10  ALA10       0.1694
      3  C         -2.3100   24.8420    0.0270 C.2    10  ALA10       0.2592
      4  O         -1.9420   23.6680   -0.0190 O.2    10  ALA10      -0.2718
      5  CB        -0.9680   26.9200   -0.3550 C.3    10  ALA10       0.0304
      6  N         -3.4690   25.2520   -0.4770 N.am   11  CYS11      -0.1970
      7  CA        -4.3600   24.3440   -1.1980 C.3    11  CYS11       0.1712
      8  C         -3.6430   23.6320   -2.3580 C.2    11  CYS11       0.2296
      9  O         -4.0960   22.5950   -2.8330 O.2    11  CYS11      -0.2864
     10  CB        -5.5990   25.0980   -1.7050 C.3    11  CYS11       0.0983
     11  SG        -5.2460   26.3920   -2.9280 S.3    11  CYS11      -0.0798
     12  N          3.7790   34.3830   -2.3600 N.3    33  LEU33      -0.1245
     13  CA         2.4440   34.9510   -2.4720 C.3    33  LEU33       0.1561
     14  C          2.4760   36.4170   -2.0930 C.2    33  LEU33       0.2260
     15  O          1.5350   37.1590   -2.3620 O.2    33  LEU33      -0.2867
     16  CB         1.4530   34.1960   -1.5870 C.3    33  LEU33       0.0270
     17  CG         1.2890   32.7020   -1.8740 C.3    33  LEU33       0.0019
     18  CD1        0.1460   32.1230   -1.0530 C.3    33  LEU33       0.0001
     19  CD2        1.0580   32.4660   -3.3570 C.3    33  LEU33       0.0001
     20  N          4.4740   37.7440   -5.5270 N.3    36  LYS36      -0.1245
     21  CA         4.0910   37.0550   -6.7520 C.3    36  LYS36       0.1561
     22  C          5.2970   36.8090   -7.6540 C.2    36  LYS36       0.2260
     23  O          5.2040   36.8940   -8.8820 O.2    36  LYS36      -0.2867
     24  CB         3.0270   37.8570   -7.4920 C.3    36  LYS36       0.0271
     25  CG         1.8590   38.2690   -6.6100 C.3    36  LYS36       0.0035
     26  CD         0.8650   37.1420   -6.4460 C.3    36  LYS36       0.0206
     27  CE        -0.4730   37.6470   -5.9170 C.3    36  LYS36       0.1093
     28  NZ        -0.5590   37.5050   -4.4380 N.3    36  LYS36      -0.1314
     29  N         -4.7630   35.6620  -12.2240 N.3    50  LYS50      -0.1231
     30  CA        -5.5720   35.7470  -10.9940 C.3    50  LYS50       0.1693
     31  C         -4.6760   35.8240   -9.7510 C.2    50  LYS50       0.2593
     32  O         -5.1210   36.1840   -8.6540 O.2    50  LYS50      -0.2718
     33  CB        -6.5340   34.5620  -10.8850 C.3    50  LYS50       0.0285
     34  CG        -7.2500   34.1880  -12.1760 C.3    50  LYS50       0.0035
     35  CD        -8.1190   32.9780  -11.9280 C.3    50  LYS50       0.0206
     36  CE        -8.1810   32.0770  -13.1300 C.3    50  LYS50       0.1093
     37  NZ        -8.8530   30.8100  -12.7550 N.3    50  LYS50      -0.1314
     38  N         -3.4100   35.4730   -9.9450 N.am   51  GLY51      -0.1942
     39  CA        -2.4000   35.6160   -8.9180 C.3    51  GLY51       0.2014
     40  C         -2.5680   34.7630   -7.6730 C.2    51  GLY51       0.2639
     41  O         -2.2810   35.2340   -6.5770 O.2    51  GLY51      -0.2714
     42  N         -3.0320   33.5210   -7.8210 N.am   52  TYR52      -0.1959
     43  CA        -3.0090   32.5630   -6.7030 C.3    52  TYR52       0.1771
     44  C         -2.4800   31.1820   -7.0890 C.2    52  TYR52       0.2619
     45  O         -2.3770   30.8570   -8.2770 O.2    52  TYR52      -0.2715
     46  CB        -4.3680   32.4510   -5.9970 C.3    52  TYR52       0.0574
     47  CG        -5.6080   32.3350   -6.8800 C.ar   52  TYR52      -0.0198
     48  CD1       -5.7880   31.2620   -7.7540 C.ar   52  TYR52      -0.0009
     49  CD2       -6.6300   33.2760   -6.7910 C.ar   52  TYR52      -0.0009
     50  CE1       -6.9390   31.1550   -8.5410 C.ar   52  TYR52       0.0417
     51  CE2       -7.7780   33.1760   -7.5670 C.ar   52  TYR52       0.0417
     52  CZ        -7.9310   32.1180   -8.4400 C.ar   52  TYR52       0.1957
     53  OH        -9.0800   32.0410   -9.2060 O.3    52  TYR52      -0.2866
     54  N         -2.1170   30.3850   -6.0830 N.am   53  VAL53      -0.1964
     55  CA        -1.7860   28.9720   -6.3000 C.3    53  VAL53       0.1712
     56  C         -2.9640   28.0960   -5.8660 C.2    53  VAL53       0.2458
     57  O         -3.7690   28.5100   -5.0340 O.2    53  VAL53      -0.2730
     58  CB        -0.5080   28.5310   -5.5470 C.3    53  VAL53       0.0289
     59  CG1        0.6760   29.3870   -5.9620 C.3    53  VAL53       0.0023
     60  CG2       -0.7300   28.5810   -4.0400 C.3    53  VAL53       0.0023
     61  N         -3.0640   26.8760   -6.4200 N.am   54  PRO54      -0.2727
     62  CA        -2.0800   26.2500   -7.2990 C.3    54  PRO54       0.1402
     63  C         -2.2380   26.6860   -8.7560 C.2    54  PRO54       0.2269
     64  O         -3.3240   27.0950   -9.1680 O.2    54  PRO54      -0.2865
     65  CB        -2.4520   24.7750   -7.1950 C.3    54  PRO54       0.0296
     66  CG        -3.9560   24.8190   -7.1290 C.3    54  PRO54       0.0237
     67  CD        -4.2790   26.0450   -6.2920 C.3    54  PRO54       0.0939
     68  N         -7.3650   26.7150  -10.5320 N.3    66  GLU66      -0.1231
     69  CA        -8.5610   26.2140   -9.8670 C.3    66  GLU66       0.1699
     70  C         -8.3290   24.7740   -9.3730 C.2    66  GLU66       0.2592
     71  O         -8.4410   23.7970  -10.1250 O.2    66  GLU66      -0.2718
     72  CB        -9.7600   26.2930  -10.8130 C.3    66  GLU66       0.0402
     73  CG       -10.8110   27.3500  -10.4740 C.3    66  GLU66       0.1161
     74  CD       -10.2390   28.6570   -9.9420 C.2    66  GLU66       0.3649
     75  OE1       -9.4910   29.3460  -10.6700 O.co2  66  GLU66      -0.2457
     76  OE2      -10.5660   29.0060   -8.7900 O.co2  66  GLU66      -0.2457
     77  N         -8.0040   24.6720   -8.0900 N.am   67  ASP67      -0.1960
     78  CA        -7.5820   23.4370   -7.4550 C.3    67  ASP67       0.1840
     79  C         -8.3980   22.2280   -7.8870 C.2    67  ASP67       0.2621
     80  O         -7.8470   21.1870   -8.2450 O.2    67  ASP67      -0.2715
     81  CB        -7.6720   23.6010   -5.9350 C.3    67  ASP67       0.1450
     82  CG        -6.4970   22.9790   -5.2080 C.2    67  ASP67       0.3671
     83  OD1       -5.6140   22.4130   -5.8850 O.co2  67  ASP67      -0.2456
     84  OD2       -6.4530   23.0600   -3.9620 O.co2  67  ASP67      -0.2456
     85  N         -9.7140   22.3640   -7.8420 N.am   68  GLN68      -0.1977
     86  CA       -10.5810   21.2280   -8.0710 C.3    68  GLN68       0.1601
     87  C        -10.6010   20.8340   -9.5330 C.2    68  GLN68       0.2287
     88  O        -10.9530   19.7060   -9.8680 O.2    68  GLN68      -0.2864
     89  CB       -11.9980   21.5540   -7.6370 C.3    68  GLN68       0.0394
     90  CG       -12.6240   22.6300   -8.4870 C.3    68  GLN68       0.0908
     91  CD       -14.1010   22.7500   -8.2370 C.2    68  GLN68       0.2608
     92  OE1      -14.6300   23.8530   -8.0650 O.2    68  GLN68      -0.2717
     93  NE2      -14.7830   21.6100   -8.1950 N.am   68  GLN68      -0.0878
     94  N        -14.6310   23.1370   -2.2350 N.3   103  SER103     -0.1217
     95  CA       -14.1940   24.4310   -2.7740 C.3   103  SER103      0.1889
     96  C        -14.9070   25.6680   -2.2340 C.2   103  SER103      0.2288
     97  O        -14.2680   26.6590   -1.8830 O.2   103  SER103     -0.2866
     98  CB       -14.3530   24.4330   -4.2880 C.3   103  SER103      0.2089
     99  OG       -13.2250   23.8310   -4.8900 O.3   103  SER103     -0.2183
    100  N        -13.1070   25.4910    1.7560 N.3   107  HIS107     -0.1226
    101  CA       -11.9030   26.2160    1.3840 C.3   107  HIS107      0.1752
    102  C        -12.1230   27.7220    1.5240 C.2   107  HIS107      0.2595
    103  O        -11.4090   28.3920    2.2680 O.2   107  HIS107     -0.2718
    104  CB       -11.4890   25.8410   -0.0440 C.3   107  HIS107      0.0759
    105  CG       -10.2260   26.4950   -0.5140 C.ar  107  HIS107      0.0818
    106  ND1       -9.7220   26.3050   -1.7840 N.ar  107  HIS107     -0.2268
    107  CD2       -9.3760   27.3490    0.1030 C.ar  107  HIS107      0.1154
    108  CE1       -8.6100   27.0030   -1.9250 C.ar  107  HIS107      0.1986
    109  NE2       -8.3800   27.6490   -0.7960 N.ar  107  HIS107     -0.2212
    110  N        -13.1180   28.2550    0.8260 N.am  108  LYS108     -0.1980
    111  CA       -13.3760   29.6890    0.8810 C.3   108  LYS108      0.1596
    112  C        -13.7230   30.1780    2.2940 C.2   108  LYS108      0.2287
    113  O        -13.3690   31.2960    2.6720 O.2   108  LYS108     -0.2864
    114  CB       -14.4490   30.1030   -0.1380 C.3   108  LYS108      0.0298
    115  CG       -13.8840   30.7850   -1.3990 C.3   108  LYS108      0.0038
    116  CD       -12.5930   30.1270   -1.8890 C.3   108  LYS108      0.0206
    117  CE       -11.3390   30.8720   -1.4250 C.3   108  LYS108      0.1093
    118  NZ       -10.7100   31.7000   -2.5020 N.3   108  LYS108     -0.1314
    119  N         -7.2870   34.0350    7.0390 N.3   114  TRP114     -0.1241
    120  CA        -6.0530   34.2330    6.2910 C.3   114  TRP114      0.1605
    121  C         -5.8230   35.6930    5.9280 C.2   114  TRP114      0.2264
    122  O         -4.8220   36.0310    5.2980 O.2   114  TRP114     -0.2867
    123  CB        -6.0360   33.3620    5.0400 C.3   114  TRP114      0.0550
    124  CG        -5.8070   31.9280    5.3470 C.ar  114  TRP114      0.0003
    125  CD1       -6.6840   30.9010    5.1670 C.ar  114  TRP114      0.0946
    126  CD2       -4.6220   31.3550    5.9090 C.ar  114  TRP114      0.0152
    127  NE1       -6.1130   29.7200    5.5720 N.ar  114  TRP114     -0.2442
    128  CE2       -4.8470   29.9720    6.0340 C.ar  114  TRP114      0.0810
    129  CE3       -3.3890   31.8780    6.3140 C.ar  114  TRP114      0.0012
    130  CZ2       -3.8880   29.1030    6.5480 C.ar  114  TRP114      0.0191
    131  CZ3       -2.4350   31.0130    6.8240 C.ar  114  TRP114      0.0001
    132  CH2       -2.6900   29.6410    6.9350 C.ar  114  TRP114      0.0015
    133  N         -7.9460   16.9970   -1.2390 N.3   159  TYR159     -0.1241
    134  CA        -8.4020   18.3730   -1.1630 C.3   159  TYR159      0.1605
    135  C         -8.9110   18.6480    0.2450 C.2   159  TYR159      0.2264
    136  O         -8.3780   19.4930    0.9610 O.2   159  TYR159     -0.2867
    137  CB        -9.5230   18.5820   -2.1820 C.3   159  TYR159      0.0534
    138  CG        -9.8470   20.0240   -2.4920 C.ar  159  TYR159     -0.0201
    139  CD1       -8.9720   21.0470   -2.1420 C.ar  159  TYR159     -0.0009
    140  CD2      -11.0160   20.3590   -3.1720 C.ar  159  TYR159     -0.0009
    141  CE1       -9.2590   22.3720   -2.4430 C.ar  159  TYR159      0.0417
    142  CE2      -11.3140   21.6740   -3.4780 C.ar  159  TYR159      0.0417
    143  CZ       -10.4290   22.6800   -3.1100 C.ar  159  TYR159      0.1957
    144  OH       -10.7190   23.9960   -3.4100 O.3   159  TYR159     -0.2866
    145  N         -5.3040   23.1160    7.8950 N.3   166  TRP166     -0.1241
    146  CA        -5.0850   24.4780    8.3680 C.3   166  TRP166      0.1605
    147  C         -5.5430   24.7490    9.8040 C.2   166  TRP166      0.2264
    148  O         -5.1530   25.7480   10.3970 O.2   166  TRP166     -0.2867
    149  CB        -5.7710   25.4760    7.4320 C.3   166  TRP166      0.0550
    150  CG        -5.2190   25.5100    6.0360 C.ar  166  TRP166      0.0003
    151  CD1       -3.9570   25.1710    5.6410 C.ar  166  TRP166      0.0946
    152  CD2       -5.9070   25.9500    4.8530 C.ar  166  TRP166      0.0152
    153  NE1       -3.8210   25.3530    4.2810 N.ar  166  TRP166     -0.2442
    154  CE2       -5.0030   25.8300    3.7750 C.ar  166  TRP166      0.0810
    155  CE3       -7.2020   26.4200    4.6000 C.ar  166  TRP166      0.0012
    156  CZ2       -5.3540   26.1680    2.4640 C.ar  166  TRP166      0.0191
    157  CZ3       -7.5500   26.7520    3.2950 C.ar  166  TRP166      0.0001
    158  CH2       -6.6300   26.6270    2.2470 C.ar  166  TRP166      0.0015
@<TRIPOS>BOND
     1    36    37    1
     2    36    35    1
     3    29    30    1
     4    34    35    1
     5    34    33    1
     6    30    33    1
     7    30    31    1
     8    72    73    1
     9    72    69    1
    10    75    74   ar
    11    68    69    1
    12    73    74    1
    13    71    70    2
    14    38    31   am
    15    38    39    1
    16    74    76   ar
    17    88    87    2
    18    69    70    1
    19    31    32    2
    20    87    86    1
    21    70    77   am
    22    53    52    1
    23    64    63    2
    24    39    40    1
    25    23    22    2
    26    63    62    1
    27    50    52   ar
    28    50    48   ar
    29    90    91    1
    30    90    89    1
    31    52    51   ar
    32    45    44    2
    33    80    79    2
    34    91    93   am
    35    91    92    2
    36    77    78    1
    37    86    85    1
    38    86    89    1
    39    79    85   am
    40    79    78    1
    41    42    40   am
    42    42    43    1
    43    48    47   ar
    44    40    41    2
    45    22    21    1
    46    51    49   ar
    47    24    21    1
    48    24    25    1
    49    78    81    1
    50    62    65    1
    51    62    61    1
    52    65    66    1
    53    66    67    1
    54    44    43    1
    55    44    54   am
    56    47    49   ar
    57    47    46    1
    58    21    20    1
    59    43    46    1
    60    25    26    1
    61    26    27    1
    62    61    67    1
    63    61    56   am
    64    55    54    1
    65    55    56    1
    66    55    58    1
    67    59    58    1
    68    81    82    1
    69    27    28    1
    70    83    82   ar
    71    56    57    2
    72    58    60    1
    73    82    84   ar
    74    99    98    1
    75    98    95    1
    76   142   140   ar
    77   142   143   ar
    78   144   143    1
    79    19    17    1
    80   140   138   ar
    81   143   141   ar
    82    11    10    1
    83     9     8    2
    84    95    94    1
    85    95    96    1
    86   118   117    1
    87   138   137    1
    88   138   139   ar
    89    13    12    1
    90    13    14    1
    91    13    16    1
    92   141   139   ar
    93    15    14    2
    94     8     7    1
    95    96    97    2
    96   137   134    1
    97   108   106   ar
    98   108   109   ar
    99   116   117    1
   100   116   115    1
   101    17    16    1
   102    17    18    1
   103   106   105   ar
   104    10     7    1
   105   115   114    1
   106   133   134    1
   107     7     6    1
   108   134   135    1
   109   109   107   ar
   110   105   104    1
   111   105   107   ar
   112     6     3   am
   113     5     2    1
   114   114   111    1
   115   104   101    1
   116     4     3    2
   117     3     2    1
   118   135   136    2
   119     2     1    1
   120   110   111    1
   121   110   102   am
   122   111   112    1
   123   101   102    1
   124   101   100    1
   125   102   103    2
   126   158   156   ar
   127   158   157   ar
   128   112   113    2
   129   156   154   ar
   130   157   155   ar
   131   154   153   ar
   132   154   152   ar
   133   153   151   ar
   134   155   152   ar
   135   152   150   ar
   136   123   124    1
   137   123   120    1
   138   125   124   ar
   139   125   127   ar
   140   122   121    2
   141   124   126   ar
   142   127   128   ar
   143   151   150   ar
   144   126   128   ar
   145   126   129   ar
   146   121   120    1
   147   128   130   ar
   148   150   149    1
   149   120   119    1
   150   129   131   ar
   151   130   132   ar
   152   131   132   ar
   153   149   146    1
   154   145   146    1
   155   146   147    1
   156   147   148    2
