@<TRIPOS>MOLECULE
tmp/3uasA02.pdb
 108 100 0 0 0
SMALL
GASTEIGER

@<TRIPOS>ATOM
      1  N        -13.2830   22.1010   11.3860 N.3    22  LYS22      -0.1197
      2  CA       -14.5690   22.7410   11.0850 C.3    22  LYS22       0.1778
      3  C        -14.8090   23.0260    9.5950 C.2    22  LYS22       0.2305
      4  O        -15.9510   23.2220    9.1810 O.2    22  LYS22      -0.2863
      5  CB       -14.7520   24.0160   11.9140 C.2    22  LYS22      -0.0042
      6  CG       -16.0430   24.7500   11.9090 C.2    22  LYS22      -0.0273
      7  CD       -16.1440   25.8820   12.9020 C.3    22  LYS22       0.0462
      8  CE       -17.4650   26.6600   12.6610 C.3    22  LYS22       0.1140
      9  NZ       -17.3220   27.6370   11.5700 N.3    22  LYS22      -0.1310
     10  N        -12.9550   27.0450    5.0690 N.3    25  LEU25      -0.1231
     11  CA       -13.0710   28.4440    5.4730 C.3    25  LEU25       0.1693
     12  C        -12.4310   28.6710    6.8370 C.2    25  LEU25       0.2591
     13  O        -11.6040   29.5660    6.9920 O.2    25  LEU25      -0.2718
     14  CB       -14.5350   28.9010    5.4900 C.3    25  LEU25       0.0284
     15  CG       -14.8330   30.2670    6.1260 C.3    25  LEU25       0.0019
     16  CD1      -14.2980   31.4160    5.2750 C.3    25  LEU25       0.0001
     17  CD2      -16.3170   30.4390    6.3740 C.3    25  LEU25       0.0001
     18  N        -12.8110   27.8480    7.8130 N.am   26  ARG26      -0.1980
     19  CA       -12.3150   27.9820    9.1840 C.3    26  ARG26       0.1597
     20  C        -10.8030   27.7540    9.2590 C.2    26  ARG26       0.2287
     21  O        -10.1290   28.3000   10.1320 O.2    26  ARG26      -0.2864
     22  CB       -13.0950   27.0530   10.1310 C.3    26  ARG26       0.0334
     23  CG       -12.6060   26.9600   11.5930 C.3    26  ARG26       0.0492
     24  CD       -12.4360   28.3050   12.2990 C.3    26  ARG26       0.2205
     25  NE       -13.6260   29.1520   12.2280 N.pl3  26  ARG26      -0.0865
     26  CZ       -13.6340   30.4600   12.4870 C.cat  26  ARG26       0.5346
     27  NH1      -12.5100   31.0840   12.8360 N.pl3  26  ARG26       0.1354
     28  NH2      -14.7670   31.1470   12.3930 N.pl3  26  ARG26       0.1354
     29  N         -9.2930   31.1150    7.5820 N.3    29  LEU29      -0.1245
     30  CA        -9.3880   32.2150    8.5410 C.3    29  LEU29       0.1561
     31  C         -8.4570   32.0570    9.7440 C.2    29  LEU29       0.2260
     32  O         -8.0210   33.0580   10.3180 O.2    29  LEU29      -0.2867
     33  CB       -10.8340   32.4100    9.0170 C.3    29  LEU29       0.0270
     34  CG       -11.8170   33.2010    8.1440 C.3    29  LEU29       0.0019
     35  CD1      -13.2370   33.0570    8.6740 C.3    29  LEU29       0.0001
     36  CD2      -11.4350   34.6730    8.0630 C.3    29  LEU29       0.0001
     37  N        -24.4600   39.4770    5.0350 N.3   328  LEU328     -0.1231
     38  CA       -24.4830   38.5940    6.2010 C.3   328  LEU328      0.1693
     39  C        -24.7050   37.1350    5.8160 C.2   328  LEU328      0.2593
     40  O        -24.2370   36.2310    6.5070 O.2   328  LEU328     -0.2718
     41  CB       -25.5590   39.0540    7.1960 C.3   328  LEU328      0.0284
     42  CG       -25.5010   38.5280    8.6350 C.3   328  LEU328      0.0019
     43  CD1      -24.3090   39.1150    9.3850 C.3   328  LEU328      0.0001
     44  CD2      -26.8060   38.8170    9.3770 C.3   328  LEU328      0.0001
     45  N        -25.4300   36.9190    4.7200 N.am  329  GLY329     -0.1942
     46  CA       -25.6650   35.5800    4.1800 C.3   329  GLY329      0.2014
     47  C        -24.3650   34.8930    3.8220 C.2   329  GLY329      0.2638
     48  O        -24.1240   33.7560    4.2300 O.2   329  GLY329     -0.2714
     49  N        -23.5310   35.5980    3.0600 N.am  330  ASP330     -0.1971
     50  CA       -22.1650   35.1730    2.7600 C.3   330  ASP330      0.1709
     51  C        -22.1650   33.7730    2.1530 C.2   330  ASP330      0.2293
     52  O        -21.5680   32.8370    2.6940 O.2   330  ASP330     -0.2864
     53  CB       -21.3120   35.2420    4.0320 C.3   330  ASP330      0.1436
     54  CG       -19.8450   34.9780    3.7750 C.2   330  ASP330      0.3671
     55  OD1      -19.3830   35.1450    2.6250 O.co2 330  ASP330     -0.2456
     56  OD2      -19.1570   34.6010    4.7420 O.co2 330  ASP330     -0.2456
     57  N        -18.2810   31.9060    0.7310 N.3   333  PRO333     -0.2116
     58  CA       -17.3820   32.4970    1.7350 C.3   333  PRO333      0.1372
     59  C        -15.9180   32.6150    1.3120 C.2   333  PRO333      0.2244
     60  O        -15.3340   33.6840    1.4700 O.2   333  PRO333     -0.2868
     61  CB       -17.5320   31.5630    2.9460 C.3   333  PRO333      0.0268
     62  CG       -18.7830   30.7840    2.6850 C.3   333  PRO333      0.0207
     63  CD       -18.8320   30.6250    1.2010 C.3   333  PRO333      0.0892
     64  N        -15.8280   36.1520    2.4510 N.3   362  SER362     -0.1217
     65  CA       -16.3100   36.2800    3.8200 C.3   362  SER362      0.1889
     66  C        -15.4680   37.2740    4.6050 C.2   362  SER362      0.2288
     67  O        -16.0040   38.1030    5.3430 O.2   362  SER362     -0.2866
     68  CB       -16.2810   34.9300    4.5240 C.3   362  SER362      0.2089
     69  OG       -16.7740   35.0540    5.8500 O.3   362  SER362     -0.2183
     70  N        -17.2760   40.6810    5.8840 N.3   366  HIS366     -0.1241
     71  CA       -17.2510   40.8690    7.3360 C.3   366  HIS366      0.1621
     72  C        -16.1090   41.7940    7.7790 C.2   366  HIS366      0.2264
     73  O        -15.7150   41.7870    8.9470 O.2   366  HIS366     -0.2867
     74  CB       -17.1550   39.5170    8.0500 C.3   366  HIS366      0.0745
     75  CG       -18.3800   38.6690    7.9040 C.ar  366  HIS366      0.0817
     76  ND1      -18.4390   37.5830    7.0560 N.ar  366  HIS366     -0.2268
     77  CD2      -19.5980   38.7530    8.4920 C.ar  366  HIS366      0.1154
     78  CE1      -19.6380   37.0330    7.1310 C.ar  366  HIS366      0.1986
     79  NE2      -20.3610   37.7240    7.9940 N.ar  366  HIS366     -0.2212
     80  N        -20.9090   41.0800   12.4330 N.3   375  ASN375     -0.1240
     81  CA       -21.6710   39.8720   12.7500 C.3   375  ASN375      0.1653
     82  C        -23.1450   40.1260   13.0540 C.2   375  ASN375      0.2266
     83  O        -23.9050   39.1850   13.2770 O.2   375  ASN375     -0.2867
     84  CB       -21.0260   39.1240   13.9220 C.3   375  ASN375      0.1155
     85  CG       -19.5230   38.9700   13.7670 C.2   375  ASN375      0.2627
     86  OD1      -19.0270   38.5570   12.7180 O.2   375  ASN375     -0.2716
     87  ND2      -18.7910   39.3020   14.8220 N.am  375  ASN375     -0.0877
     88  N        -25.5860   28.3740    9.6780 N.3   441  PRO441     -0.2116
     89  CA       -25.8290   27.5680    8.4770 C.3   441  PRO441      0.1372
     90  C        -25.7660   26.0690    8.7590 C.2   441  PRO441      0.2244
     91  O        -24.9630   25.6280    9.5860 O.2   441  PRO441     -0.2868
     92  CB       -24.6840   27.9720    7.5380 C.3   441  PRO441      0.0268
     93  CG       -24.2310   29.3020    8.0280 C.3   441  PRO441      0.0207
     94  CD       -24.4190   29.2620    9.5120 C.3   441  PRO441      0.0892
     95  N        -21.4530   24.4770    5.7580 N.3   444  SER444     -0.1217
     96  CA       -20.5450   25.5340    5.3470 C.3   444  SER444      0.1889
     97  C        -19.4290   24.9480    4.4950 C.2   444  SER444      0.2288
     98  O        -18.7340   24.0220    4.9200 O.2   444  SER444     -0.2866
     99  CB       -19.9690   26.2570    6.5670 C.3   444  SER444      0.2089
    100  OG       -19.5870   27.5820    6.2370 O.3   444  SER444     -0.2183
    101  N        -22.6120   28.2000    1.4170 N.3   448  ASN448     -0.1240
    102  CA       -23.3170   28.1590    2.6980 C.3   448  ASN448      0.1653
    103  C        -24.7850   27.7870    2.4950 C.2   448  ASN448      0.2266
    104  O        -25.4500   28.3010    1.5870 O.2   448  ASN448     -0.2867
    105  CB       -23.2000   29.4930    3.4500 C.3   448  ASN448      0.1155
    106  CG       -22.1340   29.4710    4.5440 C.2   448  ASN448      0.2627
    107  OD1      -21.9040   28.4510    5.1940 O.2   448  ASN448     -0.2716
    108  ND2      -21.4980   30.6130    4.7670 N.am  448  ASN448     -0.0877
@<TRIPOS>BOND
     1    57    63    1
     2    57    58    1
     3    63    62    1
     4    59    60    2
     5    59    58    1
     6   101   102    1
     7   104   103    2
     8    58    61    1
     9    51    52    2
    10    51    50    1
    11    64    65    1
    12   103   102    1
    13    55    54   ar
    14    62    61    1
    15   102   105    1
    16    50    49    1
    17    50    53    1
    18    49    47   am
    19   105   106    1
    20    54    53    1
    21    54    56   ar
    22    65    68    1
    23    65    66    1
    24    47    46    1
    25    47    48    2
    26    46    45    1
    27    97    98    2
    28    97    96    1
    29    68    69    1
    30   106   108   am
    31   106   107    2
    32    66    67    2
    33    45    39   am
    34    37    38    1
    35    10    11    1
    36    16    15    1
    37    96    95    1
    38    96    99    1
    39    11    14    1
    40    11    12    1
    41    14    15    1
    42    39    38    1
    43    39    40    2
    44    70    71    1
    45    15    17    1
    46    38    41    1
    47   100    99    1
    48    12    13    2
    49    12    18   am
    50    76    78   ar
    51    76    75   ar
    52    78    79   ar
    53    41    42    1
    54    71    72    1
    55    71    74    1
    56    92    93    1
    57    92    89    1
    58    29    30    1
    59    72    73    2
    60    18    19    1
    61    75    74    1
    62    75    77   ar
    63    79    77   ar
    64    93    94    1
    65    36    34    1
    66    34    35    1
    67    34    33    1
    68    89    90    1
    69    89    88    1
    70    30    33    1
    71    30    31    1
    72    42    44    1
    73    42    43    1
    74    90    91    2
    75     4     3    2
    76    19    20    1
    77    19    22    1
    78    20    21    2
    79    94    88    1
    80     3     2    1
    81    31    32    2
    82    22    23    1
    83     2     1    1
    84     2     5    1
    85     9     8    1
    86    23    24    1
    87     6     5    2
    88     6     7    1
    89    25    24    1
    90    25    26    2
    91    28    26    1
    92    80    81    1
    93    26    27    1
    94     8     7    1
    95    86    85    2
    96    81    82    1
    97    81    84    1
    98    82    83    2
    99    85    84    1
   100    85    87   am
