@<TRIPOS>MOLECULE
tmp/3uasA01.pdb
 136 128 0 0 0
SMALL
GASTEIGER

@<TRIPOS>ATOM
      1  N         -9.4690   30.8620  -14.0610 N.3    71  ARG71      -0.1245
      2  CA       -10.3560   30.0100  -13.2650 C.3    71  ARG71       0.1563
      3  C         -9.6490   28.7470  -12.7920 C.2    71  ARG71       0.2260
      4  O         -9.0160   28.0470  -13.5860 O.2    71  ARG71      -0.2867
      5  CB       -11.6030   29.6300  -14.0750 C.3    71  ARG71       0.0307
      6  CG       -12.5120   28.5920  -13.4240 C.3    71  ARG71       0.0489
      7  CD       -13.1410   29.1240  -12.1500 C.3    71  ARG71       0.2205
      8  NE       -14.1770   30.1120  -12.4310 N.pl3  71  ARG71      -0.0865
      9  CZ       -14.4490   31.1580  -11.6580 C.cat  71  ARG71       0.5346
     10  NH1      -13.7540   31.3820  -10.5460 N.pl3  71  ARG71       0.1354
     11  NH2      -15.4150   31.9910  -12.0100 N.pl3  71  ARG71       0.1354
     12  N        -12.5250   22.9340   -9.2590 N.3    74  ILE74      -0.1245
     13  CA       -13.0860   22.3460   -8.0440 C.3    74  ILE74       0.1561
     14  C        -13.1690   20.8370   -8.2770 C.2    74  ILE74       0.2260
     15  O        -13.7880   20.3830   -9.2410 O.2    74  ILE74      -0.2867
     16  CB       -14.4790   22.9310   -7.6850 C.3    74  ILE74       0.0252
     17  CG1      -14.3670   24.3960   -7.2310 C.3    74  ILE74       0.0019
     18  CG2      -15.1710   22.0790   -6.6110 C.3    74  ILE74       0.0019
     19  CD1      -13.8610   24.5890   -5.7910 C.3    74  ILE74       0.0001
     20  N        -16.5860   18.6510   -9.1290 N.3    77  VAL77      -0.1245
     21  CA       -17.3960   18.9370  -10.3140 C.3    77  VAL77       0.1561
     22  C        -16.5950   18.9510  -11.6090 C.2    77  VAL77       0.2260
     23  O        -17.1710   18.8630  -12.6900 O.2    77  VAL77      -0.2867
     24  CB       -18.1900   20.2610  -10.1800 C.3    77  VAL77       0.0252
     25  CG1      -19.3480   20.0960   -9.2000 C.3    77  VAL77       0.0019
     26  CG2      -17.2710   21.4190   -9.7700 C.3    77  VAL77       0.0019
     27  N        -18.2250   28.9900  -16.7990 N.3    87  ILE87      -0.1231
     28  CA       -17.6250   29.1560  -15.4740 C.3    87  ILE87       0.1692
     29  C        -16.1830   28.6700  -15.4530 C.2    87  ILE87       0.2592
     30  O        -15.2890   29.3810  -14.9900 O.2    87  ILE87      -0.2718
     31  CB       -18.3870   28.3910  -14.3750 C.3    87  ILE87       0.0266
     32  CG1      -19.8150   28.9060  -14.2280 C.3    87  ILE87       0.0019
     33  CG2      -17.6620   28.5170  -13.0410 C.3    87  ILE87       0.0020
     34  CD1      -20.7030   27.9630  -13.4240 C.3    87  ILE87       0.0001
     35  N        -15.9690   27.4570  -15.9570 N.am   88  PHE88      -0.1976
     36  CA       -14.6880   26.7690  -15.7940 C.3    88  PHE88       0.1639
     37  C        -13.7800   26.8120  -17.0140 C.2    88  PHE88       0.2290
     38  O        -12.7120   26.2040  -17.0170 O.2    88  PHE88      -0.2864
     39  CB       -14.9060   25.3280  -15.3210 C.3    88  PHE88       0.0560
     40  CG       -15.4520   25.2360  -13.9310 C.ar   88  PHE88      -0.0200
     41  CD1      -14.6190   25.4160  -12.8300 C.ar   88  PHE88      -0.0042
     42  CD2      -16.8010   24.9880  -13.7170 C.ar   88  PHE88      -0.0042
     43  CE1      -15.1220   25.3410  -11.5340 C.ar   88  PHE88      -0.0003
     44  CE2      -17.3140   24.9090  -12.4240 C.ar   88  PHE88      -0.0003
     45  CZ       -16.4730   25.0880  -11.3310 C.ar   88  PHE88      -0.0000
     46  N        -25.7620   20.3040   -4.4170 N.3   175  PHE175     -0.1241
     47  CA       -25.1230   21.4210   -3.7100 C.3   175  PHE175      0.1605
     48  C        -24.8850   21.0820   -2.2460 C.2   175  PHE175      0.2264
     49  O        -23.8570   21.4540   -1.6770 O.2   175  PHE175     -0.2867
     50  CB       -25.9470   22.7070   -3.8270 C.3   175  PHE175      0.0534
     51  CG       -26.0490   23.2300   -5.2290 C.ar  175  PHE175     -0.0203
     52  CD1      -25.0210   23.9890   -5.7810 C.ar  175  PHE175     -0.0042
     53  CD2      -27.1720   22.9630   -5.9990 C.ar  175  PHE175     -0.0042
     54  CE1      -25.1120   24.4690   -7.0810 C.ar  175  PHE175     -0.0003
     55  CE2      -27.2710   23.4390   -7.2930 C.ar  175  PHE175     -0.0003
     56  CZ       -26.2380   24.1910   -7.8390 C.ar  175  PHE175     -0.0000
     57  N        -21.8780   18.9150   -2.4410 N.3   178  ILE178     -0.1231
     58  CA       -20.7160   19.7270   -2.8130 C.3   178  ILE178      0.1692
     59  C        -20.1460   20.4830   -1.6030 C.2   178  ILE178      0.2592
     60  O        -18.9260   20.5760   -1.4310 O.2   178  ILE178     -0.2718
     61  CB       -21.0590   20.6930   -3.9790 C.3   178  ILE178      0.0266
     62  CG1      -21.1040   19.9240   -5.3020 C.3   178  ILE178      0.0019
     63  CG2      -20.0450   21.8260   -4.0840 C.3   178  ILE178      0.0020
     64  CD1      -21.9390   20.5900   -6.3810 C.3   178  ILE178      0.0001
     65  N        -21.0370   20.9890   -0.7560 N.am  179  SER179     -0.1952
     66  CA       -20.6400   21.7830    0.4020 C.3   179  SER179      0.1924
     67  C        -20.3620   20.9480    1.6590 C.2   179  SER179      0.2314
     68  O        -20.0860   21.4990    2.7270 O.2   179  SER179     -0.2863
     69  CB       -21.6930   22.8620    0.6820 C.3   179  SER179      0.2116
     70  OG       -21.8270   23.7450   -0.4240 O.3   179  SER179     -0.2180
     71  N        -26.2030   25.6810  -12.7420 N.3   266  PHE266     -0.1227
     72  CA       -25.3340   25.3600  -11.6130 C.3   266  PHE266      0.1736
     73  C        -25.0290   26.5880  -10.7590 C.2   266  PHE266      0.2595
     74  O        -24.9760   26.4980   -9.5310 O.2   266  PHE266     -0.2718
     75  CB       -24.0410   24.7110  -12.1260 C.3   266  PHE266      0.0547
     76  CG       -23.0240   24.4350  -11.0560 C.ar  266  PHE266     -0.0202
     77  CD1      -23.1670   23.3460  -10.2040 C.ar  266  PHE266     -0.0042
     78  CD2      -21.9090   25.2540  -10.9170 C.ar  266  PHE266     -0.0042
     79  CE1      -22.2220   23.0870   -9.2220 C.ar  266  PHE266     -0.0003
     80  CE2      -20.9600   25.0040   -9.9400 C.ar  266  PHE266     -0.0003
     81  CZ       -21.1140   23.9210   -9.0910 C.ar  266  PHE266     -0.0000
     82  N        -24.8460   27.7290  -11.4230 N.am  267  ALA267     -0.1980
     83  CA       -24.4750   28.9760  -10.7580 C.3   267  ALA267      0.1597
     84  C        -25.6750   29.8610  -10.4600 C.2   267  ALA267      0.2287
     85  O        -25.7560   30.4490   -9.3810 O.2   267  ALA267     -0.2864
     86  CB       -23.4580   29.7420  -11.5940 C.3   267  ALA267      0.0319
     87  N        -28.9650   28.0700   -7.2620 N.3   270  GLU270     -0.1231
     88  CA       -28.8130   27.7540   -5.8390 C.3   270  GLU270      0.1699
     89  C        -28.6190   28.9570   -4.9170 C.2   270  GLU270      0.2592
     90  O        -29.4120   29.1710   -4.0000 O.2   270  GLU270     -0.2718
     91  CB       -27.6990   26.7240   -5.6260 C.3   270  GLU270      0.0402
     92  CG       -27.2790   26.5080   -4.1610 C.3   270  GLU270      0.1161
     93  CD       -28.3800   25.9350   -3.2600 C.2   270  GLU270      0.3649
     94  OE1      -28.0800   25.6610   -2.0800 O.co2 270  GLU270     -0.2457
     95  OE2      -29.5350   25.7570   -3.7070 O.co2 270  GLU270     -0.2457
     96  N        -27.5700   29.7360   -5.1650 N.am  271  THR271     -0.1953
     97  CA       -27.2430   30.8790   -4.3170 C.3   271  THR271      0.1897
     98  C        -28.3760   31.8990   -4.2800 C.2   271  THR271      0.2313
     99  O        -28.6840   32.4450   -3.2220 O.2   271  THR271     -0.2863
    100  CB       -25.9070   31.5340   -4.7400 C.3   271  THR271      0.1794
    101  OG1      -24.8340   30.6230   -4.4750 O.3   271  THR271     -0.2208
    102  CG2      -25.6410   32.8080   -3.9540 C.3   271  THR271      0.0378
    103  N        -22.8370   33.6520    1.0120 N.3   331  LEU331     -0.1231
    104  CA       -23.1660   32.3550    0.4330 C.3   331  LEU331      0.1693
    105  C        -22.0040   31.6830   -0.2620 C.2   331  LEU331      0.2591
    106  O        -22.0060   30.4700   -0.4470 O.2   331  LEU331     -0.2718
    107  CB       -24.3570   32.4730   -0.5200 C.3   331  LEU331      0.0284
    108  CG       -25.7310   32.6270    0.1330 C.3   331  LEU331      0.0019
    109  CD1      -25.7810   31.8280    1.4300 C.3   331  LEU331      0.0001
    110  CD2      -26.0550   34.0870    0.4010 C.3   331  LEU331      0.0001
    111  N        -21.0190   32.4750   -0.6590 N.am  332  ILE332     -0.1980
    112  CA       -19.7890   31.9290   -1.2110 C.3   332  ILE332      0.1595
    113  C        -18.6230   32.5320   -0.4120 C.2   332  ILE332      0.2287
    114  O        -18.0620   33.5560   -0.7980 O.2   332  ILE332     -0.2864
    115  CB       -19.6990   32.1710   -2.7450 C.3   332  ILE332      0.0276
    116  CG1      -21.0530   31.8730   -3.4010 C.3   332  ILE332      0.0022
    117  CG2      -18.6130   31.3020   -3.3610 C.3   332  ILE332      0.0022
    118  CD1      -21.1090   32.0900   -4.8880 C.3   332  ILE332      0.0001
    119  N        -14.9650   31.5850   -5.3750 N.3   336  VAL336     -0.1245
    120  CA       -14.7320   30.5240   -6.3390 C.3   336  VAL336      0.1561
    121  C        -13.2970   30.6970   -6.8370 C.2   336  VAL336      0.2260
    122  O        -12.9230   31.8000   -7.2390 O.2   336  VAL336     -0.2867
    123  CB       -15.7400   30.5880   -7.5090 C.3   336  VAL336      0.0252
    124  CG1      -15.5600   29.4050   -8.4400 C.3   336  VAL336      0.0019
    125  CG2      -17.1620   30.6100   -6.9830 C.3   336  VAL336      0.0019
    126  N        -17.8000   25.7000    0.0830 N.3   446  VAL446     -0.1231
    127  CA       -17.7540   26.6000   -1.0760 C.3   446  VAL446      0.1692
    128  C        -19.1260   27.2750   -1.2560 C.2   446  VAL446      0.2592
    129  O        -19.2410   28.3310   -1.8840 O.2   446  VAL446     -0.2718
    130  CB       -17.2470   25.8570   -2.3570 C.3   446  VAL446      0.0266
    131  CG1      -18.0420   24.5830   -2.6060 C.3   446  VAL446      0.0020
    132  CG2      -17.2260   26.7740   -3.5850 C.3   446  VAL446      0.0020
    133  N        -20.1500   26.6540   -0.6690 N.am  447  GLY447     -0.1957
    134  CA       -21.4720   27.2570   -0.5080 C.3   447  GLY447      0.1869
    135  C        -21.9650   27.1420    0.9300 C.2   447  GLY447      0.2309
    136  O        -21.7420   26.1220    1.5960 O.2   447  GLY447     -0.2863
@<TRIPOS>BOND
     1    38    37    2
     2    37    36    1
     3    27    28    1
     4    35    36    1
     5    35    29   am
     6    36    39    1
     7    28    29    1
     8    28    31    1
     9    29    30    2
    10    39    40    1
    11    31    32    1
    12    31    33    1
    13    32    34    1
    14     5     6    1
    15     5     2    1
    16     1     2    1
    17    40    42   ar
    18    40    41   ar
    19    42    44   ar
    20     4     3    2
    21     6     7    1
    22     2     3    1
    23    41    43   ar
    24    71    72    1
    25    23    22    2
    26     8     7    1
    27     8     9    2
    28    44    45   ar
    29    75    72    1
    30    75    76    1
    31    11     9    1
    32     9    10    1
    33    72    73    1
    34    22    21    1
    35    86    83    1
    36    43    45   ar
    37    82    73   am
    38    82    83    1
    39    76    78   ar
    40    76    77   ar
    41    78    80   ar
    42    73    74    2
    43    83    84    1
    44    84    85    2
    45    21    24    1
    46    21    20    1
    47    77    79   ar
    48    24    26    1
    49    24    25    1
    50    80    81   ar
    51    12    13    1
    52    15    14    2
    53    79    81   ar
    54   124   123    1
    55    14    13    1
    56    13    16    1
    57    56    55   ar
    58    56    54   ar
    59    16    17    1
    60    16    18    1
    61   123   125    1
    62   123   120    1
    63    55    53   ar
    64    87    88    1
    65   122   121    2
    66    17    19    1
    67    54    52   ar
    68   121   120    1
    69    64    62    1
    70   120   119    1
    71    53    51   ar
    72    88    91    1
    73    88    89    1
    74    52    51   ar
    75    91    92    1
    76    62    61    1
    77    51    50    1
    78    96    89   am
    79    96    97    1
    80    89    90    2
    81   118   116    1
    82   100   101    1
    83   100    97    1
    84   100   102    1
    85    46    47    1
    86    97    98    1
    87    98    99    2
    88    92    93    1
    89    63    61    1
    90    61    58    1
    91    50    47    1
    92    47    48    1
    93    95    93   ar
    94   132   130    1
    95   116   115    1
    96   117   115    1
    97    93    94   ar
    98    58    57    1
    99    58    59    1
   100   115   112    1
   101   131   130    1
   102   130   127    1
   103    48    49    2
   104   129   128    2
   105    59    60    2
   106    59    65   am
   107   128   127    1
   108   128   133   am
   109   112   111    1
   110   112   113    1
   111   127   126    1
   112   114   113    2
   113    65    66    1
   114   133   134    1
   115   111   105   am
   116   107   108    1
   117   107   104    1
   118   134   135    1
   119   106   105    2
   120    70    69    1
   121   105   104    1
   122   108   110    1
   123   108   109    1
   124    66    69    1
   125    66    67    1
   126   104   103    1
   127   135   136    2
   128    67    68    2
