@<TRIPOS>MOLECULE
tmp/3uazA00.pdb
 115 107 0 0 0
SMALL
GASTEIGER

@<TRIPOS>ATOM
      1  N         40.0340   12.5450   49.4160 N.3    19  GLY19      -0.1225
      2  CA        39.6380   13.9430   49.4010 C.3    19  GLY19       0.1811
      3  C         38.1400   14.1140   49.2790 C.2    19  GLY19       0.2280
      4  O         37.5470   15.0220   49.8670 O.2    19  GLY19      -0.2866
      5  N         38.2980   16.8810   52.0020 N.3    62  GLY62      -0.1210
      6  CA        38.2240   18.0500   51.1560 C.3    62  GLY62       0.1956
      7  C         39.5230   18.2690   50.4040 C.2    62  GLY62       0.2611
      8  O         40.4760   17.4850   50.5380 O.2    62  GLY62      -0.2717
      9  N         39.5730   19.3460   49.6330 N.am   63  MET63      -0.1979
     10  CA        40.6930   19.6130   48.7300 C.3    63  MET63       0.1605
     11  C         41.5600   20.7230   49.2540 C.2    63  MET63       0.2287
     12  O         41.0570   21.7910   49.6340 O.2    63  MET63      -0.2864
     13  CB        40.1780   20.0330   47.3520 C.3    63  MET63       0.0413
     14  CG        39.3260   18.9510   46.6950 C.3    63  MET63       0.0598
     15  SD        38.7330   19.3500   45.0400 S.3    63  MET63      -0.1393
     16  CE        37.5500   20.6330   45.4220 C.3    63  MET63       0.0692
     17  N         46.2820    8.7000   53.1480 N.3    86  ARG86      -0.1245
     18  CA        45.5520    9.3820   52.0980 C.3    86  ARG86       0.1563
     19  C         45.4510    8.4700   50.8910 C.2    86  ARG86       0.2260
     20  O         46.4280    7.8130   50.5040 O.2    86  ARG86      -0.2867
     21  CB        46.2230   10.7190   51.7250 C.3    86  ARG86       0.0307
     22  CG        45.8190   11.2810   50.3940 C.3    86  ARG86       0.0489
     23  CD        46.2110   12.7860   50.2170 C.3    86  ARG86       0.2205
     24  NE        46.2550   13.1040   48.7980 N.pl3  86  ARG86      -0.0865
     25  CZ        45.2120   13.1610   47.9840 C.cat  86  ARG86       0.5346
     26  NH1       43.9720   13.0260   48.4400 N.pl3  86  ARG86       0.1354
     27  NH2       45.4150   13.3630   46.6760 N.pl3  86  ARG86       0.1354
     28  N         43.8130   10.8260   44.0980 N.3    89  THR89      -0.1203
     29  CA        44.1620   10.8770   42.6940 C.3    89  THR89       0.1994
     30  C         45.2060   11.9670   42.4860 C.2    89  THR89       0.2618
     31  O         45.4340   12.8270   43.3490 O.2    89  THR89      -0.2717
     32  CB        42.9350   11.1510   41.8130 C.3    89  THR89       0.1784
     33  OG1       42.3650   12.4150   42.1470 O.3    89  THR89      -0.2211
     34  CG2       41.8960   10.0480   42.0020 C.3    89  THR89       0.0376
     35  N         45.8500   11.9310   41.3280 N.am   90  CYS90      -0.1955
     36  CA        46.8570   12.9200   40.9910 C.3    90  CYS90       0.1843
     37  C         47.0200   13.0450   39.4950 C.2    90  CYS90       0.2626
     38  O         46.5970   12.1460   38.7520 O.2    90  CYS90      -0.2714
     39  CB        48.1900   12.5680   41.6770 C.3    90  CYS90       0.0997
     40  SG        48.9580   11.0350   41.0860 S.3    90  CYS90      -0.0797
     41  N         47.6470   14.1220   39.0520 N.am   91  GLY91      -0.1954
     42  CA        47.9260   14.3620   37.6480 C.3    91  GLY91       0.1869
     43  C         49.4000   14.1810   37.3500 C.2    91  GLY91       0.2309
     44  O         50.2440   14.8220   37.9800 O.2    91  GLY91      -0.2863
     45  N         50.1310   21.1070   45.5150 N.3   155  ALA155     -0.1245
     46  CA        49.8320   22.4400   44.9780 C.3   155  ALA155      0.1562
     47  C         48.6990   23.1250   45.7290 C.2   155  ALA155      0.2260
     48  O         47.7050   22.4710   46.0820 O.2   155  ALA155     -0.2867
     49  CB        49.4570   22.3020   43.5090 C.3   155  ALA155      0.0290
     50  N         45.0760   24.5960   41.6530 N.3   158  PHE158     -0.1241
     51  CA        44.7010   23.6250   40.6390 C.3   158  PHE158      0.1605
     52  C         44.8350   24.2540   39.2490 C.2   158  PHE158      0.2264
     53  O         45.3380   23.6120   38.3310 O.2   158  PHE158     -0.2867
     54  CB        43.2660   23.1550   40.8830 C.3   158  PHE158      0.0534
     55  CG        42.8180   22.0560   39.9660 C.ar  158  PHE158     -0.0203
     56  CD1       42.2650   22.3410   38.7270 C.ar  158  PHE158     -0.0042
     57  CD2       42.9300   20.7200   40.3540 C.ar  158  PHE158     -0.0042
     58  CE1       41.8600   21.3180   37.8850 C.ar  158  PHE158     -0.0003
     59  CE2       42.5210   19.7070   39.5150 C.ar  158  PHE158     -0.0003
     60  CZ        41.9860   20.0020   38.2920 C.ar  158  PHE158     -0.0000
     61  N         51.1120   15.8530   40.4250 N.3   177  VAL177     -0.1231
     62  CA        50.5620   16.9360   41.2220 C.3   177  VAL177      0.1692
     63  C         49.2760   16.5150   41.9310 C.2   177  VAL177      0.2592
     64  O         48.3810   15.8630   41.3470 O.2   177  VAL177     -0.2718
     65  CB        50.2250   18.1440   40.3260 C.3   177  VAL177      0.0266
     66  CG1       49.7770   19.3400   41.1630 C.3   177  VAL177      0.0020
     67  CG2       51.4100   18.5250   39.4670 C.3   177  VAL177      0.0020
     68  N         49.1620   16.9130   43.1850 N.am  178  GLU178     -0.1966
     69  CA        47.9710   16.7020   44.0060 C.3   178  GLU178      0.1733
     70  C         47.9190   17.8530   44.9950 C.2   178  GLU178      0.2616
     71  O         48.6450   18.8440   44.8080 O.2   178  GLU178     -0.2715
     72  CB        48.0080   15.3270   44.6650 C.3   178  GLU178      0.0429
     73  CG        49.2690   15.0540   45.4500 C.3   178  GLU178      0.1163
     74  CD        49.1080   15.2730   46.9170 C.2   178  GLU178      0.3649
     75  OE1       49.6700   16.2450   47.4670 O.co2 178  GLU178     -0.2457
     76  OE2       48.4350   14.4320   47.5510 O.co2 178  GLU178     -0.2457
     77  N         47.0650   17.8010   46.0210 N.am  179  MET179     -0.1963
     78  CA        46.8010   19.0120   46.8130 C.3   179  MET179      0.1736
     79  C         46.7400   18.7910   48.3170 C.2   179  MET179      0.2616
     80  O         46.1760   19.6190   49.0130 O.2   179  MET179     -0.2715
     81  CB        45.5260   19.7130   46.3250 C.3   179  MET179      0.0427
     82  CG        45.6270   20.1770   44.8810 C.3   179  MET179      0.0599
     83  SD        44.1470   20.9630   44.2280 S.3   179  MET179     -0.1393
     84  CE        44.0940   22.4280   45.2250 C.3   179  MET179      0.0692
     85  N         47.3390   17.7330   48.8610 N.am  180  GLU180     -0.1977
     86  CA        47.1760   17.4340   50.2890 C.3   180  GLU180      0.1602
     87  C         48.3910   16.8870   51.0200 C.2   180  GLU180      0.2287
     88  O         48.4840   17.0350   52.2350 O.2   180  GLU180     -0.2864
     89  CB        46.0520   16.4000   50.4940 C.3   180  GLU180      0.0415
     90  CG        44.6320   16.8960   50.2120 C.3   180  GLU180      0.1163
     91  CD        44.2570   16.8830   48.7570 C.2   180  GLU180      0.3649
     92  OE1       44.8420   16.1200   47.9630 O.co2 180  GLU180     -0.2457
     93  OE2       43.3870   17.6910   48.3630 O.co2 180  GLU180     -0.2457
     94  N         45.2410    9.8440   37.5280 N.3   202  SER202     -0.1202
     95  CA        43.9690    9.9090   36.8200 C.3   202  SER202      0.2020
     96  C         44.0430   10.6610   35.5190 C.2   202  SER202      0.2618
     97  O         43.1220   10.5450   34.7090 O.2   202  SER202     -0.2717
     98  CB        42.9140   10.5500   37.7040 C.3   202  SER202      0.2103
     99  OG        43.3310   11.8540   38.0690 O.3   202  SER202     -0.2182
    100  N         45.1070   11.4240   35.3060 N.am  203  ASN203     -0.1974
    101  CA        45.2760   12.2340   34.1140 C.3   203  ASN203      0.1688
    102  C         46.7380   12.5870   33.9210 C.2   203  ASN203      0.2292
    103  O         47.5170   12.4560   34.8510 O.2   203  ASN203     -0.2864
    104  CB        44.4150   13.5120   34.2390 C.3   203  ASN203      0.1181
    105  CG        44.9460   14.5110   35.2820 C.2   203  ASN203      0.2629
    106  OD1       45.6270   15.4650   34.9100 O.2   203  ASN203     -0.2716
    107  ND2       44.6100   14.3220   36.5750 N.am  203  ASN203     -0.0877
    108  N         49.0450   15.9220   32.9820 N.3   205  ILE205     -0.1245
    109  CA        48.9490   17.3660   32.9430 C.3   205  ILE205      0.1561
    110  C         49.3730   17.9290   31.5880 C.2   205  ILE205      0.2260
    111  O         48.8860   18.9810   31.1720 O.2   205  ILE205     -0.2867
    112  CB        49.7790   17.9800   34.0740 C.3   205  ILE205      0.0252
    113  CG1       48.9960   17.8390   35.3830 C.3   205  ILE205      0.0019
    114  CG2       50.1000   19.4330   33.7780 C.3   205  ILE205      0.0019
    115  CD1       49.7130   18.3480   36.5850 C.3   205  ILE205      0.0001
@<TRIPOS>BOND
     1   111   110    2
     2   110   109    1
     3   109   108    1
     4   109   112    1
     5   114   112    1
     6   102   101    1
     7   102   103    2
     8   112   113    1
     9   101   104    1
    10   101   100    1
    11   104   105    1
    12    97    96    2
    13   106   105    2
    14   105   107   am
    15   100    96   am
    16   113   115    1
    17    96    95    1
    18    95    94    1
    19    95    98    1
    20    43    42    1
    21    43    44    2
    22    42    41    1
    23    98    99    1
    24    58    60   ar
    25    58    56   ar
    26    60    59   ar
    27    53    52    2
    28    56    55   ar
    29    38    37    2
    30    41    37   am
    31    52    51    1
    32    67    65    1
    33    37    36    1
    34    59    57   ar
    35    55    57   ar
    36    55    54    1
    37    65    66    1
    38    65    62    1
    39    61    62    1
    40    51    54    1
    41    51    50    1
    42    36    35    1
    43    36    39    1
    44    40    39    1
    45    62    63    1
    46    35    30   am
    47    64    63    2
    48    32    34    1
    49    32    33    1
    50    32    29    1
    51    63    68   am
    52    30    29    1
    53    30    31    2
    54    29    28    1
    55    68    69    1
    56    49    46    1
    57    69    72    1
    58    69    70    1
    59    83    82    1
    60    83    84    1
    61    72    73    1
    62    71    70    2
    63    82    81    1
    64    46    45    1
    65    46    47    1
    66    70    77   am
    67    15    16    1
    68    15    14    1
    69    73    74    1
    70    47    48    2
    71    77    78    1
    72    81    78    1
    73    27    25    1
    74    14    13    1
    75    78    79    1
    76    74    75   ar
    77    74    76   ar
    78    13    10    1
    79    92    91   ar
    80    25    26    1
    81    25    24    2
    82    79    85   am
    83    79    80    2
    84    93    91   ar
    85    10    11    1
    86    10     9    1
    87    91    90    1
    88    24    23    1
    89    85    86    1
    90    11    12    2
    91     3     2    1
    92     3     4    2
    93     2     1    1
    94     9     7   am
    95    90    89    1
    96    23    22    1
    97    86    89    1
    98    86    87    1
    99    22    21    1
   100     7     8    2
   101     7     6    1
   102    20    19    2
   103    19    18    1
   104    87    88    2
   105     6     5    1
   106    21    18    1
   107    18    17    1
