@<TRIPOS>MOLECULE
tmp/3ubbA00.pdb
 156 151 0 0 0
SMALL
GASTEIGER

@<TRIPOS>ATOM
      1  N          8.9190   41.0970   33.5490 N.3    50  HIS50      -0.1241
      2  CA         8.1240   41.9660   32.6990 C.3    50  HIS50       0.1621
      3  C          7.5470   43.1320   33.5060 C.2    50  HIS50       0.2264
      4  O          7.3910   44.2500   32.9880 O.2    50  HIS50      -0.2867
      5  CB         7.0070   41.1830   32.0270 C.3    50  HIS50       0.0745
      6  CG         6.1320   40.4460   32.9930 C.ar   50  HIS50       0.0817
      7  ND1        4.9870   40.9970   33.5290 N.ar   50  HIS50      -0.2268
      8  CD2        6.2470   39.2100   33.5390 C.ar   50  HIS50       0.1154
      9  CE1        4.4270   40.1290   34.3530 C.ar   50  HIS50       0.1986
     10  NE2        5.1740   39.0400   34.3800 N.ar   50  HIS50      -0.2212
     11  N          7.1670   54.6910   29.2920 N.3    56  SER56      -0.1217
     12  CA         7.1680   56.1400   29.3090 C.3    56  SER56       0.1889
     13  C          7.4330   56.6170   30.7370 C.2    56  SER56       0.2288
     14  O          7.4420   55.8200   31.6860 O.2    56  SER56      -0.2866
     15  CB         5.8480   56.7060   28.7850 C.3    56  SER56       0.2089
     16  OG         4.8420   56.7440   29.7860 O.3    56  SER56      -0.2183
     17  N          5.4640   58.7010   32.4560 N.3    58  MET58      -0.1230
     18  CA         4.1980   58.6100   33.1590 C.3    58  MET58       0.1702
     19  C          3.9130   57.1770   33.5990 C.2    58  MET58       0.2592
     20  O          3.2830   56.9390   34.6360 O.2    58  MET58      -0.2718
     21  CB         3.0710   59.0920   32.2500 C.3    58  MET58       0.0401
     22  CG         2.8090   60.5970   32.2740 C.3    58  MET58       0.0596
     23  SD         1.7140   61.0830   30.9050 S.3    58  MET58      -0.1393
     24  CE         0.9940   62.6000   31.5600 C.3    58  MET58       0.0692
     25  N          4.3700   56.2250   32.7920 N.am   59  HIS59      -0.1976
     26  CA         4.1580   54.8230   33.0790 C.3    59  HIS59       0.1656
     27  C          4.7920   54.4170   34.4280 C.2    59  HIS59       0.2291
     28  O          4.1450   53.8420   35.2920 O.2    59  HIS59      -0.2864
     29  CB         4.7050   53.9880   31.9190 C.3    59  HIS59       0.0771
     30  CG         4.2270   52.5700   31.9120 C.ar   59  HIS59       0.0820
     31  ND1        4.9240   51.5560   31.2910 N.ar   59  HIS59      -0.2267
     32  CD2        3.1230   51.9980   32.4460 C.ar   59  HIS59       0.1154
     33  CE1        4.2730   50.4190   31.4510 C.ar   59  HIS59       0.1986
     34  NE2        3.1770   50.6590   32.1490 N.ar   59  HIS59      -0.2212
     35  N          3.4320   56.7780   37.8190 N.3    62  PHE62      -0.1227
     36  CA         2.1210   56.4240   38.3210 C.3    62  PHE62       0.1736
     37  C          2.0590   55.0370   38.9160 C.2    62  PHE62       0.2595
     38  O          1.4980   54.8640   39.9860 O.2    62  PHE62      -0.2718
     39  CB         1.0860   56.6340   37.2340 C.3    62  PHE62       0.0547
     40  CG         0.8260   58.0780   36.9640 C.ar   62  PHE62      -0.0202
     41  CD1        0.6790   58.9650   38.0220 C.ar   62  PHE62      -0.0042
     42  CD2        0.7770   58.5660   35.6740 C.ar   62  PHE62      -0.0042
     43  CE1        0.4550   60.3080   37.8030 C.ar   62  PHE62      -0.0003
     44  CE2        0.5560   59.9180   35.4410 C.ar   62  PHE62      -0.0003
     45  CZ         0.3950   60.7900   36.5120 C.ar   62  PHE62      -0.0000
     46  N          2.6550   54.0590   38.2460 N.am   63  ASN63      -0.1974
     47  CA         2.8640   52.7670   38.8750 C.3    63  ASN63       0.1688
     48  C          3.6070   52.8420   40.2240 C.2    63  ASN63       0.2292
     49  O          3.1470   52.2710   41.2150 O.2    63  ASN63      -0.2864
     50  CB         3.5680   51.8110   37.9140 C.3    63  ASN63       0.1181
     51  CG         2.5910   51.0890   37.0030 C.2    63  ASN63       0.2629
     52  OD1        1.4840   50.7780   37.4070 O.2    63  ASN63      -0.2716
     53  ND2        2.9990   50.8240   35.7670 N.am   63  ASN63      -0.0877
     54  N         -1.0230   37.8910   36.0930 N.3    94  SER94      -0.1217
     55  CA        -1.3060   38.9650   35.1660 C.3    94  SER94       0.1889
     56  C         -0.4150   38.7760   33.9460 C.2    94  SER94       0.2288
     57  O         -0.8680   38.9480   32.8140 O.2    94  SER94      -0.2866
     58  CB        -1.0870   40.3370   35.8090 C.3    94  SER94       0.2089
     59  OG        -1.2540   41.3590   34.8490 O.3    94  SER94      -0.2183
     60  N         -1.8280   38.6250   30.2310 N.3    98  GLN98      -0.1245
     61  CA        -1.3180   39.5590   29.2210 C.3    98  GLN98       0.1566
     62  C         -0.7930   38.8210   28.0020 C.2    98  GLN98       0.2260
     63  O         -1.1070   39.1690   26.8760 O.2    98  GLN98      -0.2867
     64  CB        -0.1900   40.4470   29.7720 C.3    98  GLN98       0.0367
     65  CG        -0.5690   41.3420   30.9410 C.3    98  GLN98       0.0905
     66  CD        -2.0290   41.7760   30.9100 C.2    98  GLN98       0.2608
     67  OE1       -2.4710   42.4560   29.9780 O.2    98  GLN98      -0.2717
     68  NE2       -2.7850   41.3850   31.9330 N.am   98  GLN98      -0.0878
     69  N          5.2800   42.8500   26.4570 N.3   106  PHE106     -0.1227
     70  CA         4.5320   43.7110   27.3640 C.3   106  PHE106      0.1736
     71  C          5.3920   44.0080   28.5930 C.2   106  PHE106      0.2596
     72  O          6.4310   43.3820   28.7990 O.2   106  PHE106     -0.2718
     73  CB         3.1720   43.0860   27.7570 C.3   106  PHE106      0.0547
     74  CG         3.2900   41.8450   28.6040 C.ar  106  PHE106     -0.0202
     75  CD1        3.3620   41.9340   29.9970 C.ar  106  PHE106     -0.0042
     76  CD2        3.3350   40.5850   28.0130 C.ar  106  PHE106     -0.0042
     77  CE1        3.4800   40.7910   30.7670 C.ar  106  PHE106     -0.0003
     78  CE2        3.4480   39.4430   28.7790 C.ar  106  PHE106     -0.0003
     79  CZ         3.5220   39.5390   30.1510 C.ar  106  PHE106     -0.0000
     80  N          4.9630   44.9620   29.4090 N.am  107  GLY107     -0.1942
     81  CA         5.7260   45.3370   30.5840 C.3   107  GLY107      0.2014
     82  C          4.9720   46.2890   31.4760 C.2   107  GLY107      0.2639
     83  O          4.0190   46.9300   31.0520 O.2   107  GLY107     -0.2714
     84  N          5.3980   46.3860   32.7240 N.am  108  GLY108     -0.1954
     85  CA         4.7720   47.3100   33.6420 C.3   108  GLY108      0.1869
     86  C          4.3210   46.6610   34.9270 C.2   108  GLY108      0.2309
     87  O          3.9930   45.4710   34.9670 O.2   108  GLY108     -0.2863
     88  N          1.7180   47.4290   36.6260 N.3   110  SER110     -0.1202
     89  CA         0.3180   47.7380   36.8930 C.3   110  SER110      0.2020
     90  C         -0.5450   46.5180   37.2410 C.2   110  SER110      0.2619
     91  O         -1.5840   46.6600   37.8790 O.2   110  SER110     -0.2717
     92  CB        -0.3040   48.5270   35.7350 C.3   110  SER110      0.2103
     93  OG        -0.5220   47.6640   34.6360 O.3   110  SER110     -0.2182
     94  N         -0.1290   45.3330   36.8140 N.am  111  GLY111     -0.1956
     95  CA        -0.8420   44.1160   37.1700 C.3   111  GLY111      0.1869
     96  C         -0.7770   43.9570   38.6800 C.2   111  GLY111      0.2309
     97  O         -1.7940   43.7210   39.3540 O.2   111  GLY111     -0.2863
     98  N         -2.8380   46.7470   40.3910 N.3   114  TYR114     -0.1241
     99  CA        -4.2630   46.4130   40.4270 C.3   114  TYR114      0.1605
    100  C         -4.5420   45.3810   41.5040 C.2   114  TYR114      0.2264
    101  O         -5.5420   45.4760   42.2100 O.2   114  TYR114     -0.2867
    102  CB        -4.7680   45.9100   39.0700 C.3   114  TYR114      0.0534
    103  CG        -4.8720   47.0150   38.0290 C.ar  114  TYR114     -0.0201
    104  CD1       -5.4140   48.2450   38.3580 C.ar  114  TYR114     -0.0009
    105  CD2       -4.4090   46.8300   36.7290 C.ar  114  TYR114     -0.0009
    106  CE1       -5.5070   49.2580   37.4280 C.ar  114  TYR114      0.0417
    107  CE2       -4.4930   47.8340   35.7950 C.ar  114  TYR114      0.0417
    108  CZ        -5.0440   49.0550   36.1500 C.ar  114  TYR114      0.1957
    109  OH        -5.1360   50.0820   35.2310 O.3   114  TYR114     -0.2866
    110  N         -8.6020   54.4500   37.8860 N.3   145  TRP145     -0.1241
    111  CA        -7.4030   53.7990   37.3660 C.3   145  TRP145      0.1605
    112  C         -7.7380   52.4620   36.7000 C.2   145  TRP145      0.2264
    113  O         -7.1730   52.1030   35.6650 O.2   145  TRP145     -0.2867
    114  CB        -6.4120   53.5670   38.5100 C.3   145  TRP145      0.0550
    115  CG        -5.0130   53.8280   38.1090 C.ar  145  TRP145      0.0003
    116  CD1       -3.9950   52.9030   37.9380 C.ar  145  TRP145      0.0946
    117  CD2       -4.4620   55.0970   37.7820 C.ar  145  TRP145      0.0152
    118  NE1       -2.8420   53.5480   37.5380 N.ar  145  TRP145     -0.2442
    119  CE2       -3.1070   54.8930   37.4340 C.ar  145  TRP145      0.0810
    120  CE3       -4.9750   56.3940   37.7730 C.ar  145  TRP145      0.0012
    121  CZ2       -2.2720   55.9420   37.0680 C.ar  145  TRP145      0.0191
    122  CZ3       -4.1470   57.4350   37.4090 C.ar  145  TRP145      0.0001
    123  CH2       -2.8120   57.2070   37.0570 C.ar  145  TRP145      0.0015
    124  N         -7.6820   51.2830   32.7100 N.3   149  GLY149     -0.1225
    125  CA        -7.0370   50.0640   32.2530 C.3   149  GLY149      0.1811
    126  C         -7.9490   49.1850   31.4150 C.2   149  GLY149      0.2280
    127  O         -7.5460   48.6770   30.3750 O.2   149  GLY149     -0.2866
    128  N         -4.8180   54.9850   28.7640 N.3   154  PHE154     -0.1241
    129  CA        -3.4770   55.4070   29.1720 C.3   154  PHE154      0.1605
    130  C         -2.6380   55.9270   28.0170 C.2   154  PHE154      0.2264
    131  O         -1.5390   56.4250   28.2300 O.2   154  PHE154     -0.2867
    132  CB        -2.7480   54.2980   29.9460 C.3   154  PHE154      0.0534
    133  CG        -3.2580   54.1120   31.3550 C.ar  154  PHE154     -0.0203
    134  CD1       -3.4350   55.2040   32.1930 C.ar  154  PHE154     -0.0042
    135  CD2       -3.5870   52.8580   31.8300 C.ar  154  PHE154     -0.0042
    136  CE1       -3.9190   55.0350   33.4800 C.ar  154  PHE154     -0.0003
    137  CE2       -4.0640   52.6930   33.1130 C.ar  154  PHE154     -0.0003
    138  CZ        -4.2350   53.7810   33.9330 C.ar  154  PHE154     -0.0000
    139  N         -1.2860   54.2590   25.8410 N.3   156  MET156     -0.1245
    140  CA        -0.2490   53.2780   25.5320 C.3   156  MET156      0.1570
    141  C         -0.7620   52.1300   24.6610 C.2   156  MET156      0.2261
    142  O         -0.5270   52.0970   23.4490 O.2   156  MET156     -0.2867
    143  CB         0.3680   52.7340   26.8280 C.3   156  MET156      0.0387
    144  CG         1.0400   53.9060   27.5530 C.3   156  MET156      0.0595
    145  SD         2.0970   53.3500   28.8270 S.3   156  MET156     -0.1393
    146  CE         3.2950   52.2850   28.1230 C.3   156  MET156      0.0692
    147  N         -5.6400   44.1000   30.9060 N.3   163  HIS163     -0.1241
    148  CA        -4.7320   44.8940   31.7320 C.3   163  HIS163      0.1621
    149  C         -5.1070   44.9130   33.2060 C.2   163  HIS163      0.2264
    150  O         -4.2860   45.2920   34.0380 O.2   163  HIS163     -0.2867
    151  CB        -4.6460   46.3360   31.2340 C.3   163  HIS163      0.0745
    152  CG        -3.7930   46.5060   30.0210 C.ar  163  HIS163      0.0817
    153  ND1       -2.8690   45.5610   29.6230 N.ar  163  HIS163     -0.2268
    154  CD2       -3.7260   47.5060   29.1110 C.ar  163  HIS163      0.1154
    155  CE1       -2.2730   45.9710   28.5170 C.ar  163  HIS163      0.1986
    156  NE2       -2.7720   47.1490   28.1880 N.ar  163  HIS163     -0.2212
@<TRIPOS>BOND
     1   142   141    2
     2   141   140    1
     3   140   139    1
     4   140   143    1
     5    69    70    1
     6   143   144    1
     7    63    62    2
     8    70    73    1
     9    70    71    1
    10   144   145    1
    11    73    74    1
    12    62    61    1
    13    76    74   ar
    14    76    78   ar
    15   130   131    2
    16   130   129    1
    17   146   145    1
    18   156   155   ar
    19   156   154   ar
    20   155   153   ar
    21    71    72    2
    22    71    80   am
    23    74    75   ar
    24   128   129    1
    25    78    79   ar
    26    15    12    1
    27    15    16    1
    28   154   152   ar
    29   129   132    1
    30    61    64    1
    31    61    60    1
    32    11    12    1
    33    12    13    1
    34    80    81    1
    35   153   152   ar
    36    64    65    1
    37   132   133    1
    38    67    66    2
    39    75    77   ar
    40   152   151    1
    41    79    77   ar
    42   127   126    2
    43    81    82    1
    44    13    14    2
    45    23    24    1
    46    23    22    1
    47   147   148    1
    48    66    65    1
    49    66    68   am
    50    83    82    2
    51   151   148    1
    52    31    33   ar
    53    31    30   ar
    54   133   135   ar
    55   133   134   ar
    56   126   125    1
    57    33    34   ar
    58    82    84   am
    59   148   149    1
    60   135   137   ar
    61    30    29    1
    62    30    32   ar
    63    29    26    1
    64     5     2    1
    65     5     6    1
    66    34    32   ar
    67   134   136   ar
    68    21    22    1
    69    21    18    1
    70   125   124    1
    71    17    18    1
    72     2     3    1
    73     2     1    1
    74    84    85    1
    75    25    26    1
    76    25    19   am
    77    57    56    2
    78     4     3    2
    79     6     7   ar
    80     6     8   ar
    81    26    27    1
    82   137   138   ar
    83    18    19    1
    84   149   150    2
    85   136   138   ar
    86     7     9   ar
    87     8    10   ar
    88    19    20    2
    89    85    86    1
    90    56    55    1
    91     9    10   ar
    92    27    28    2
    93    93    92    1
    94    59    58    1
    95    86    87    2
    96    55    58    1
    97    55    54    1
    98   109   108    1
    99    44    42   ar
   100    44    45   ar
   101   113   112    2
   102    42    40   ar
   103    92    89    1
   104    53    51   am
   105   107   108   ar
   106   107   105   ar
   107   108   106   ar
   108    45    43   ar
   109    88    89    1
   110   112   111    1
   111   105   103   ar
   112    94    95    1
   113    94    90   am
   114    89    90    1
   115    40    39    1
   116    40    41   ar
   117    51    52    2
   118    51    50    1
   119   123   121   ar
   120   123   122   ar
   121   121   119   ar
   122    95    96    1
   123    39    36    1
   124    90    91    2
   125   111   110    1
   126   111   114    1
   127   122   120   ar
   128   106   104   ar
   129   119   118   ar
   130   119   117   ar
   131   118   116   ar
   132   120   117   ar
   133   117   115   ar
   134    43    41   ar
   135    35    36    1
   136    50    47    1
   137   116   115   ar
   138   103   104   ar
   139   103   102    1
   140   115   114    1
   141    46    47    1
   142    46    37   am
   143    36    37    1
   144    96    97    2
   145    47    48    1
   146    37    38    2
   147   102    99    1
   148    48    49    2
   149    98    99    1
   150    99   100    1
   151   100   101    2
