@<TRIPOS>MOLECULE
tmp/3ubcC00.pdb
 215 204 0 0 0
SMALL
GASTEIGER

@<TRIPOS>ATOM
      1  N         -2.7040   57.1370   32.0900 N.3    31  LEU31      -0.1245
      2  CA        -2.0750   56.0880   31.2730 C.3    31  LEU31       0.1561
      3  C         -1.6820   54.9340   32.1580 C.2    31  LEU31       0.2260
      4  O         -1.9820   53.7430   31.7840 O.2    31  LEU31      -0.2867
      5  CB        -0.7700   56.6470   30.6380 C.3    31  LEU31       0.0270
      6  CG        -0.0550   55.6360   29.6700 C.3    31  LEU31       0.0019
      7  CD1       -0.9020   55.3590   28.4110 C.3    31  LEU31       0.0001
      8  CD2        1.2650   56.2820   29.2510 C.3    31  LEU31       0.0001
      9  N          2.8610   49.6540   31.4250 N.3    38  VAL38      -0.1245
     10  CA         3.6180   50.4360   30.4390 C.3    38  VAL38       0.1561
     11  C          4.5810   51.3990   31.1360 C.2    38  VAL38       0.2260
     12  O          5.5700   51.8930   30.5530 O.2    38  VAL38      -0.2867
     13  CB         2.6600   51.1580   29.5230 C.3    38  VAL38       0.0252
     14  CG1        1.9630   52.3660   30.1850 C.3    38  VAL38       0.0019
     15  CG2        3.3110   51.5440   28.1770 C.3    38  VAL38       0.0019
     16  N          8.5250   51.4230   30.9170 N.3    41  LEU41      -0.1231
     17  CA         9.3010   51.9700   29.7800 C.3    41  LEU41       0.1693
     18  C          9.8140   53.3540   30.0580 C.2    41  LEU41       0.2592
     19  O         10.8310   53.7720   29.4760 O.2    41  LEU41      -0.2718
     20  CB         8.4540   51.9840   28.4900 C.3    41  LEU41       0.0284
     21  CG         7.7770   50.6730   28.0280 C.3    41  LEU41       0.0019
     22  CD1        6.9800   50.9160   26.7800 C.3    41  LEU41       0.0001
     23  CD2        8.9370   49.5390   27.8410 C.3    41  LEU41       0.0001
     24  N          9.1490   54.0320   30.9570 N.am   42  PHE42      -0.1962
     25  CA         9.5460   55.4060   31.3750 C.3    42  PHE42       0.1771
     26  C         10.6200   55.3830   32.4210 C.2    42  PHE42       0.2619
     27  O         10.3920   55.1690   33.6140 O.2    42  PHE42      -0.2715
     28  CB         8.2910   56.1940   31.8010 C.3    42  PHE42       0.0574
     29  CG         7.3430   56.3880   30.7050 C.ar   42  PHE42      -0.0200
     30  CD1        7.4590   57.4910   29.8420 C.ar   42  PHE42      -0.0042
     31  CD2        6.2970   55.5190   30.4340 C.ar   42  PHE42      -0.0042
     32  CE1        6.5950   57.7110   28.7650 C.ar   42  PHE42      -0.0003
     33  CE2        5.3880   55.7320   29.3530 C.ar   42  PHE42      -0.0003
     34  CZ         5.5200   56.8030   28.4790 C.ar   42  PHE42      -0.0000
     35  N         11.8400   55.5900   31.9690 N.am   43  GLN43      -0.1963
     36  CA        12.9990   55.4940   32.8530 C.3    43  GLN43       0.1733
     37  C         13.4510   56.8430   33.4630 C.2    43  GLN43       0.2616
     38  O         14.2920   56.9010   34.3970 O.2    43  GLN43      -0.2715
     39  CB        14.1560   54.7620   32.1060 C.3    43  GLN43       0.0408
     40  CG        13.7940   53.5130   31.2320 C.3    43  GLN43       0.0908
     41  CD        15.0510   52.7260   30.7870 C.2    43  GLN43       0.2608
     42  OE1       16.1230   53.0220   31.2080 O.2    43  GLN43      -0.2717
     43  NE2       14.8700   51.7050   29.9620 N.am   43  GLN43      -0.0878
     44  N         12.8840   57.9400   32.9810 N.am   44  ASN44      -0.1972
     45  CA        13.2700   59.2330   33.5640 C.3    44  ASN44       0.1688
     46  C         12.1640   59.8190   34.4310 C.2    44  ASN44       0.2292
     47  O         11.0520   59.2520   34.4160 O.2    44  ASN44      -0.2864
     48  CB        13.7030   60.1370   32.4410 C.3    44  ASN44       0.1181
     49  CG        15.1070   59.6780   31.9160 C.2    44  ASN44       0.2629
     50  OD1       16.1000   59.7330   32.6670 O.2    44  ASN44      -0.2716
     51  ND2       15.1560   59.1410   30.7090 N.am   44  ASN44      -0.0877
     52  N          9.5930   64.0440   31.7000 N.3    49  GLN49      -0.1245
     53  CA         9.0340   63.4930   30.5410 C.3    49  GLN49       0.1566
     54  C          7.7920   64.2620   30.0780 C.2    49  GLN49       0.2260
     55  O          7.5780   64.5060   28.8770 O.2    49  GLN49      -0.2867
     56  CB         8.6370   62.0330   30.8840 C.3    49  GLN49       0.0367
     57  CG         8.0190   61.3560   29.6900 C.3    49  GLN49       0.0905
     58  CD         8.8200   61.2300   28.3880 C.2    49  GLN49       0.2608
     59  OE1       10.0300   61.3770   28.3410 O.2    49  GLN49      -0.2717
     60  NE2        8.0970   61.0350   27.3130 N.am   49  GLN49      -0.0878
     61  N          8.6980   67.2770   28.1160 N.3    52  LYS52      -0.1231
     62  CA         9.0870   66.9500   26.7620 C.3    52  LYS52       0.1693
     63  C          7.9240   66.6800   25.8640 C.2    52  LYS52       0.2591
     64  O          7.9330   67.0740   24.6770 O.2    52  LYS52      -0.2718
     65  CB        10.0820   65.7220   26.7150 C.3    52  LYS52       0.0285
     66  CG        11.2720   65.9440   27.5760 C.3    52  LYS52       0.0035
     67  CD        12.3900   64.9470   27.2700 C.3    52  LYS52       0.0206
     68  CE        13.4930   64.9460   28.3070 C.3    52  LYS52       0.1093
     69  NZ        14.3100   63.6630   28.0500 N.3    52  LYS52      -0.1314
     70  N          6.9020   65.9260   26.3630 N.am   53  LEU53      -0.1980
     71  CA         5.8140   65.5990   25.5200 C.3    53  LEU53       0.1596
     72  C          5.0610   66.9190   25.1700 C.2    53  LEU53       0.2287
     73  O          4.7570   67.0960   24.0340 O.2    53  LEU53      -0.2864
     74  CB         4.8010   64.6420   26.2780 C.3    53  LEU53       0.0297
     75  CG         3.4490   64.4170   25.6510 C.3    53  LEU53       0.0022
     76  CD1        3.5610   63.7300   24.2400 C.3    53  LEU53       0.0001
     77  CD2        2.4970   63.6660   26.6480 C.3    53  LEU53       0.0001
     78  N          6.6710   68.9370   22.4560 N.3    56  VAL56      -0.1231
     79  CA         6.4360   68.5110   21.1080 C.3    56  VAL56       0.1692
     80  C          5.0180   68.7970   20.6350 C.2    56  VAL56       0.2591
     81  O          4.7850   69.1140   19.4520 O.2    56  VAL56      -0.2718
     82  CB         6.8800   67.0010   20.8400 C.3    56  VAL56       0.0266
     83  CG1        6.3920   66.5760   19.5390 C.3    56  VAL56       0.0020
     84  CG2        8.4340   66.9810   20.9260 C.3    56  VAL56       0.0020
     85  N          4.0570   68.7210   21.5670 N.am   57  LEU57      -0.1980
     86  CA         2.6970   68.9910   21.1380 C.3    57  LEU57       0.1596
     87  C          2.6630   70.4900   20.6790 C.2    57  LEU57       0.2287
     88  O          2.0070   70.7860   19.6710 O.2    57  LEU57      -0.2864
     89  CB         1.7210   68.7990   22.2800 C.3    57  LEU57       0.0297
     90  CG         1.6230   67.2830   22.6350 C.3    57  LEU57       0.0022
     91  CD1        0.5330   67.1650   23.7590 C.3    57  LEU57       0.0001
     92  CD2        1.2660   66.4630   21.4310 C.3    57  LEU57       0.0001
     93  N          3.9550   70.7580   17.0980 N.3    60  LEU60      -0.1245
     94  CA         2.9480   70.4050   16.1850 C.3    60  LEU60       0.1561
     95  C          2.0190   71.5970   15.9200 C.2    60  LEU60       0.2260
     96  O          1.6170   71.8410   14.7500 O.2    60  LEU60      -0.2867
     97  CB         2.0840   69.2420   16.6950 C.3    60  LEU60       0.0270
     98  CG         2.8370   67.9140   16.8000 C.3    60  LEU60       0.0019
     99  CD1        1.8970   66.9140   17.4230 C.3    60  LEU60       0.0001
    100  CD2        3.2880   67.5130   15.4050 C.3    60  LEU60       0.0001
    101  N          9.3190   63.9830   12.9940 N.3    74  LEU74      -0.1245
    102  CA         8.4440   62.9160   13.5110 C.3    74  LEU74       0.1561
    103  C          9.0740   61.5670   13.1790 C.2    74  LEU74       0.2260
    104  O          8.9890   60.6310   13.9830 O.2    74  LEU74      -0.2867
    105  CB         7.0730   63.0050   12.9450 C.3    74  LEU74       0.0270
    106  CG         6.3780   64.2260   13.5960 C.3    74  LEU74       0.0019
    107  CD1        5.1630   64.3940   12.7940 C.3    74  LEU74       0.0001
    108  CD2        6.0140   63.9570   15.0690 C.3    74  LEU74       0.0001
    109  N         11.7590   60.9490   15.6710 N.3    77  LEU77      -0.1245
    110  CA        11.1090   60.6860   16.9650 C.3    77  LEU77       0.1561
    111  C         10.6480   59.2300   17.0380 C.2    77  LEU77       0.2260
    112  O         10.8880   58.5800   18.0860 O.2    77  LEU77      -0.2867
    113  CB         9.9200   61.6800   17.1740 C.3    77  LEU77       0.0270
    114  CG         9.3950   61.6520   18.6200 C.3    77  LEU77       0.0019
    115  CD1       10.4180   61.9470   19.6980 C.3    77  LEU77       0.0001
    116  CD2        8.1570   62.6390   18.6730 C.3    77  LEU77       0.0001
    117  N         13.3990   56.6530   17.5530 N.3    80  ARG80      -0.1231
    118  CA        13.8320   56.6220   18.9010 C.3    80  ARG80       0.1694
    119  C         12.7920   55.8940   19.7330 C.2    80  ARG80       0.2592
    120  O         13.1670   55.1500   20.6400 O.2    80  ARG80      -0.2718
    121  CB        14.0990   58.0690   19.4650 C.3    80  ARG80       0.0321
    122  CG        15.2900   58.7700   18.7090 C.3    80  ARG80       0.0489
    123  CD        15.8590   60.0040   19.4130 C.3    80  ARG80       0.2205
    124  NE        14.8420   61.0620   19.5160 N.pl3  80  ARG80      -0.0865
    125  CZ        14.5510   61.9670   18.5670 C.cat  80  ARG80       0.5346
    126  NH1       15.1840   61.9910   17.3840 N.pl3  80  ARG80       0.1354
    127  NH2       13.6060   62.8760   18.8110 N.pl3  80  ARG80       0.1354
    128  N         11.5140   56.1070   19.4820 N.am   81  HIS81      -0.1976
    129  CA        10.5090   55.3890   20.2810 C.3    81  HIS81       0.1656
    130  C         10.6260   53.8320   20.1090 C.2    81  HIS81       0.2291
    131  O         10.4940   53.1260   21.1220 O.2    81  HIS81      -0.2864
    132  CB         9.1010   55.7940   19.9540 C.3    81  HIS81       0.0771
    133  CG         8.7150   57.0170   20.7150 C.ar   81  HIS81       0.0820
    134  ND1        9.3040   58.2510   20.4350 N.ar   81  HIS81      -0.2267
    135  CD2        7.8300   57.2270   21.7320 C.ar   81  HIS81       0.1154
    136  CE1        8.8080   59.1590   21.2840 C.ar   81  HIS81       0.1986
    137  NE2        7.9400   58.5570   22.0870 N.ar   81  HIS81      -0.2212
    138  N         13.0010   52.6000   22.5480 N.3    84  TYR84      -0.1241
    139  CA        12.5890   52.6230   23.9630 C.3    84  TYR84       0.1605
    140  C         11.6880   51.4100   24.2340 C.2    84  TYR84       0.2264
    141  O         11.2990   51.2360   25.3740 O.2    84  TYR84      -0.2867
    142  CB        11.6810   53.8550   24.2310 C.3    84  TYR84       0.0534
    143  CG        12.4050   55.1680   23.9500 C.ar   84  TYR84      -0.0201
    144  CD1       13.7850   55.3180   24.1030 C.ar   84  TYR84      -0.0009
    145  CD2       11.6680   56.2700   23.5310 C.ar   84  TYR84      -0.0009
    146  CE1       14.4420   56.5430   23.8440 C.ar   84  TYR84       0.0417
    147  CE2       12.3340   57.5140   23.2640 C.ar   84  TYR84       0.0417
    148  CZ        13.6810   57.6370   23.4520 C.ar   84  TYR84       0.1957
    149  OH        14.3280   58.8800   23.1220 O.3    84  TYR84      -0.2866
    150  N          8.7420   51.0010   22.5000 N.3    86  VAL86      -0.1245
    151  CA         7.3820   51.3860   22.1530 C.3    86  VAL86       0.1561
    152  C          6.9190   50.6560   20.8660 C.2    86  VAL86       0.2260
    153  O          7.6600   50.6500   19.8240 O.2    86  VAL86      -0.2867
    154  CB         7.3550   52.9200   21.9660 C.3    86  VAL86       0.0252
    155  CG1        5.9840   53.3420   21.4060 C.3    86  VAL86       0.0019
    156  CG2        7.5900   53.5520   23.3030 C.3    86  VAL86       0.0019
    157  N          0.8160   50.6490   21.2230 N.3    90  HIS90      -0.1226
    158  CA         0.8850   51.6560   22.3040 C.3    90  HIS90       0.1752
    159  C          0.2850   52.9990   21.7810 C.2    90  HIS90       0.2596
    160  O         -0.2060   53.7900   22.5630 O.2    90  HIS90      -0.2718
    161  CB         2.3190   51.9310   22.7240 C.3    90  HIS90       0.0759
    162  CG         2.9310   50.8420   23.5650 C.ar   90  HIS90       0.0818
    163  ND1        4.2320   50.4110   23.3980 N.ar   90  HIS90      -0.2268
    164  CD2        2.4340   50.1500   24.6080 C.ar   90  HIS90       0.1154
    165  CE1        4.5030   49.4960   24.3150 C.ar   90  HIS90       0.1986
    166  NE2        3.4250   49.3080   25.0520 N.ar   90  HIS90      -0.2212
    167  N          0.3150   53.2160   20.4830 N.am   91  TYR91      -0.1976
    168  CA        -0.1050   54.5740   19.9960 C.3    91  TYR91       0.1639
    169  C         -1.5960   54.8560   20.1900 C.2    91  TYR91       0.2290
    170  O         -1.9310   56.0040   20.6260 O.2    91  TYR91      -0.2864
    171  CB         0.3530   54.8420   18.5430 C.3    91  TYR91       0.0560
    172  CG         1.8230   55.1170   18.4470 C.ar   91  TYR91      -0.0198
    173  CD1        2.8110   54.0740   18.3750 C.ar   91  TYR91      -0.0009
    174  CD2        2.2740   56.4510   18.3540 C.ar   91  TYR91      -0.0009
    175  CE1        4.1610   54.4220   18.2920 C.ar   91  TYR91       0.0417
    176  CE2        3.6060   56.7880   18.2940 C.ar   91  TYR91       0.0417
    177  CZ         4.5580   55.7590   18.2210 C.ar   91  TYR91       0.1957
    178  OH         5.8650   56.1430   18.1330 O.3    91  TYR91      -0.2866
    179  N         -2.1340   55.6500   23.8680 N.3    94  VAL94      -0.1245
    180  CA        -1.5550   56.8990   24.3340 C.3    94  VAL94       0.1561
    181  C         -2.5020   58.0000   23.8210 C.2    94  VAL94       0.2260
    182  O         -2.7580   58.9860   24.5230 O.2    94  VAL94      -0.2867
    183  CB        -0.1260   57.0810   23.8120 C.3    94  VAL94       0.0252
    184  CG1        0.2930   58.5590   23.8920 C.3    94  VAL94       0.0019
    185  CG2        0.8090   56.3170   24.7690 C.3    94  VAL94       0.0019
    186  N         -3.2270   63.8100   16.0570 N.3   122  TYR122     -0.1241
    187  CA        -2.5080   62.7210   16.7510 C.3   122  TYR122      0.1605
    188  C         -2.3840   61.5270   15.7830 C.2   122  TYR122      0.2264
    189  O         -1.2700   60.9450   15.6740 O.2   122  TYR122     -0.2867
    190  CB        -3.2470   62.3180   18.0280 C.3   122  TYR122      0.0534
    191  CG        -2.4470   61.1920   18.7420 C.ar  122  TYR122     -0.0201
    192  CD1       -1.4640   61.5110   19.6440 C.ar  122  TYR122     -0.0009
    193  CD2       -2.6590   59.8390   18.3980 C.ar  122  TYR122     -0.0009
    194  CE1       -0.6750   60.4690   20.2180 C.ar  122  TYR122      0.0417
    195  CE2       -1.9170   58.8150   18.9700 C.ar  122  TYR122      0.0417
    196  CZ        -0.9720   59.1660   19.8660 C.ar  122  TYR122      0.1957
    197  OH        -0.2290   58.1600   20.4450 O.3   122  TYR122     -0.2866
    198  N          0.4520   62.1880   13.3050 N.3   125  ALA125     -0.1231
    199  CA         1.7430   62.1290   13.9490 C.3   125  ALA125      0.1694
    200  C          2.0590   60.6180   14.2130 C.2   125  ALA125      0.2591
    201  O          3.1560   60.1570   13.8200 O.2   125  ALA125     -0.2718
    202  CB         1.7910   62.9620   15.2580 C.3   125  ALA125      0.0304
    203  N          1.0780   59.8610   14.7160 N.am  126  ALA126     -0.1980
    204  CA         1.3180   58.4160   15.0020 C.3   126  ALA126      0.1597
    205  C          1.6730   57.6810   13.7240 C.2   126  ALA126      0.2287
    206  O          2.6410   56.8590   13.7540 O.2   126  ALA126     -0.2864
    207  CB         0.1400   57.7720   15.6830 C.3   126  ALA126      0.0319
    208  N          5.2310   58.5160   12.6600 N.3   129  MET129     -0.1245
    209  CA         6.2190   57.9920   13.5970 C.3   129  MET129      0.1570
    210  C          6.3900   56.4940   13.4340 C.2   129  MET129      0.2261
    211  O          7.4830   55.9770   13.6940 O.2   129  MET129     -0.2867
    212  CB         5.7890   58.2650   15.0570 C.3   129  MET129      0.0387
    213  CG         6.0050   59.7620   15.3780 C.3   129  MET129      0.0595
    214  SD         5.2580   60.2000   17.0190 S.3   129  MET129     -0.1393
    215  CE         6.3520   59.4200   18.1590 C.3   129  MET129      0.0692
@<TRIPOS>BOND
     1   208   209    1
     2   107   106    1
     3   105   102    1
     4   105   106    1
     5   101   102    1
     6   103   102    1
     7   103   104    2
     8   198   199    1
     9   210   209    1
    10   210   211    2
    11   106   108    1
    12   209   212    1
    13   205   206    2
    14   205   204    1
    15   201   200    2
    16   199   200    1
    17   199   202    1
    18   200   203   am
    19   203   204    1
    20    96    95    2
    21   204   207    1
    22   212   213    1
    23   213   214    1
    24   100    98    1
    25   109   110    1
    26   189   188    2
    27   188   187    1
    28    95    94    1
    29   186   187    1
    30    94    97    1
    31    94    93    1
    32    97    98    1
    33   187   190    1
    34    98    99    1
    35   110   111    1
    36   110   113    1
    37   214   215    1
    38   111   112    2
    39   113   114    1
    40   126   125    1
    41   117   118    1
    42   190   191    1
    43   178   177    1
    44   177   175   ar
    45   177   176   ar
    46   175   173   ar
    47   176   174   ar
    48   174   172   ar
    49   173   172   ar
    50   193   191   ar
    51   193   195   ar
    52   172   171    1
    53   171   168    1
    54   125   127    1
    55   125   124    2
    56   114   116    1
    57   114   115    1
    58   122   123    1
    59   122   121    1
    60   191   192   ar
    61   118   121    1
    62   118   119    1
    63   195   196   ar
    64   123   124    1
    65    81    80    2
    66   128   119   am
    67   128   129    1
    68    83    82    1
    69   192   194   ar
    70    88    87    2
    71   119   120    2
    72   153   152    2
    73   196   194   ar
    74   196   197    1
    75   132   129    1
    76   132   133    1
    77   168   169    1
    78   168   167    1
    79   130   129    1
    80   130   131    2
    81   169   170    2
    82   134   133   ar
    83   134   136   ar
    84   167   159   am
    85    80    79    1
    86    80    85   am
    87    87    86    1
    88   133   135   ar
    89    82    84    1
    90    82    79    1
    91   152   151    1
    92    79    78    1
    93    86    85    1
    94    86    89    1
    95   157   158    1
    96   136   137   ar
    97   155   154    1
    98    92    90    1
    99   135   137   ar
   100   159   158    1
   101   159   160    2
   102   154   151    1
   103   154   156    1
   104   151   150    1
   105    89    90    1
   106   158   161    1
   107   138   139    1
   108    90    91    1
   109   161   162    1
   110   149   148    1
   111   147   148   ar
   112   147   145   ar
   113   163   162   ar
   114   163   165   ar
   115   148   146   ar
   116   145   143   ar
   117   162   164   ar
   118   183   184    1
   119   183   180    1
   120   183   185    1
   121   181   180    1
   122   181   182    2
   123   146   144   ar
   124   179   180    1
   125   143   144   ar
   126   143   142    1
   127   139   142    1
   128   139   140    1
   129    73    72    2
   130   140   141    2
   131    76    75    1
   132   165   166   ar
   133   164   166   ar
   134    64    63    2
   135    72    71    1
   136    71    74    1
   137    71    70    1
   138    75    74    1
   139    75    77    1
   140    63    70   am
   141    63    62    1
   142    65    62    1
   143    65    66    1
   144    62    61    1
   145    22    21    1
   146    67    66    1
   147    67    68    1
   148    60    58   am
   149    23    21    1
   150    21    20    1
   151    69    68    1
   152    15    13    1
   153    59    58    2
   154    58    57    1
   155     7     6    1
   156    34    32   ar
   157    34    33   ar
   158    20    17    1
   159    32    30   ar
   160    55    54    2
   161     8     6    1
   162    33    31   ar
   163    19    18    2
   164    13    14    1
   165    13    10    1
   166     6     5    1
   167    57    56    1
   168    17    18    1
   169    17    16    1
   170    30    29   ar
   171    43    41   am
   172    18    24   am
   173    54    53    1
   174    31    29   ar
   175    10    11    1
   176    10     9    1
   177    53    56    1
   178    53    52    1
   179    12    11    2
   180     5     2    1
   181    29    28    1
   182    51    49   am
   183    41    42    2
   184    41    40    1
   185    24    25    1
   186    40    39    1
   187     2     1    1
   188     2     3    1
   189    25    28    1
   190    25    26    1
   191     4     3    2
   192    49    48    1
   193    49    50    2
   194    35    26   am
   195    35    36    1
   196    39    36    1
   197    26    27    2
   198    48    45    1
   199    36    37    1
   200    44    37   am
   201    44    45    1
   202    37    38    2
   203    45    46    1
   204    47    46    2
