@<TRIPOS>MOLECULE
tmp/3ubdA00.pdb
 170 153 0 0 0
SMALL
GASTEIGER

@<TRIPOS>ATOM
      1  N         26.6600   13.5870    5.4940 N.3     2  ILE2       -0.1245
      2  CA        27.0150   13.0850    6.8130 C.3     2  ILE2        0.1561
      3  C         27.6160   14.1740    7.6940 C.2     2  ILE2        0.2260
      4  O         28.3210   15.0660    7.2200 O.2     2  ILE2       -0.2867
      5  CB        28.0000   11.9010    6.7380 C.3     2  ILE2        0.0252
      6  CG1       28.0980   11.2050    8.0980 C.3     2  ILE2        0.0019
      7  CG2       29.3680   12.3740    6.2910 C.3     2  ILE2        0.0019
      8  CD1       26.7930   10.5990    8.5730 C.3     2  ILE2        0.0001
      9  N         29.9240   14.3270   11.2130 N.3     4  ILE4       -0.1245
     10  CA        30.6910   13.6050   12.2180 C.3     4  ILE4        0.1561
     11  C         30.8000   14.4700   13.4580 C.2     4  ILE4        0.2260
     12  O         31.1920   15.6330   13.3630 O.2     4  ILE4       -0.2867
     13  CB        32.1030   13.2900   11.7100 C.3     4  ILE4        0.0252
     14  CG1       32.0370   12.3820   10.4830 C.3     4  ILE4        0.0019
     15  CG2       32.9520   12.6540   12.8210 C.3     4  ILE4        0.0019
     16  CD1       31.3030   11.0870   10.7210 C.3     4  ILE4        0.0001
     17  N         39.0280   -1.4190    2.5670 N.3    28  GLN28      -0.1245
     18  CA        38.4380   -2.0730    3.7350 C.3    28  GLN28       0.1566
     19  C         36.9410   -2.3430    3.5790 C.2    28  GLN28       0.2260
     20  O         36.1260   -1.9490    4.4210 O.2    28  GLN28      -0.2867
     21  CB        38.7180   -1.2740    5.0170 C.3    28  GLN28       0.0367
     22  CG        40.1850   -1.2750    5.4420 C.3    28  GLN28       0.0905
     23  CD        40.3870   -0.8950    6.9130 C.2    28  GLN28       0.2608
     24  OE1       39.4300   -0.7970    7.6850 O.2    28  GLN28      -0.2717
     25  NE2       41.6380   -0.6900    7.3010 N.am   28  GLN28      -0.0878
     26  N         33.4450   -2.4410    3.5720 N.3    30  SER30      -0.1202
     27  CA        32.3610   -1.5200    3.8920 C.3    30  SER30       0.2020
     28  C         32.8860   -0.1640    4.3520 C.2    30  SER30       0.2618
     29  O         32.1650    0.8340    4.3250 O.2    30  SER30      -0.2717
     30  CB        31.4400   -2.1220    4.9550 C.3    30  SER30       0.2103
     31  OG        30.1930   -1.4500    4.9740 O.3    30  SER30      -0.2182
     32  N         34.1480   -0.1260    4.7610 N.am   31  PHE31      -0.1975
     33  CA        34.7490    1.1260    5.1920 C.3    31  PHE31       0.1639
     34  C         35.2770    1.9370    4.0150 C.2    31  PHE31       0.2290
     35  O         35.6510    3.1020    4.1730 O.2    31  PHE31      -0.2864
     36  CB        35.8950    0.8650    6.1720 C.3    31  PHE31       0.0560
     37  CG        35.4510    0.3240    7.5090 C.ar   31  PHE31      -0.0200
     38  CD1       34.1080    0.2050    7.8190 C.ar   31  PHE31      -0.0042
     39  CD2       36.3900   -0.0510    8.4540 C.ar   31  PHE31      -0.0042
     40  CE1       33.7080   -0.2910    9.0500 C.ar   31  PHE31      -0.0003
     41  CE2       35.9980   -0.5450    9.6960 C.ar   31  PHE31      -0.0003
     42  CZ        34.6540   -0.6600    9.9860 C.ar   31  PHE31      -0.0000
     43  N         40.8310    3.2880    3.0030 N.3    34  VAL34      -0.1245
     44  CA        41.3960    3.7060    4.2820 C.3    34  VAL34       0.1561
     45  C         42.9000    3.8590    4.1450 C.2    34  VAL34       0.2260
     46  O         43.5640    2.9730    3.6250 O.2    34  VAL34      -0.2867
     47  CB        41.1000    2.6770    5.3910 C.3    34  VAL34       0.0252
     48  CG1       41.8150    3.0610    6.6940 C.3    34  VAL34       0.0019
     49  CG2       39.5970    2.5460    5.6030 C.3    34  VAL34       0.0019
     50  N         44.2690    4.7340   11.4050 N.3    50  ALA50      -0.1245
     51  CA        43.5490    4.7390   10.1430 C.3    50  ALA50       0.1562
     52  C         43.1670    6.1780    9.8140 C.2    50  ALA50       0.2260
     53  O         42.8610    6.9690   10.6990 O.2    50  ALA50      -0.2867
     54  CB        42.2910    3.8650   10.2460 C.3    50  ALA50       0.0290
     55  N         40.5700    8.4080    7.2280 N.3    52  LYS52      -0.1245
     56  CA        39.5100    8.4830    6.2310 C.3    52  LYS52       0.1561
     57  C         39.4590    9.9090    5.7310 C.2    52  LYS52       0.2260
     58  O         39.4970   10.8560    6.5180 O.2    52  LYS52      -0.2867
     59  CB        38.1550    8.1430    6.8490 C.3    52  LYS52       0.0271
     60  CG        37.9000    6.6760    7.0720 C.3    52  LYS52       0.0035
     61  CD        37.8680    5.9010    5.7460 C.3    52  LYS52       0.0206
     62  CE        36.8480    6.4840    4.7690 C.3    52  LYS52       0.1093
     63  NZ        36.6890    5.6180    3.5460 N.3    52  LYS52      -0.1314
     64  N         36.9110   12.1800    3.7650 N.3    54  LEU54      -0.1245
     65  CA        35.5340   12.2400    3.3010 C.3    54  LEU54       0.1561
     66  C         35.2920   13.5010    2.4830 C.2    54  LEU54       0.2260
     67  O         35.6600   14.6050    2.8960 O.2    54  LEU54      -0.2867
     68  CB        34.5690   12.2070    4.4890 C.3    54  LEU54       0.0270
     69  CG        34.6350   10.9770    5.4070 C.3    54  LEU54       0.0019
     70  CD1       33.6860   11.1380    6.5840 C.3    54  LEU54       0.0001
     71  CD2       34.3340    9.6990    4.6520 C.3    54  LEU54       0.0001
     72  N         36.3070    2.1040   19.4860 N.3    77  VAL77      -0.1245
     73  CA        37.2240    2.7520   18.5510 C.3    77  VAL77       0.1561
     74  C         37.0720    4.2560   18.6570 C.2    77  VAL77       0.2260
     75  O         35.9660    4.8020   18.6780 O.2    77  VAL77      -0.2867
     76  CB        37.0540    2.3050   17.0690 C.3    77  VAL77       0.0252
     77  CG1       37.5100    0.8690   16.8850 C.3    77  VAL77       0.0019
     78  CG2       35.6250    2.5200   16.5730 C.3    77  VAL77       0.0019
     79  N         39.5090   12.2280    8.9560 N.3    91  LEU91      -0.1245
     80  CA        39.2860   11.5740   10.2470 C.3    91  LEU91       0.1561
     81  C         40.4570   10.6660   10.5620 C.2    91  LEU91       0.2260
     82  O         40.8430    9.8260    9.7470 O.2    91  LEU91      -0.2867
     83  CB        37.9970   10.7460   10.2400 C.3    91  LEU91       0.0270
     84  CG        36.6760   11.3970    9.8190 C.3    91  LEU91       0.0019
     85  CD1       35.5550   10.3580    9.8620 C.3    91  LEU91       0.0001
     86  CD2       36.3370   12.5650   10.7060 C.3    91  LEU91       0.0001
     87  N         41.5320    7.7790   13.0420 N.3    93  LEU93      -0.1231
     88  CA        40.8110    6.8150   13.8730 C.3    93  LEU93       0.1693
     89  C         41.7130    5.6760   14.3030 C.2    93  LEU93       0.2592
     90  O         42.7290    5.4020   13.6690 O.2    93  LEU93      -0.2718
     91  CB        39.6790    6.2210   13.0340 C.3    93  LEU93       0.0284
     92  CG        38.6290    7.2120   12.5370 C.3    93  LEU93       0.0019
     93  CD1       38.1850    6.8590   11.1150 C.3    93  LEU93       0.0001
     94  CD2       37.4440    7.2600   13.4960 C.3    93  LEU93       0.0001
     95  N         41.3230    4.9660   15.3600 N.am   94  ASP94      -0.1974
     96  CA        41.9830    3.7010   15.6610 C.3    94  ASP94       0.1709
     97  C         41.9620    2.8190   14.4080 C.2    94  ASP94       0.2293
     98  O         40.9270    2.6740   13.7600 O.2    94  ASP94      -0.2864
     99  CB        41.2420    2.9750   16.7780 C.3    94  ASP94       0.1436
    100  CG        41.4680    3.6040   18.1420 C.2    94  ASP94       0.3671
    101  OD1       42.5230    4.2400   18.3780 O.co2  94  ASP94      -0.2456
    102  OD2       40.5840    3.4400   18.9990 O.co2  94  ASP94      -0.2456
    103  N         41.3040   -0.3150   12.4600 N.3    96  LEU96      -0.1245
    104  CA        40.3860   -1.4240   12.7130 C.3    96  LEU96       0.1561
    105  C         40.4330   -2.4010   11.5460 C.2    96  LEU96       0.2260
    106  O         39.6170   -2.3190   10.6270 O.2    96  LEU96      -0.2867
    107  CB        38.9610   -0.9000   12.9130 C.3    96  LEU96       0.0270
    108  CG        37.8860   -1.9170   13.3220 C.3    96  LEU96       0.0019
    109  CD1       38.2330   -2.5940   14.6340 C.3    96  LEU96       0.0001
    110  CD2       36.5380   -1.2170   13.4110 C.3    96  LEU96       0.0001
    111  N         30.1820   -3.4450    9.9350 N.3   101  LEU101     -0.1245
    112  CA        29.0660   -2.7710   10.5820 C.3   101  LEU101      0.1561
    113  C         28.1970   -3.7380   11.3720 C.2   101  LEU101      0.2260
    114  O         27.8960   -4.8330   10.9010 O.2   101  LEU101     -0.2867
    115  CB        28.1810   -2.0920    9.5360 C.3   101  LEU101      0.0270
    116  CG        28.5810   -0.7130    8.9980 C.3   101  LEU101      0.0019
    117  CD1       30.0030   -0.7240    8.4890 C.3   101  LEU101      0.0001
    118  CD2       27.6190   -0.3150    7.8910 C.3   101  LEU101      0.0001
    119  N         24.2100    2.6110   13.9930 N.3   143  GLU143     -0.1245
    120  CA        25.2610    3.1460   13.1430 C.3   143  GLU143      0.1567
    121  C         26.5260    3.4640   13.9520 C.2   143  GLU143      0.2260
    122  O         27.6050    3.6410   13.3820 O.2   143  GLU143     -0.2867
    123  CB        24.7610    4.3700   12.3700 C.3   143  GLU143      0.0388
    124  CG        23.7970    4.0380   11.2300 C.3   143  GLU143      0.1160
    125  CD        22.4990    3.3820   11.6940 C.2   143  GLU143      0.3649
    126  OE1       22.0310    3.6640   12.8290 O.co2 143  GLU143     -0.2457
    127  OE2       21.9380    2.5870   10.9000 O.co2 143  GLU143     -0.2457
    128  N         30.1880   -1.0430   15.5790 N.3   146  LEU146     -0.1245
    129  CA        30.9800   -1.8010   14.6320 C.3   146  LEU146      0.1561
    130  C         31.3380   -3.1390   15.2340 C.2   146  LEU146      0.2260
    131  O         31.1340   -3.3720   16.4310 O.2   146  LEU146     -0.2867
    132  CB        32.2640   -1.0320   14.3030 C.3   146  LEU146      0.0270
    133  CG        32.0330    0.3490   13.7010 C.3   146  LEU146      0.0019
    134  CD1       33.3640    1.0250   13.4040 C.3   146  LEU146      0.0001
    135  CD2       31.1680    0.2430   12.4260 C.3   146  LEU146      0.0001
    136  N         31.8250    3.2500   18.4390 N.3   156  THR156     -0.1218
    137  CA        32.5030    4.4930   18.0600 C.3   156  THR156      0.1862
    138  C         32.3580    5.5260   19.1680 C.2   156  THR156      0.2287
    139  O         31.2850    5.6830   19.7490 O.2   156  THR156     -0.2866
    140  CB        31.9300    5.0970   16.7450 C.3   156  THR156      0.1770
    141  OG1       30.5620    5.5030   16.9380 O.3   156  THR156     -0.2211
    142  CG2       32.0240    4.0790   15.6110 C.3   156  THR156      0.0375
    143  N         32.5510    8.6440   18.5480 N.3   158  PHE158     -0.1241
    144  CA        32.1250    9.8250   17.8210 C.3   158  PHE158      0.1605
    145  C         30.7080    9.6520   17.2930 C.2   158  PHE158      0.2264
    146  O         30.2610    8.5320   17.0510 O.2   158  PHE158     -0.2867
    147  CB        33.0930   10.1020   16.6680 C.3   158  PHE158      0.0534
    148  CG        33.3270    8.9180   15.7560 C.ar  158  PHE158     -0.0203
    149  CD1       32.5940    8.7630   14.5800 C.ar  158  PHE158     -0.0042
    150  CD2       34.2970    7.9710   16.0620 C.ar  158  PHE158     -0.0042
    151  CE1       32.8360    7.6880   13.7360 C.ar  158  PHE158     -0.0003
    152  CE2       34.5400    6.8880   15.2220 C.ar  158  PHE158     -0.0003
    153  CZ        33.8150    6.7450   14.0630 C.ar  158  PHE158     -0.0000
    154  N         27.5470   10.1230   14.5520 N.3   160  LEU160     -0.1245
    155  CA        27.3330   10.1320   13.1120 C.3   160  LEU160      0.1561
    156  C         25.8740   10.4600   12.8660 C.2   160  LEU160      0.2260
    157  O         24.9910    9.8710   13.4900 O.2   160  LEU160     -0.2867
    158  CB        27.6530    8.7710   12.5030 C.3   160  LEU160      0.0270
    159  CG        29.1100    8.3180   12.4970 C.3   160  LEU160      0.0019
    160  CD1       29.4120    7.4820   13.7440 C.3   160  LEU160      0.0001
    161  CD2       29.3940    7.5210   11.2240 C.3   160  LEU160      0.0001
    162  N         22.8620   12.0730    9.7150 N.3   162  LYS162     -0.1245
    163  CA        22.5510   12.4020    8.3340 C.3   162  LYS162      0.1561
    164  C         21.8660   13.7600    8.2850 C.2   162  LYS162      0.2260
    165  O         20.7690   13.9310    8.8190 O.2   162  LYS162     -0.2867
    166  CB        21.6410   11.3320    7.7290 C.3   162  LYS162      0.0271
    167  CG        22.1510    9.9100    7.9090 C.3   162  LYS162      0.0035
    168  CD        23.3640    9.6320    7.0350 C.3   162  LYS162      0.0206
    169  CE        22.9880    9.6260    5.5580 C.3   162  LYS162      0.1093
    170  NZ        24.1350    9.2480    4.6830 N.3   162  LYS162     -0.1314
@<TRIPOS>BOND
     1    66    67    2
     2    66    65    1
     3    17    18    1
     4    43    44    1
     5    65    64    1
     6    65    68    1
     7    63    62    1
     8    26    27    1
     9    19    18    1
    10    19    20    2
    11    46    45    2
    12    18    21    1
    13    27    28    1
    14    27    30    1
    15    34    35    2
    16    34    33    1
    17    45    44    1
    18    44    47    1
    19    29    28    2
    20    28    32   am
    21    68    69    1
    22    71    69    1
    23   170   169    1
    24    32    33    1
    25    62    61    1
    26    30    31    1
    27    21    22    1
    28    33    36    1
    29    47    49    1
    30    47    48    1
    31    69    70    1
    32    22    23    1
    33     1     2    1
    34   169   168    1
    35    57    56    1
    36    57    58    2
    37    61    60    1
    38    36    37    1
    39    56    59    1
    40    56    55    1
    41     7     5    1
    42     5     2    1
    43     5     6    1
    44     2     3    1
    45    59    60    1
    46    23    25   am
    47    23    24    2
    48   168   167    1
    49     4     3    2
    50    37    38   ar
    51    37    39   ar
    52   166   167    1
    53   166   163    1
    54    38    40   ar
    55   118   116    1
    56     6     8    1
    57   164   163    1
    58   164   165    2
    59   163   162    1
    60    39    41   ar
    61   117   116    1
    62    79    80    1
    63   116   115    1
    64    40    42   ar
    65   115   112    1
    66    41    42   ar
    67    82    81    2
    68    52    51    1
    69    52    53    2
    70    84    85    1
    71    84    83    1
    72    84    86    1
    73   111   112    1
    74    51    54    1
    75    51    50    1
    76    83    80    1
    77    80    81    1
    78    14    16    1
    79    14    13    1
    80   112   113    1
    81   106   105    2
    82   127   125   ar
    83   114   113    2
    84    93    92    1
    85     9    10    1
    86   161   159    1
    87   124   125    1
    88   124   123    1
    89   105   104    1
    90   125   126   ar
    91    13    10    1
    92    13    15    1
    93    10    11    1
    94   123   120    1
    95   135   133    1
    96   103   104    1
    97   159   158    1
    98   159   160    1
    99   158   155    1
   100    92    91    1
   101    92    94    1
   102   104   107    1
   103   156   155    1
   104   156   157    2
   105   107   108    1
   106    91    88    1
   107    87    88    1
   108   155   154    1
   109   120   121    1
   110   120   119    1
   111   108   110    1
   112   108   109    1
   113    12    11    2
   114   122   121    2
   115   134   133    1
   116    90    89    2
   117   133   132    1
   118   151   153   ar
   119   151   149   ar
   120    98    97    2
   121    88    89    1
   122   153   152   ar
   123   132   129    1
   124    89    95   am
   125    97    96    1
   126   149   148   ar
   127   129   130    1
   128   129   128    1
   129   152   150   ar
   130   130   131    2
   131    95    96    1
   132   142   140    1
   133    96    99    1
   134   148   150   ar
   135   148   147    1
   136    78    76    1
   137   147   144    1
   138   140   141    1
   139   140   137    1
   140    99   100    1
   141    77    76    1
   142   146   145    2
   143    76    73    1
   144   145   144    1
   145   144   143    1
   146   137   136    1
   147   137   138    1
   148   100   101   ar
   149   100   102   ar
   150    73    74    1
   151    73    72    1
   152    74    75    2
   153   138   139    2
