@<TRIPOS>MOLECULE
tmp/3ubeG01.pdb
 126 120 0 0 0
SMALL
GASTEIGER

@<TRIPOS>ATOM
      1  N         36.6320   20.4870   -9.3650 N.3    89  TYR89      -0.1241
      2  CA        37.9140   20.8210   -9.9820 C.3    89  TYR89       0.1605
      3  C         39.0580   20.4790   -9.0250 C.2    89  TYR89       0.2264
      4  O         39.1630   21.0560   -7.9450 O.2    89  TYR89      -0.2867
      5  CB        37.9890   22.2970  -10.3850 C.3    89  TYR89       0.0534
      6  CG        39.0070   22.5610  -11.4790 C.ar   89  TYR89      -0.0201
      7  CD1       40.3730   22.4660  -11.2260 C.ar   89  TYR89      -0.0009
      8  CD2       38.6010   22.8800  -12.7700 C.ar   89  TYR89      -0.0009
      9  CE1       41.3070   22.6880  -12.2290 C.ar   89  TYR89       0.0417
     10  CE2       39.5220   23.1130  -13.7750 C.ar   89  TYR89       0.0417
     11  CZ        40.8740   23.0160  -13.5010 C.ar   89  TYR89       0.1957
     12  OH        41.7890   23.2450  -14.5060 O.3    89  TYR89      -0.2866
     13  N         32.9630   32.8260  -19.1040 N.3   128  LYS128     -0.1231
     14  CA        33.5680   31.6410  -19.7110 C.3   128  LYS128      0.1693
     15  C         34.1420   30.6650  -18.6860 C.2   128  LYS128      0.2593
     16  O         34.7240   29.6440  -19.0530 O.2   128  LYS128     -0.2718
     17  CB        34.6680   32.0490  -20.6960 C.3   128  LYS128      0.0285
     18  CG        34.2050   32.9860  -21.7970 C.3   128  LYS128      0.0035
     19  CD        35.3790   33.4610  -22.6390 C.3   128  LYS128      0.0206
     20  CE        34.9490   34.4940  -23.6740 C.3   128  LYS128      0.1093
     21  NZ        33.9380   33.9570  -24.6270 N.3   128  LYS128     -0.1314
     22  N         33.9830   30.9760  -17.4050 N.am  129  GLY129     -0.1942
     23  CA        34.5810   30.1670  -16.3580 C.3   129  GLY129      0.2014
     24  C         33.8470   28.8730  -16.0640 C.2   129  GLY129      0.2639
     25  O         33.2650   28.7160  -14.9890 O.2   129  GLY129     -0.2714
     26  N         33.8810   27.9380  -17.0100 N.am  130  VAL130     -0.1963
     27  CA        33.2110   26.6480  -16.8400 C.3   130  VAL130      0.1727
     28  C         34.1180   25.4800  -17.2360 C.2   130  VAL130      0.2617
     29  O         35.1460   25.6800  -17.8860 O.2   130  VAL130     -0.2715
     30  CB        31.8860   26.5890  -17.6230 C.3   130  VAL130      0.0290
     31  CG1       30.8580   27.4840  -16.9640 C.3   130  VAL130      0.0023
     32  CG2       32.1020   26.9900  -19.0880 C.3   130  VAL130      0.0023
     33  N         33.7410   24.2650  -16.8390 N.am  131  THR131     -0.1937
     34  CA        34.6070   23.1090  -17.0330 C.3   131  THR131      0.2028
     35  C         33.8610   21.7810  -17.0170 C.2   131  THR131      0.2642
     36  O         32.8760   21.6110  -16.2920 O.2   131  THR131     -0.2714
     37  CB        35.7330   23.0730  -15.9660 C.3   131  THR131      0.1808
     38  OG1       36.3490   21.7790  -15.9530 O.3   131  THR131     -0.2208
     39  CG2       35.1630   23.3550  -14.5920 C.3   131  THR131      0.0379
     40  N         34.3430   20.8330  -17.8140 N.am  132  ALA132     -0.1977
     41  CA        33.7730   19.4910  -17.8180 C.3   132  ALA132      0.1597
     42  C         33.9680   18.8150  -16.4620 C.2   132  ALA132      0.2287
     43  O         33.2610   17.8660  -16.1250 O.2   132  ALA132     -0.2864
     44  CB        34.3920   18.6540  -18.9220 C.3   132  ALA132      0.0319
     45  N         29.1370   21.7870  -19.3280 N.3   140  LYS140     -0.1245
     46  CA        30.1810   22.4060  -18.5190 C.3   140  LYS140      0.1561
     47  C         29.5840   23.4490  -17.5820 C.2   140  LYS140      0.2260
     48  O         28.8070   24.3010  -18.0080 O.2   140  LYS140     -0.2867
     49  CB        31.2400   23.0600  -19.4050 C.3   140  LYS140      0.0271
     50  CG        31.9480   22.1000  -20.3490 C.3   140  LYS140      0.0035
     51  CD        33.1060   22.7810  -21.0800 C.3   140  LYS140      0.0206
     52  CE        32.6120   23.9210  -21.9580 C.3   140  LYS140      0.1093
     53  NZ        33.7380   24.6130  -22.6410 N.3   140  LYS140     -0.1314
     54  N         35.1890   32.1880  -12.1420 N.3   148  TRP148     -0.1241
     55  CA        36.4970   31.9460  -12.7260 C.3   148  TRP148      0.1605
     56  C         36.8010   33.0230  -13.7630 C.2   148  TRP148      0.2264
     57  O         36.4170   32.8990  -14.9240 O.2   148  TRP148     -0.2867
     58  CB        36.5300   30.5580  -13.3740 C.3   148  TRP148      0.0550
     59  CG        37.8830   30.1550  -13.8660 C.ar  148  TRP148      0.0003
     60  CD1       39.0100   30.9190  -13.8770 C.ar  148  TRP148      0.0946
     61  CD2       38.2530   28.8840  -14.4110 C.ar  148  TRP148      0.0152
     62  NE1       40.0580   30.2070  -14.4040 N.ar  148  TRP148     -0.2442
     63  CE2       39.6210   28.9520  -14.7360 C.ar  148  TRP148      0.0810
     64  CE3       37.5620   27.6940  -14.6530 C.ar  148  TRP148      0.0012
     65  CZ2       40.3130   27.8750  -15.2890 C.ar  148  TRP148      0.0191
     66  CZ3       38.2520   26.6240  -15.2010 C.ar  148  TRP148      0.0001
     67  CH2       39.6110   26.7240  -15.5180 C.ar  148  TRP148      0.0015
     68  N         38.5870   35.3290  -16.5150 N.3   150  VAL150     -0.1245
     69  CA        39.4230   35.0640  -17.6780 C.3   150  VAL150      0.1561
     70  C         39.6400   36.3650  -18.4670 C.2   150  VAL150      0.2260
     71  O         38.8650   37.3170  -18.3350 O.2   150  VAL150     -0.2867
     72  CB        38.7860   33.9600  -18.5580 C.3   150  VAL150      0.0252
     73  CG1       39.0290   34.2120  -20.0310 C.3   150  VAL150      0.0019
     74  CG2       39.3020   32.5850  -18.1390 C.3   150  VAL150      0.0019
     75  N         43.8500   29.3790   -9.8030 N.3   178  HIS178     -0.1241
     76  CA        43.9880   28.3820  -10.8590 C.3   178  HIS178      0.1621
     77  C         45.4270   28.2110  -11.3130 C.2   178  HIS178      0.2264
     78  O         46.1590   29.1800  -11.4750 O.2   178  HIS178     -0.2867
     79  CB        43.1140   28.6820  -12.0670 C.3   178  HIS178      0.0745
     80  CG        43.1940   27.6250  -13.1220 C.ar  178  HIS178      0.0817
     81  ND1       43.7180   27.8570  -14.3760 N.ar  178  HIS178     -0.2268
     82  CD2       42.8430   26.3170  -13.0980 C.ar  178  HIS178      0.1154
     83  CE1       43.6690   26.7430  -15.0850 C.ar  178  HIS178      0.1986
     84  NE2       43.1460   25.7930  -14.3310 N.ar  178  HIS178     -0.2212
     85  N         47.2830   26.5570  -14.3770 N.3   180  PRO180     -0.2102
     86  CA        47.2740   25.9190  -15.6950 C.3   180  PRO180      0.1504
     87  C         48.3150   24.8080  -15.7600 C.2   180  PRO180      0.2576
     88  O         49.2880   24.8370  -15.0060 O.2   180  PRO180     -0.2718
     89  CB        47.6620   27.0640  -16.6410 C.3   180  PRO180      0.0282
     90  CG        47.2350   28.3020  -15.9250 C.3   180  PRO180      0.0208
     91  CD        47.4720   28.0150  -14.4650 C.3   180  PRO180      0.0893
     92  N         48.1070   23.8420  -16.6480 N.am  181  SER181     -0.1953
     93  CA        49.0620   22.7590  -16.8360 C.3   181  SER181      0.1924
     94  C         50.2270   23.1810  -17.7310 C.2   181  SER181      0.2314
     95  O         51.2890   22.5640  -17.7000 O.2   181  SER181     -0.2863
     96  CB        48.3690   21.5320  -17.4300 C.3   181  SER181      0.2116
     97  OG        47.9140   21.7920  -18.7500 O.3   181  SER181     -0.2180
     98  N         48.4470   27.5200  -21.9040 N.3   185  ASP185     -0.1239
     99  CA        47.1540   27.6840  -21.2540 C.3   185  ASP185      0.1674
    100  C         47.1550   28.9020  -20.3430 C.2   185  ASP185      0.2266
    101  O         46.1360   29.5680  -20.1860 O.2   185  ASP185     -0.2867
    102  CB        46.7630   26.4220  -20.4870 C.3   185  ASP185      0.1410
    103  CG        46.5170   25.2410  -21.4040 C.2   185  ASP185      0.3668
    104  OD1       47.1010   25.2140  -22.5110 O.co2 185  ASP185     -0.2456
    105  OD2       45.7340   24.3440  -21.0260 O.co2 185  ASP185     -0.2456
    106  N         44.5170   31.8600  -21.1780 N.3   189  LEU189     -0.1245
    107  CA        43.5040   32.2110  -20.1880 C.3   189  LEU189      0.1561
    108  C         43.7110   33.6090  -19.6200 C.2   189  LEU189      0.2260
    109  O         42.7510   34.3560  -19.4330 O.2   189  LEU189     -0.2867
    110  CB        43.4970   31.1980  -19.0360 C.3   189  LEU189      0.0270
    111  CG        42.9670   29.7880  -19.3060 C.3   189  LEU189      0.0019
    112  CD1       43.2220   28.8820  -18.1140 C.3   189  LEU189      0.0001
    113  CD2       41.4910   29.8310  -19.6340 C.3   189  LEU189      0.0001
    114  N         41.4160   16.6070  -15.5540 N.3   221  GLN221     -0.1245
    115  CA        42.1700   17.8570  -15.4820 C.3   221  GLN221      0.1566
    116  C         43.6330   17.6290  -15.1130 C.2   221  GLN221      0.2260
    117  O         43.9300   16.9480  -14.1350 O.2   221  GLN221     -0.2867
    118  CB        41.5330   18.8060  -14.4660 C.3   221  GLN221      0.0367
    119  CG        40.0710   19.0630  -14.7100 C.3   221  GLN221      0.0905
    120  CD        39.8130   19.6700  -16.0720 C.2   221  GLN221      0.2608
    121  OE1       40.5600   20.5370  -16.5300 O.2   221  GLN221     -0.2717
    122  NE2       38.7530   19.2120  -16.7320 N.am  221  GLN221     -0.0878
    123  N         45.4850   20.4290  -14.8490 N.3   223  GLY223     -0.1225
    124  CA        45.6850   21.6330  -14.0670 C.3   223  GLY223      0.1811
    125  C         45.1680   21.4020  -12.6590 C.2   223  GLY223      0.2280
    126  O         44.6520   20.3300  -12.3560 O.2   223  GLY223     -0.2866
@<TRIPOS>BOND
     1    21    20    1
     2    20    19    1
     3    53    52    1
     4    19    18    1
     5   104   103   ar
     6    52    51    1
     7    98    99    1
     8    18    17    1
     9   103   105   ar
    10   103   102    1
    11    99   102    1
    12    99   100    1
    13   106   107    1
    14    51    50    1
    15    17    14    1
    16    50    49    1
    17   100   101    2
    18   107   108    1
    19   107   110    1
    20    73    72    1
    21    14    13    1
    22    14    15    1
    23   113   111    1
    24   108   109    2
    25    49    46    1
    26    45    46    1
    27   111   110    1
    28   111   112    1
    29    32    30    1
    30    16    15    2
    31    44    41    1
    32    97    96    1
    33    15    22   am
    34    72    74    1
    35    72    69    1
    36    46    47    1
    37    70    71    2
    38    70    69    1
    39    48    47    2
    40    29    28    2
    41    41    40    1
    42    41    42    1
    43    40    35   am
    44    94    95    2
    45    94    93    1
    46    69    68    1
    47    30    31    1
    48    30    27    1
    49    96    93    1
    50    22    23    1
    51    28    27    1
    52    28    33   am
    53    34    35    1
    54    34    33    1
    55    34    37    1
    56    35    36    2
    57    26    27    1
    58    26    24   am
    59    93    92    1
    60   122   120   am
    61    92    87   am
    62    89    90    1
    63    89    86    1
    64   121   120    2
    65    42    43    2
    66    23    24    1
    67   120   119    1
    68    24    25    2
    69    37    38    1
    70    37    39    1
    71    90    91    1
    72    87    86    1
    73    87    88    2
    74    86    85    1
    75   114   115    1
    76    67    65   ar
    77    67    66   ar
    78   115   116    1
    79   115   118    1
    80    65    63   ar
    81    66    64   ar
    82   116   117    2
    83    83    81   ar
    84    83    84   ar
    85    57    56    2
    86   123   124    1
    87    63    61   ar
    88    63    62   ar
    89   119   118    1
    90    64    61   ar
    91    12    11    1
    92    91    85    1
    93    61    59   ar
    94    62    60   ar
    95    81    80   ar
    96    84    82   ar
    97   124   125    1
    98    60    59   ar
    99    59    58    1
   100    10    11   ar
   101    10     8   ar
   102    56    55    1
   103    11     9   ar
   104    58    55    1
   105    80    82   ar
   106    80    79    1
   107     8     6   ar
   108    55    54    1
   109   125   126    2
   110     9     7   ar
   111    79    76    1
   112     6     7   ar
   113     6     5    1
   114    78    77    2
   115    77    76    1
   116    76    75    1
   117     5     2    1
   118     2     1    1
   119     2     3    1
   120     3     4    2
