@<TRIPOS>MOLECULE
tmp/3ublA00.pdb
 117 113 0 0 0
SMALL
GASTEIGER

@<TRIPOS>ATOM
      1  N         62.3440   29.1550   12.4410 N.3    11  SER11      -0.1202
      2  CA        61.8070   28.4130   13.5800 C.3    11  SER11       0.2020
      3  C         60.4990   27.7250   13.2160 C.2    11  SER11       0.2619
      4  O         59.5270   28.3810   12.8190 O.2    11  SER11      -0.2717
      5  CB        61.6010   29.3360   14.7830 C.3    11  SER11       0.2103
      6  OG        60.7130   28.7470   15.7200 O.3    11  SER11      -0.2182
      7  N         60.4650   26.4010   13.3490 N.am   12  ASN12      -0.1960
      8  CA        59.2340   25.6730   13.0720 C.3    12  ASN12       0.1819
      9  C         58.0690   26.0390   14.0150 C.2    12  ASN12       0.2621
     10  O         56.8910   25.9770   13.6250 O.2    12  ASN12      -0.2715
     11  CB        59.4670   24.1540   12.9910 C.3    12  ASN12       0.1195
     12  CG        60.1700   23.5830   14.2140 C.2    12  ASN12       0.2630
     13  OD1       59.8420   22.4780   14.6610 O.2    12  ASN12      -0.2716
     14  ND2       61.1470   24.3160   14.7500 N.am   12  ASN12      -0.0877
     15  N         58.3920   26.4330   15.2440 N.am   13  TYR13      -0.1974
     16  CA        57.3550   26.8550   16.1790 C.3    13  TYR13       0.1639
     17  C         56.8350   28.2400   15.8020 C.2    13  TYR13       0.2290
     18  O         55.6530   28.5090   15.9470 O.2    13  TYR13      -0.2864
     19  CB        57.8290   26.8100   17.6410 C.3    13  TYR13       0.0560
     20  CG        58.0160   25.3880   18.1170 C.ar   13  TYR13      -0.0198
     21  CD1       59.2430   24.7550   17.9880 C.ar   13  TYR13      -0.0009
     22  CD2       56.9520   24.6590   18.6500 C.ar   13  TYR13      -0.0009
     23  CE1       59.4180   23.4360   18.3950 C.ar   13  TYR13       0.0417
     24  CE2       57.1180   23.3410   19.0550 C.ar   13  TYR13       0.0417
     25  CZ        58.3590   22.7400   18.9260 C.ar   13  TYR13       0.1957
     26  OH        58.5490   21.4380   19.3160 O.3    13  TYR13      -0.2866
     27  N         66.3350   33.7140   19.5010 N.3    35  PRO35      -0.2116
     28  CA        66.1580   33.5140   20.9370 C.3    35  PRO35       0.1372
     29  C         67.2390   34.2870   21.6990 C.2    35  PRO35       0.2244
     30  O         68.1910   34.7720   21.0850 O.2    35  PRO35      -0.2868
     31  CB        66.3530   32.0070   21.1110 C.3    35  PRO35       0.0268
     32  CG        66.0530   31.4210   19.7720 C.3    35  PRO35       0.0207
     33  CD        66.5100   32.4440   18.7750 C.3    35  PRO35       0.0892
     34  N         68.7370   35.1580   26.1450 N.3    37  GLN37      -0.1245
     35  CA        68.5600   35.1770   27.5940 C.3    37  GLN37       0.1566
     36  C         68.7940   36.5630   28.1930 C.2    37  GLN37       0.2260
     37  O         68.9300   36.7020   29.4090 O.2    37  GLN37      -0.2867
     38  CB        69.4690   34.1440   28.2740 C.3    37  GLN37       0.0367
     39  CG        69.2220   32.7100   27.8260 C.3    37  GLN37       0.0905
     40  CD        67.8720   32.1810   28.2910 C.2    37  GLN37       0.2608
     41  OE1       67.4130   32.5040   29.3860 O.2    37  GLN37      -0.2717
     42  NE2       67.2340   31.3600   27.4600 N.am   37  GLN37      -0.0878
     43  N         61.4200   31.9100   29.0710 N.3    47  MET47      -0.1230
     44  CA        62.4070   30.8920   28.6770 C.3    47  MET47       0.1702
     45  C         63.3680   31.3640   27.5890 C.2    47  MET47       0.2593
     46  O         64.1980   30.5820   27.1140 O.2    47  MET47      -0.2718
     47  CB        61.7200   29.5990   28.1870 C.3    47  MET47       0.0401
     48  CG        60.9690   28.8020   29.2690 C.3    47  MET47       0.0596
     49  SD        62.0930   28.2200   30.5740 S.3    47  MET47      -0.1393
     50  CE        62.9970   26.9850   29.6520 C.3    47  MET47       0.0692
     51  N         63.2440   32.6180   27.1670 N.am   48  GLY48      -0.1942
     52  CA        64.0650   33.1210   26.0640 C.3    48  GLY48       0.2014
     53  C         63.7540   32.4750   24.7170 C.2    48  GLY48       0.2639
     54  O         64.6210   32.3730   23.8510 O.2    48  GLY48      -0.2714
     55  N         62.5110   32.0310   24.5350 N.am   49  LYS49      -0.1963
     56  CA        62.1050   31.3610   23.2980 C.3    49  LYS49       0.1728
     57  C         61.3330   32.2570   22.3400 C.2    49  LYS49       0.2616
     58  O         60.7590   33.2860   22.7180 O.2    49  LYS49      -0.2715
     59  CB        61.2100   30.1630   23.6000 C.3    49  LYS49       0.0311
     60  CG        61.7070   29.2500   24.6890 C.3    49  LYS49       0.0038
     61  CD        62.4870   28.1070   24.1030 C.3    49  LYS49       0.0206
     62  CE        62.4450   26.8830   25.0070 C.3    49  LYS49       0.1093
     63  NZ        63.0200   25.7360   24.2650 N.3    49  LYS49      -0.1314
     64  N         61.3190   31.8300   21.0870 N.am   50  ILE50      -0.1964
     65  CA        60.4150   32.3660   20.1020 C.3    50  ILE50       0.1712
     66  C         59.5540   31.1820   19.6760 C.2    50  ILE50       0.2458
     67  O         60.0120   30.0410   19.7130 O.2    50  ILE50      -0.2730
     68  CB        61.1700   32.9620   18.9120 C.3    50  ILE50       0.0289
     69  CG1       62.2060   31.9580   18.3690 C.3    50  ILE50       0.0022
     70  CG2       61.8180   34.2890   19.3250 C.3    50  ILE50       0.0023
     71  CD1       62.7920   32.3270   16.9600 C.3    50  ILE50       0.0001
     72  N         58.3020   31.4350   19.2740 N.am   51  PRO51      -0.2727
     73  CA        57.6490   32.7380   19.0640 C.3    51  PRO51       0.1402
     74  C         57.0910   33.4260   20.3020 C.2    51  PRO51       0.2269
     75  O         56.7460   32.7800   21.3050 O.2    51  PRO51      -0.2865
     76  CB        56.4680   32.3830   18.1440 C.3    51  PRO51       0.0296
     77  CG        56.1030   30.9830   18.5740 C.3    51  PRO51       0.0237
     78  CD        57.4550   30.3160   18.8200 C.3    51  PRO51       0.0939
     79  N         54.7840   30.7920   23.8340 N.3    62  GLU62      -0.1231
     80  CA        54.3940   29.3990   23.6860 C.3    62  GLU62       0.1699
     81  C         53.4390   29.3310   22.5130 C.2    62  GLU62       0.2593
     82  O         52.3830   29.9500   22.5300 O.2    62  GLU62      -0.2718
     83  CB        53.7390   28.8570   24.9520 C.3    62  GLU62       0.0402
     84  CG        54.7170   28.3330   25.9890 C.3    62  GLU62       0.1161
     85  CD        55.7780   27.4230   25.3950 C.2    62  GLU62       0.3649
     86  OE1       56.9770   27.6750   25.6250 O.co2  62  GLU62      -0.2457
     87  OE2       55.4150   26.4440   24.7160 O.co2  62  GLU62      -0.2457
     88  N         53.8000   28.5470   21.5120 N.am   63  SER63      -0.1938
     89  CA        53.0390   28.4840   20.2790 C.3    63  SER63       0.2055
     90  C         51.6250   27.9980   20.5280 C.2    63  SER63       0.2643
     91  O         50.6810   28.4680   19.9080 O.2    63  SER63      -0.2714
     92  CB        53.7370   27.5720   19.2750 C.3    63  SER63       0.2130
     93  OG        54.0340   26.3190   19.8530 O.3    63  SER63      -0.2179
     94  N         51.4860   27.0420   21.4300 N.am   64  GLY64      -0.1954
     95  CA        50.1620   26.4640   21.7150 C.3    64  GLY64       0.1869
     96  C         49.2140   27.4750   22.3510 C.2    64  GLY64       0.2309
     97  O         48.0810   27.6450   21.9070 O.2    64  GLY64      -0.2863
     98  N         54.4770   17.3150   18.1210 N.3    99  GLU99      -0.1245
     99  CA        55.4710   18.1380   18.8020 C.3    99  GLU99       0.1567
    100  C         56.2400   17.3600   19.8540 C.2    99  GLU99       0.2260
    101  O         57.4630   17.4700   19.9580 O.2    99  GLU99      -0.2867
    102  CB        54.8230   19.3620   19.4650 C.3    99  GLU99       0.0388
    103  CG        54.1910   20.3260   18.4760 C.3    99  GLU99       0.1160
    104  CD        53.8070   21.6380   19.1090 C.2    99  GLU99       0.3649
    105  OE1       53.5850   21.6850   20.3350 O.co2  99  GLU99      -0.2457
    106  OE2       53.7180   22.6340   18.3730 O.co2  99  GLU99      -0.2457
    107  N         64.9400   16.5150   17.5130 N.3   107  ARG107     -0.1245
    108  CA        65.8140   17.6590   17.7750 C.3   107  ARG107      0.1563
    109  C         67.1270   17.2240   18.4120 C.2   107  ARG107      0.2260
    110  O         68.1180   17.9560   18.3740 O.2   107  ARG107     -0.2867
    111  CB        65.1240   18.7000   18.6570 C.3   107  ARG107      0.0307
    112  CG        64.0020   19.4490   17.9610 C.3   107  ARG107      0.0489
    113  CD        63.2020   20.2810   18.9480 C.3   107  ARG107      0.2205
    114  NE        63.7660   21.6120   19.1390 N.pl3 107  ARG107     -0.0865
    115  CZ        63.5300   22.6420   18.3300 C.cat 107  ARG107      0.5346
    116  NH1       64.0770   23.8210   18.5820 N.pl3 107  ARG107      0.1354
    117  NH2       62.7440   22.4930   17.2680 N.pl3 107  ARG107      0.1354
@<TRIPOS>BOND
     1     1     2    1
     2     4     3    2
     3    11     8    1
     4    11    12    1
     5     8     7    1
     6     8     9    1
     7     3     7   am
     8     3     2    1
     9     2     5    1
    10    10     9    2
    11     9    15   am
    12    12    13    2
    13    12    14   am
    14     5     6    1
    15    15    16    1
    16    17    18    2
    17    17    16    1
    18    16    19    1
    19    71    69    1
    20   117   115    1
    21   107   108    1
    22    19    20    1
    23   108   109    1
    24   108   111    1
    25   112   111    1
    26   112   113    1
    27    21    20   ar
    28    21    23   ar
    29    20    22   ar
    30    98    99    1
    31    76    77    1
    32    76    73    1
    33   115   116    1
    34   115   114    2
    35    69    68    1
    36   106   104   ar
    37   110   109    2
    38    23    25   ar
    39   103   104    1
    40   103   102    1
    41    77    78    1
    42    22    24   ar
    43    33    27    1
    44    33    32    1
    45    99   102    1
    46    99   100    1
    47    78    72    1
    48    68    70    1
    49    68    65    1
    50    25    24   ar
    51    25    26    1
    52   113   114    1
    53    73    72    1
    54    73    74    1
    55   104   105   ar
    56    72    66   am
    57    92    93    1
    58    92    89    1
    59    27    28    1
    60    66    67    2
    61    66    65    1
    62    32    31    1
    63   100   101    2
    64    91    90    2
    65    65    64    1
    66    89    90    1
    67    89    88    1
    68    74    75    2
    69    90    94   am
    70    28    31    1
    71    28    29    1
    72    30    29    2
    73    64    57   am
    74    94    95    1
    75    88    81   am
    76    95    96    1
    77    97    96    2
    78    57    58    2
    79    57    56    1
    80    81    82    2
    81    81    80    1
    82    56    59    1
    83    56    55    1
    84    59    60    1
    85    80    79    1
    86    80    83    1
    87    54    53    2
    88    61    60    1
    89    61    62    1
    90    63    62    1
    91    55    53   am
    92    87    85   ar
    93    53    52    1
    94    83    84    1
    95    85    86   ar
    96    85    84    1
    97    52    51    1
    98    34    35    1
    99    46    45    2
   100    51    45   am
   101    42    40   am
   102    45    44    1
   103    35    36    1
   104    35    38    1
   105    39    38    1
   106    39    40    1
   107    47    44    1
   108    47    48    1
   109    36    37    2
   110    40    41    2
   111    44    43    1
   112    48    49    1
   113    50    49    1
