@<TRIPOS>MOLECULE
tmp/3ubmB00.pdb
 228 219 0 0 0
SMALL
GASTEIGER

@<TRIPOS>ATOM
      1  N         22.3790   -8.3650   53.4710 N.3    13  PHE13      -0.1241
      2  CA        23.6680   -8.6540   52.8670 C.3    13  PHE13       0.1605
      3  C         24.7860   -8.2020   53.7970 C.2    13  PHE13       0.2264
      4  O         25.5990   -7.3420   53.4520 O.2    13  PHE13      -0.2867
      5  CB        23.7760   -7.9840   51.4950 C.3    13  PHE13       0.0534
      6  CG        24.9430   -8.4640   50.6790 C.ar   13  PHE13      -0.0203
      7  CD1       25.0740   -9.8110   50.3610 C.ar   13  PHE13      -0.0042
      8  CD2       25.8940   -7.5680   50.2120 C.ar   13  PHE13      -0.0042
      9  CE1       26.1480  -10.2640   49.6110 C.ar   13  PHE13      -0.0003
     10  CE2       26.9700   -8.0060   49.4420 C.ar   13  PHE13      -0.0003
     11  CZ        27.0960   -9.3620   49.1460 C.ar   13  PHE13      -0.0000
     12  N         27.6740  -10.5810   61.2330 N.3    16  VAL16      -0.1245
     13  CA        27.7890  -10.1770   62.6170 C.3    16  VAL16       0.1561
     14  C         26.4790   -9.5630   63.0990 C.2    16  VAL16       0.2260
     15  O         25.4190  -10.1520   62.9360 O.2    16  VAL16      -0.2867
     16  CB        28.9780   -9.2100   62.8360 C.3    16  VAL16       0.0252
     17  CG1       29.5730   -9.4250   64.2090 C.3    16  VAL16       0.0019
     18  CG2       30.0440   -9.4350   61.7780 C.3    16  VAL16       0.0019
     19  N         25.3280   -5.6570   63.4310 N.3    18  SER18      -0.1217
     20  CA        24.6190   -4.4330   63.0680 C.3    18  SER18       0.1889
     21  C         23.5310   -4.6820   62.0320 C.2    18  SER18       0.2288
     22  O         22.3600   -4.4110   62.2690 O.2    18  SER18      -0.2866
     23  CB        25.5870   -3.3340   62.5850 C.3    18  SER18       0.2089
     24  OG        26.5470   -3.8240   61.6440 O.3    18  SER18      -0.2183
     25  N         21.5410  -13.1720   52.0260 N.3    36  ILE36      -0.1231
     26  CA        22.4960  -13.6870   51.0440 C.3    36  ILE36       0.1692
     27  C         23.8560  -13.8210   51.7030 C.2    36  ILE36       0.2592
     28  O         24.4450  -12.8320   52.1330 O.2    36  ILE36      -0.2718
     29  CB        22.5770  -12.7740   49.7900 C.3    36  ILE36       0.0266
     30  CG1       21.2100  -12.6930   49.1090 C.3    36  ILE36       0.0019
     31  CG2       23.6200  -13.2880   48.8180 C.3    36  ILE36       0.0020
     32  CD1       21.1400  -11.6920   47.9640 C.3    36  ILE36       0.0001
     33  N         24.3420  -15.0560   51.7910 N.am   37  GLU37      -0.1966
     34  CA        25.5450  -15.3570   52.5410 C.3    37  GLU37       0.1733
     35  C         26.5360  -16.0480   51.6350 C.2    37  GLU37       0.2616
     36  O         26.1530  -16.6430   50.6210 O.2    37  GLU37      -0.2715
     37  CB        25.2130  -16.2970   53.7040 C.3    37  GLU37       0.0429
     38  CG        23.8720  -16.0300   54.3880 C.3    37  GLU37       0.1163
     39  CD        23.6220  -16.9780   55.5520 C.2    37  GLU37       0.3649
     40  OE1       24.5460  -17.1550   56.3740 O.co2  37  GLU37      -0.2457
     41  OE2       22.5090  -17.5450   55.6490 O.co2  37  GLU37      -0.2457
     42  N         27.8070  -15.9940   52.0100 N.am   38  ARG38      -0.1963
     43  CA        28.8410  -16.6300   51.2110 C.3    38  ARG38       0.1729
     44  C         28.7340  -18.1510   51.2790 C.2    38  ARG38       0.2616
     45  O         28.2960  -18.7270   52.2890 O.2    38  ARG38      -0.2715
     46  CB        30.2350  -16.1620   51.6360 C.3    38  ARG38       0.0348
     47  CG        30.6110  -16.5310   53.0450 C.3    38  ARG38       0.0492
     48  CD        31.7080  -15.6150   53.5540 C.3    38  ARG38       0.2205
     49  NE        31.2270  -14.2460   53.7250 N.pl3  38  ARG38      -0.0865
     50  CZ        32.0070  -13.2160   54.0370 C.cat  38  ARG38       0.5346
     51  NH1       33.3040  -13.4000   54.2190 N.pl3  38  ARG38       0.1354
     52  NH2       31.4890  -12.0010   54.1730 N.pl3  38  ARG38       0.1354
     53  N         29.1270  -18.7890   50.1800 N.am   39  VAL39      -0.1977
     54  CA        29.0080  -20.2320   50.0350 C.3    39  VAL39       0.1596
     55  C         29.8340  -20.9810   51.0590 C.2    39  VAL39       0.2287
     56  O         30.9090  -20.5280   51.4640 O.2    39  VAL39      -0.2864
     57  CB        29.4320  -20.6840   48.6190 C.3    39  VAL39       0.0276
     58  CG1       28.4400  -20.1680   47.5950 C.3    39  VAL39       0.0022
     59  CG2       30.8420  -20.1900   48.2970 C.3    39  VAL39       0.0022
     60  N         29.5710  -15.0800   59.3270 N.3    44  ILE44      -0.1245
     61  CA        30.5810  -15.4830   60.2870 C.3    44  ILE44       0.1561
     62  C         29.9910  -15.9480   61.6280 C.2    44  ILE44       0.2260
     63  O         30.6020  -16.7650   62.3230 O.2    44  ILE44      -0.2867
     64  CB        31.6690  -14.3800   60.4980 C.3    44  ILE44       0.0252
     65  CG1       32.7330  -14.8670   61.4840 C.3    44  ILE44       0.0019
     66  CG2       31.0360  -13.0610   60.9610 C.3    44  ILE44       0.0019
     67  CD1       33.8190  -13.8440   61.7990 C.3    44  ILE44       0.0001
     68  N         25.2240  -17.9250   48.0190 N.3    72  LEU72      -0.1231
     69  CA        25.5230  -17.2790   46.7460 C.3    72  LEU72       0.1693
     70  C         26.9010  -16.6250   46.7280 C.2    72  LEU72       0.2592
     71  O         27.2700  -15.9160   47.6640 O.2    72  LEU72      -0.2718
     72  CB        24.4440  -16.2490   46.4280 C.3    72  LEU72       0.0284
     73  CG        24.5740  -15.4980   45.1060 C.3    72  LEU72       0.0019
     74  CD1       24.5680  -16.4840   43.9420 C.3    72  LEU72       0.0001
     75  CD2       23.4500  -14.4870   44.9740 C.3    72  LEU72       0.0001
     76  N         27.6590  -16.8720   45.6610 N.am   73  ASN73      -0.1960
     77  CA        29.0010  -16.3010   45.5140 C.3    73  ASN73       0.1819
     78  C         28.9620  -15.1010   44.5860 C.2    73  ASN73       0.2622
     79  O         29.1070  -15.2370   43.3730 O.2    73  ASN73      -0.2715
     80  CB        29.9890  -17.3450   44.9770 C.3    73  ASN73       0.1195
     81  CG        31.4280  -16.8500   44.9760 C.2    73  ASN73       0.2630
     82  OD1       31.6910  -15.6440   44.8910 O.2    73  ASN73      -0.2716
     83  ND2       32.3730  -17.7830   45.0760 N.am   73  ASN73      -0.0877
     84  N         28.7510  -13.9260   45.1640 N.am   74  THR74      -0.1937
     85  CA        28.5680  -12.7110   44.3890 C.3    74  THR74       0.2028
     86  C         29.8840  -12.2210   43.7860 C.2    74  THR74       0.2642
     87  O         29.9160  -11.2070   43.0910 O.2    74  THR74      -0.2714
     88  CB        27.9610  -11.5890   45.2500 C.3    74  THR74       0.1808
     89  OG1       28.9000  -11.2160   46.2630 O.3    74  THR74      -0.2208
     90  CG2       26.6550  -12.0500   45.9030 C.3    74  THR74       0.0379
     91  N         30.9740  -12.9280   44.0630 N.am   75  LYS75      -0.1977
     92  CA        32.2500  -12.5950   43.4390 C.3    75  LYS75       0.1596
     93  C         32.4810  -13.3680   42.1360 C.2    75  LYS75       0.2287
     94  O         33.6260  -13.5430   41.7160 O.2    75  LYS75      -0.2864
     95  CB        33.4200  -12.8170   44.4030 C.3    75  LYS75       0.0298
     96  CG        33.5600  -11.7630   45.5180 C.3    75  LYS75       0.0038
     97  CD        34.9420  -11.1090   45.4750 C.3    75  LYS75       0.0206
     98  CE        35.3360  -10.5210   46.8200 C.3    75  LYS75       0.1093
     99  NZ        35.9660  -11.5340   47.7280 N.3    75  LYS75      -0.1314
    100  N         27.0390   -4.3750   55.5590 N.3    96  ASN96      -0.1225
    101  CA        28.0620   -3.9180   56.4820 C.3    96  ASN96       0.1785
    102  C         29.4010   -4.6450   56.2650 C.2    96  ASN96       0.2597
    103  O         30.0970   -4.9730   57.2230 O.2    96  ASN96      -0.2718
    104  CB        27.5870   -4.0410   57.9460 C.3    96  ASN96       0.1169
    105  CG        27.4620   -5.4850   58.4070 C.2    96  ASN96       0.2627
    106  OD1       27.3390   -6.3940   57.5870 O.2    96  ASN96      -0.2716
    107  ND2       27.5080   -5.7040   59.7200 N.am   96  ASN96      -0.0877
    108  N         29.7670   -4.9020   55.0090 N.am   97  PHE97      -0.1962
    109  CA        31.0720   -5.5050   54.7580 C.3    97  PHE97       0.1771
    110  C         32.1450   -4.4290   54.7350 C.2    97  PHE97       0.2619
    111  O         31.8350   -3.2430   54.8020 O.2    97  PHE97      -0.2715
    112  CB        31.0770   -6.3490   53.4800 C.3    97  PHE97       0.0574
    113  CG        30.1510   -7.5230   53.5420 C.ar   97  PHE97      -0.0200
    114  CD1       29.0890   -7.6390   52.6560 C.ar   97  PHE97      -0.0042
    115  CD2       30.3290   -8.5040   54.5050 C.ar   97  PHE97      -0.0042
    116  CE1       28.2330   -8.7260   52.7140 C.ar   97  PHE97      -0.0003
    117  CE2       29.4700   -9.5910   54.5750 C.ar   97  PHE97      -0.0003
    118  CZ        28.4220   -9.7030   53.6760 C.ar   97  PHE97      -0.0000
    119  N         33.4030   -4.8430   54.6570 N.am   98  ARG98      -0.1964
    120  CA        34.5060   -3.9100   54.8220 C.3    98  ARG98       0.1714
    121  C         34.5280   -2.8340   53.7430 C.2    98  ARG98       0.2458
    122  O         34.0120   -3.0300   52.6360 O.2    98  ARG98      -0.2730
    123  CB        35.8380   -4.6590   54.8840 C.3    98  ARG98       0.0347
    124  CG        36.2320   -5.3240   53.5840 C.3    98  ARG98       0.0492
    125  CD        37.2400   -6.4290   53.8470 C.3    98  ARG98       0.2205
    126  NE        38.1510   -6.5950   52.7230 N.pl3  98  ARG98      -0.0865
    127  CZ        38.7870   -7.7270   52.4310 C.cat  98  ARG98       0.5346
    128  NH1       38.6100   -8.8140   53.1770 N.pl3  98  ARG98       0.1354
    129  NH2       39.5990   -7.7730   51.3840 N.pl3  98  ARG98       0.1354
    130  N         35.1220   -1.6800   54.0670 N.am   99  PRO99      -0.2727
    131  CA        35.1120   -0.5330   53.1590 C.3    99  PRO99       0.1402
    132  C         35.5970   -0.9150   51.7620 C.2    99  PRO99       0.2269
    133  O         36.6230   -1.5870   51.6440 O.2    99  PRO99      -0.2865
    134  CB        36.0980    0.4360   53.8180 C.3    99  PRO99       0.0296
    135  CG        36.0320    0.0970   55.2740 C.3    99  PRO99       0.0237
    136  CD        35.8600   -1.3970   55.3120 C.3    99  PRO99       0.0939
    137  N         34.2570   -2.9970   49.6670 N.3   101  ALA101     -0.1245
    138  CA        33.8100   -4.3280   49.2420 C.3   101  ALA101      0.1562
    139  C         32.7350   -4.2750   48.1600 C.2   101  ALA101      0.2260
    140  O         32.8840   -4.8750   47.0870 O.2   101  ALA101     -0.2867
    141  CB        33.3130   -5.1360   50.4440 C.3   101  ALA101      0.0290
    142  N         34.1380   -3.0290   44.8650 N.3   104  ARG104     -0.1231
    143  CA        34.9040   -4.0360   44.1230 C.3   104  ARG104      0.1694
    144  C         34.0270   -5.1610   43.5640 C.2   104  ARG104      0.2591
    145  O         34.4750   -5.9640   42.7450 O.2   104  ARG104     -0.2718
    146  CB        36.0200   -4.6270   44.9890 C.3   104  ARG104      0.0321
    147  CG        37.2190   -3.7070   45.1850 C.3   104  ARG104      0.0489
    148  CD        38.2690   -4.3800   46.0630 C.3   104  ARG104      0.2205
    149  NE        37.7640   -4.6950   47.3980 N.pl3 104  ARG104     -0.0865
    150  CZ        37.8690   -3.8820   48.4480 C.cat 104  ARG104      0.5346
    151  NH1       38.4590   -2.6980   48.3240 N.pl3 104  ARG104      0.1354
    152  NH2       37.3850   -4.2460   49.6270 N.pl3 104  ARG104      0.1354
    153  N         32.7780   -5.2160   44.0120 N.am  105  MET105     -0.1979
    154  CA        31.8610   -6.2700   43.5850 C.3   105  MET105      0.1605
    155  C         31.0390   -5.7740   42.4040 C.2   105  MET105      0.2287
    156  O         30.3130   -6.5370   41.7710 O.2   105  MET105     -0.2864
    157  CB        30.9460   -6.6700   44.7390 C.3   105  MET105      0.0413
    158  CG        30.3570   -8.0640   44.6500 C.3   105  MET105      0.0598
    159  SD        29.2170   -8.3420   46.0240 S.3   105  MET105     -0.1393
    160  CE        30.3300   -8.1380   47.4090 C.3   105  MET105      0.0692
    161  N         26.5460    0.2550   56.5900 N.3   124  VAL124     -0.1231
    162  CA        27.2560    0.5300   57.8340 C.3   124  VAL124      0.1692
    163  C         28.7520    0.3440   57.6240 C.2   124  VAL124      0.2592
    164  O         29.1810   -0.6440   57.0270 O.2   124  VAL124     -0.2718
    165  CB        26.8190   -0.4250   58.9530 C.3   124  VAL124      0.0266
    166  CG1       27.6850   -0.2240   60.1780 C.3   124  VAL124      0.0020
    167  CG2       25.3490   -0.2100   59.2940 C.3   124  VAL124      0.0020
    168  N         29.5340    1.3020   58.1120 N.am  125  LYS125     -0.1966
    169  CA        30.9800    1.1900   58.1540 C.3   125  LYS125      0.1728
    170  C         31.4490    1.6100   59.5480 C.2   125  LYS125      0.2616
    171  O         30.7060    2.2390   60.2980 O.2   125  LYS125     -0.2715
    172  CB        31.6340    2.0840   57.0910 C.3   125  LYS125      0.0311
    173  CG        31.2470    1.7600   55.6260 C.3   125  LYS125      0.0038
    174  CD        31.8810    0.4640   55.1500 C.3   125  LYS125      0.0206
    175  CE        31.1310   -0.1370   53.9370 C.3   125  LYS125      0.1093
    176  NZ        30.1640   -1.1970   54.3690 N.3   125  LYS125     -0.1314
    177  N         32.6840    1.2720   59.8840 N.am  126  GLY126     -0.1955
    178  CA        33.2510    1.6420   61.1670 C.3   126  GLY126      0.1869
    179  C         33.3410    3.1450   61.3560 C.2   126  GLY126      0.2309
    180  O         33.1220    3.6510   62.4540 O.2   126  GLY126     -0.2863
    181  N         40.3330   -1.4580   61.1190 N.3   137  SER137     -0.1202
    182  CA        39.4300   -2.6140   61.2060 C.3   137  SER137      0.2020
    183  C         38.3260   -2.3720   62.2290 C.2   137  SER137      0.2619
    184  O         38.6040   -2.1850   63.4200 O.2   137  SER137     -0.2717
    185  CB        40.2010   -3.8840   61.5830 C.3   137  SER137      0.2103
    186  OG        41.1580   -4.2160   60.5970 O.3   137  SER137     -0.2182
    187  N         37.0730   -2.3940   61.7780 N.am  138  ALA138     -0.1965
    188  CA        35.9890   -1.9040   62.6200 C.3   138  ALA138      0.1728
    189  C         35.3100   -2.9620   63.4970 C.2   138  ALA138      0.2616
    190  O         34.2110   -3.4100   63.1850 O.2   138  ALA138     -0.2715
    191  CB        34.9570   -1.1770   61.7680 C.3   138  ALA138      0.0334
    192  N         35.9620   -3.3370   64.5960 N.am  139  TYR139     -0.1960
    193  CA        35.3630   -4.2170   65.6080 C.3   139  TYR139      0.1771
    194  C         34.4840   -3.4160   66.5680 C.2   139  TYR139      0.2619
    195  O         34.5540   -2.1850   66.6040 O.2   139  TYR139     -0.2715
    196  CB        36.4520   -4.9340   66.4310 C.3   139  TYR139      0.0574
    197  CG        37.4200   -5.7790   65.6230 C.ar  139  TYR139     -0.0198
    198  CD1       38.7340   -5.3670   65.4230 C.ar  139  TYR139     -0.0009
    199  CD2       37.0210   -6.9890   65.0600 C.ar  139  TYR139     -0.0009
    200  CE1       39.6240   -6.1370   64.6820 C.ar  139  TYR139      0.0417
    201  CE2       37.9030   -7.7640   64.3160 C.ar  139  TYR139      0.0417
    202  CZ        39.2040   -7.3330   64.1310 C.ar  139  TYR139      0.1957
    203  OH        40.0900   -8.0990   63.3910 O.3   139  TYR139     -0.2866
    204  N         33.6860   -4.1290   67.3620 N.am  140  GLU140     -0.1977
    205  CA        32.8500   -3.5270   68.4040 C.3   140  GLU140      0.1602
    206  C         33.6510   -2.5880   69.2980 C.2   140  GLU140      0.2287
    207  O         33.2900   -1.4190   69.4730 O.2   140  GLU140     -0.2864
    208  CB        32.1900   -4.6230   69.2610 C.3   140  GLU140      0.0415
    209  CG        31.5850   -4.1330   70.5990 C.3   140  GLU140      0.1163
    210  CD        30.3500   -3.2530   70.4090 C.2   140  GLU140      0.3649
    211  OE1       30.2690   -2.1770   71.0400 O.co2 140  GLU140     -0.2457
    212  OE2       29.4530   -3.6390   69.6290 O.co2 140  GLU140     -0.2457
    213  N         27.7730   -2.3820   67.7120 N.3   182  ASP182     -0.1239
    214  CA        27.1380   -3.3270   66.8000 C.3   182  ASP182      0.1674
    215  C         25.6240   -3.1690   66.6730 C.2   182  ASP182      0.2266
    216  O         25.1400   -2.5330   65.7390 O.2   182  ASP182     -0.2867
    217  CB        27.4800   -4.7540   67.2090 C.3   182  ASP182      0.1410
    218  CG        28.5050   -5.3860   66.2980 C.2   182  ASP182      0.3668
    219  OD1       29.7130   -5.2140   66.5500 O.co2 182  ASP182     -0.2456
    220  OD2       28.1090   -6.0600   65.3220 O.co2 182  ASP182     -0.2456
    221  N         29.8200    3.3510   62.7190 N.3   213  MET213     -0.1245
    222  CA        29.8050    2.8250   64.0780 C.3   213  MET213      0.1570
    223  C         30.3040    3.8620   65.0830 C.2   213  MET213      0.2261
    224  O         29.7810    3.9770   66.1900 O.2   213  MET213     -0.2867
    225  CB        30.6670    1.5700   64.1480 C.3   213  MET213      0.0387
    226  CG        30.0900    0.4360   63.3180 C.3   213  MET213      0.0595
    227  SD        31.1740   -0.9820   63.1760 S.3   213  MET213     -0.1393
    228  CE        31.3310   -1.4230   64.9010 C.3   213  MET213      0.0692
@<TRIPOS>BOND
     1    94    93    2
     2   156   155    2
     3    93    92    1
     4   155   154    1
     5   145   144    2
     6    87    86    2
     7    79    78    2
     8    92    91    1
     9    92    95    1
    10   144   153   am
    11   144   143    1
    12   154   153    1
    13   154   157    1
    14    86    91   am
    15    86    85    1
    16    74    73    1
    17   143   142    1
    18   143   146    1
    19    85    84    1
    20    85    88    1
    21    95    96    1
    22    78    84   am
    23    78    77    1
    24   158   157    1
    25   158   159    1
    26    82    81    2
    27    75    73    1
    28    81    80    1
    29    81    83   am
    30    80    77    1
    31   146   147    1
    32    73    72    1
    33   147   148    1
    34    88    90    1
    35    88    89    1
    36    97    96    1
    37    97    98    1
    38    77    76    1
    39    76    70   am
    40   159   160    1
    41   148   149    1
    42    72    69    1
    43    70    69    1
    44    70    71    2
    45    69    68    1
    46    98    99    1
    47   140   139    2
    48   149   150    2
    49    58    57    1
    50    32    30    1
    51   139   138    1
    52    59    57    1
    53   151   150    1
    54   150   152    1
    55    57    54    1
    56    31    29    1
    57    30    29    1
    58    11    10   ar
    59    11     9   ar
    60   138   137    1
    61   138   141    1
    62    10     8   ar
    63     9     7   ar
    64    29    26    1
    65    54    53    1
    66    54    55    1
    67    53    44   am
    68     8     6   ar
    69     7     6   ar
    70    36    35    2
    71     6     5    1
    72    26    27    1
    73    26    25    1
    74    55    56    2
    75    43    44    1
    76    43    46    1
    77    43    42    1
    78    44    45    2
    79   129   127    1
    80     5     2    1
    81    35    42   am
    82    35    34    1
    83    46    47    1
    84   133   132    2
    85    27    33   am
    86    27    28    2
    87   132   131    1
    88    33    34    1
    89   127   126    2
    90   127   128    1
    91    34    37    1
    92   122   121    2
    93   114   116   ar
    94   114   113   ar
    95   116   118   ar
    96   126   125    1
    97     2     1    1
    98     2     3    1
    99    47    48    1
   100   131   134    1
   101   131   130    1
   102     4     3    2
   103   112   113    1
   104   112   109    1
   105   113   115   ar
   106    48    49    1
   107   124   125    1
   108   124   123    1
   109   118   117   ar
   110    37    38    1
   111    49    50    2
   112   121   130   am
   113   121   120    1
   114   134   135    1
   115   175   176    1
   116   175   174    1
   117    50    52    1
   118    50    51    1
   119   130   136    1
   120    38    39    1
   121   115   117   ar
   122   119   110   am
   123   119   120    1
   124   110   109    1
   125   110   111    2
   126   109   108    1
   127   120   123    1
   128   108   102   am
   129   174   173    1
   130   135   136    1
   131    39    41   ar
   132    39    40   ar
   133   100   101    1
   134   173   172    1
   135   102   101    1
   136   102   103    2
   137   101   104    1
   138   161   162    1
   139   164   163    2
   140   172   169    1
   141   106   105    2
   142   163   162    1
   143   163   168   am
   144   162   165    1
   145   104   105    1
   146   168   169    1
   147   169   170    1
   148   105   107   am
   149   165   167    1
   150   165   166    1
   151    60    61    1
   152   170   177   am
   153   170   171    2
   154   177   178    1
   155    61    64    1
   156    61    62    1
   157    64    66    1
   158    64    65    1
   159   186   185    1
   160   181   182    1
   161   178   179    1
   162   182   185    1
   163   182   183    1
   164    12    13    1
   165   179   180    2
   166    65    67    1
   167    62    63    2
   168    24    23    1
   169   191   188    1
   170   187   183   am
   171   187   188    1
   172    18    16    1
   173    21    22    2
   174    21    20    1
   175   183   184    2
   176    23    20    1
   177    13    16    1
   178    13    14    1
   179   188   189    1
   180   221   222    1
   181    16    17    1
   182    15    14    2
   183    20    19    1
   184   227   226    1
   185   227   228    1
   186   190   189    2
   187   226   225    1
   188   203   202    1
   189   189   192   am
   190   222   225    1
   191   222   223    1
   192   202   201   ar
   193   202   200   ar
   194   201   199   ar
   195   192   193    1
   196   200   198   ar
   197   199   197   ar
   198   223   224    2
   199   220   218   ar
   200   198   197   ar
   201   193   196    1
   202   193   194    1
   203   197   196    1
   204   216   215    2
   205   218   219   ar
   206   218   217    1
   207   194   195    2
   208   194   204   am
   209   215   214    1
   210   214   217    1
   211   214   213    1
   212   204   205    1
   213   205   208    1
   214   205   206    1
   215   208   209    1
   216   206   207    2
   217   212   210   ar
   218   210   209    1
   219   210   211   ar
