@<TRIPOS>MOLECULE
tmp/3ubnA00.pdb
 158 152 0 0 0
SMALL
GASTEIGER

@<TRIPOS>ATOM
      1  N         19.2500  -10.4410   -7.2680 N.3    91  TYR91      -0.1241
      2  CA        19.9350  -10.8100   -8.5040 C.3    91  TYR91       0.1605
      3  C         20.2100  -12.3120   -8.4890 C.2    91  TYR91       0.2264
      4  O         20.9220  -12.8070   -7.6160 O.2    91  TYR91      -0.2867
      5  CB        21.2400  -10.0300   -8.6830 C.3    91  TYR91       0.0534
      6  CG        21.7160   -9.9730  -10.1210 C.ar   91  TYR91      -0.0201
      7  CD1       22.1710  -11.1140  -10.7690 C.ar   91  TYR91      -0.0009
      8  CD2       21.7080   -8.7790  -10.8290 C.ar   91  TYR91      -0.0009
      9  CE1       22.6030  -11.0680  -12.0830 C.ar   91  TYR91       0.0417
     10  CE2       22.1380   -8.7220  -12.1420 C.ar   91  TYR91       0.0417
     11  CZ        22.5850   -9.8690  -12.7630 C.ar   91  TYR91       0.1957
     12  OH        23.0130   -9.8150  -14.0690 O.3    91  TYR91      -0.2866
     13  N         27.4310    3.0500  -11.4270 N.3   130  LYS130     -0.1231
     14  CA        26.5780    2.4900  -12.4700 C.3   130  LYS130      0.1693
     15  C         26.1330    1.0640  -12.1660 C.2   130  LYS130      0.2593
     16  O         25.3600    0.4730  -12.9210 O.2   130  LYS130     -0.2718
     17  CB        27.2990    2.5170  -13.8160 C.3   130  LYS130      0.0285
     18  CG        27.6270    3.9070  -14.3130 C.3   130  LYS130      0.0035
     19  CD        28.3120    3.8460  -15.6610 C.3   130  LYS130      0.0206
     20  CE        28.6170    5.2350  -16.1810 C.3   130  LYS130      0.1093
     21  NZ        29.2480    5.1790  -17.5250 N.3   130  LYS130     -0.1314
     22  N         26.6230    0.5150  -11.0600 N.am  131  GLY131     -0.1942
     23  CA        26.3500   -0.8680  -10.7110 C.3   131  GLY131      0.2014
     24  C         24.9750   -1.0930  -10.1110 C.2   131  GLY131      0.2639
     25  O         24.8520   -1.4910   -8.9540 O.2   131  GLY131     -0.2714
     26  N         23.9380   -0.8500  -10.9040 N.am  132  VAL132     -0.1963
     27  CA        22.5680   -0.9970  -10.4340 C.3   132  VAL132      0.1727
     28  C         21.7630   -1.8550  -11.4030 C.2   132  VAL132      0.2617
     29  O         22.2190   -2.1500  -12.5070 O.2   132  VAL132     -0.2715
     30  CB        21.8860    0.3730  -10.2790 C.3   132  VAL132      0.0290
     31  CG1       22.5680    1.1840   -9.1840 C.3   132  VAL132      0.0023
     32  CG2       21.9100    1.1230  -11.5980 C.3   132  VAL132      0.0023
     33  N         20.5670   -2.2560  -10.9880 N.am  133  THR133     -0.1937
     34  CA        19.7320   -3.1220  -11.8140 C.3   133  THR133      0.2028
     35  C         18.2760   -3.1140  -11.3790 C.2   133  THR133      0.2642
     36  O         17.9640   -2.8850  -10.2110 O.2   133  THR133     -0.2714
     37  CB        20.2320   -4.5780  -11.7960 C.3   133  THR133      0.1808
     38  OG1       19.2460   -5.4300  -12.3950 O.3   133  THR133     -0.2208
     39  CG2       20.4810   -5.0360  -10.3670 C.3   133  THR133      0.0379
     40  N         17.3900   -3.3830  -12.3310 N.am  134  ALA134     -0.1977
     41  CA        15.9640   -3.4540  -12.0500 C.3   134  ALA134      0.1597
     42  C         15.6230   -4.6930  -11.2300 C.2   134  ALA134      0.2287
     43  O         14.5510   -4.7740  -10.6310 O.2   134  ALA134     -0.2864
     44  CB        15.1630   -3.4290  -13.3440 C.3   134  ALA134      0.0319
     45  N         16.4010    1.7490  -10.3720 N.3   142  LYS142     -0.1245
     46  CA        17.4000    0.6910  -10.3530 C.3   142  LYS142      0.1561
     47  C         18.2670    0.8530   -9.1110 C.2   142  LYS142      0.2260
     48  O         18.5400    1.9730   -8.6820 O.2   142  LYS142     -0.2867
     49  CB        18.2820    0.7680  -11.5980 C.3   142  LYS142      0.0271
     50  CG        17.5730    0.5270  -12.9190 C.3   142  LYS142      0.0035
     51  CD        18.5310    0.7570  -14.0810 C.3   142  LYS142      0.0206
     52  CE        17.8440    0.5810  -15.4230 C.3   142  LYS142      0.1093
     53  NZ        18.7390    0.9380  -16.5580 N.3   142  LYS142     -0.1314
     54  N         28.9430   -3.1260   -7.1630 N.3   150  TRP150     -0.1241
     55  CA        29.1140   -3.7280   -8.4790 C.3   150  TRP150      0.1605
     56  C         29.9760   -2.8320   -9.3610 C.2   150  TRP150      0.2264
     57  O         29.4570   -2.0290  -10.1410 O.2   150  TRP150     -0.2867
     58  CB        27.7500   -3.9560   -9.1320 C.3   150  TRP150      0.0550
     59  CG        27.8100   -4.6760  -10.4470 C.ar  150  TRP150      0.0003
     60  CD1       28.9300   -5.0680  -11.1180 C.ar  150  TRP150      0.0946
     61  CD2       26.6960   -5.0910  -11.2460 C.ar  150  TRP150      0.0152
     62  NE1       28.5820   -5.7010  -12.2890 N.ar  150  TRP150     -0.2442
     63  CE2       27.2170   -5.7280  -12.3890 C.ar  150  TRP150      0.0810
     64  CE3       25.3090   -4.9860  -11.1040 C.ar  150  TRP150      0.0012
     65  CZ2       26.3990   -6.2570  -13.3860 C.ar  150  TRP150      0.0191
     66  CZ3       24.4970   -5.5120  -12.0960 C.ar  150  TRP150      0.0001
     67  CH2       25.0460   -6.1400  -13.2220 C.ar  150  TRP150      0.0015
     68  N         32.0850   -1.2760  -12.2520 N.3   152  VAL152     -0.1245
     69  CA        32.0640   -1.3410  -13.7030 C.3   152  VAL152      0.1561
     70  C         33.1810   -0.4610  -14.2440 C.2   152  VAL152      0.2260
     71  O         33.7280    0.3650  -13.5150 O.2   152  VAL152     -0.2867
     72  CB        30.7060   -0.8800  -14.2600 C.3   152  VAL152      0.0252
     73  CG1       30.6910   -0.9700  -15.7770 C.3   152  VAL152      0.0019
     74  CG2       29.5930   -1.7250  -13.6680 C.3   152  VAL152      0.0019
     75  N         29.9650  -11.6170  -10.9940 N.3   180  HIS180     -0.1241
     76  CA        28.9270  -11.4570  -12.0080 C.3   180  HIS180      0.1621
     77  C         29.2330  -12.2310  -13.2880 C.2   180  HIS180      0.2264
     78  O         30.3590  -12.2160  -13.7820 O.2   180  HIS180     -0.2867
     79  CB        28.7020   -9.9800  -12.3440 C.3   180  HIS180      0.0745
     80  CG        27.6350   -9.7580  -13.3700 C.ar  180  HIS180      0.0817
     81  ND1       27.9140   -9.5420  -14.7020 N.ar  180  HIS180     -0.2268
     82  CD2       26.2850   -9.7300  -13.2600 C.ar  180  HIS180      0.1154
     83  CE1       26.7830   -9.3860  -15.3680 C.ar  180  HIS180      0.1986
     84  NE2       25.7800   -9.4960  -14.5150 N.ar  180  HIS180     -0.2212
     85  N         27.8920  -12.3190  -17.0750 N.3   182  PRO182     -0.2102
     86  CA        27.0590  -11.8030  -18.1660 C.3   182  PRO182      0.1504
     87  C         26.4500  -12.9390  -18.9770 C.2   182  PRO182      0.2576
     88  O         26.9220  -14.0750  -18.9060 O.2   182  PRO182     -0.2718
     89  CB        28.0590  -11.0330  -19.0360 C.3   182  PRO182      0.0282
     90  CG        29.1830  -10.6970  -18.1170 C.3   182  PRO182      0.0208
     91  CD        29.2820  -11.8420  -17.1660 C.3   182  PRO182      0.0893
     92  N         25.4120  -12.6290  -19.7450 N.am  183  SER183     -0.1953
     93  CA        24.7730  -13.6190  -20.6020 C.3   183  SER183      0.1924
     94  C         25.3520  -13.5980  -22.0150 C.2   183  SER183      0.2314
     95  O         25.1450  -14.5310  -22.7880 O.2   183  SER183     -0.2863
     96  CB        23.2620  -13.3840  -20.6500 C.3   183  SER183      0.2116
     97  OG        22.9630  -12.1190  -21.2160 O.3   183  SER183     -0.2180
     98  N         27.8540   -7.9440  -23.5140 N.3   187  ASP187     -0.1239
     99  CA        27.6260   -7.4430  -22.1620 C.3   187  ASP187      0.1674
    100  C         28.9090   -7.5070  -21.3390 C.2   187  ASP187      0.2266
    101  O         29.1560   -6.6510  -20.4870 O.2   187  ASP187     -0.2867
    102  CB        26.5010   -8.2160  -21.4680 C.3   187  ASP187      0.1410
    103  CG        25.1240   -7.8140  -21.9640 C.2   187  ASP187      0.3668
    104  OD1       24.2690   -8.7080  -22.1330 O.co2 187  ASP187     -0.2456
    105  OD2       24.8930   -6.6050  -22.1820 O.co2 187  ASP187     -0.2456
    106  N         30.7820   -4.5290  -22.6240 N.3   190  SER190     -0.1202
    107  CA        30.0630   -3.3220  -22.2380 C.3   190  SER190      0.2020
    108  C         30.2550   -3.0300  -20.7560 C.2   190  SER190      0.2618
    109  O         30.1770   -1.8810  -20.3260 O.2   190  SER190     -0.2717
    110  CB        28.5720   -3.4510  -22.5560 C.3   190  SER190      0.2103
    111  OG        28.3540   -3.6020  -23.9460 O.3   190  SER190     -0.2182
    112  N         30.5100   -4.0740  -19.9760 N.am  191  LEU191     -0.1979
    113  CA        30.6440   -3.9250  -18.5310 C.3   191  LEU191      0.1596
    114  C         32.0930   -3.7720  -18.0800 C.2   191  LEU191      0.2287
    115  O         32.4100   -2.8980  -17.2730 O.2   191  LEU191     -0.2864
    116  CB        29.9960   -5.1100  -17.8010 C.3   191  LEU191      0.0297
    117  CG        28.4660   -5.2000  -17.8320 C.3   191  LEU191      0.0022
    118  CD1       27.9940   -6.5960  -17.4440 C.3   191  LEU191      0.0001
    119  CD2       27.8420   -4.1430  -16.9330 C.3   191  LEU191      0.0001
    120  N         15.3740  -16.7830  -17.7130 N.3   219  LYS219     -0.1245
    121  CA        15.1940  -15.4840  -17.0810 C.3   219  LYS219      0.1561
    122  C         14.6160  -15.5990  -15.6730 C.2   219  LYS219      0.2260
    123  O         13.5890  -16.2450  -15.4560 O.2   219  LYS219     -0.2867
    124  CB        14.3080  -14.5990  -17.9580 C.3   219  LYS219      0.0271
    125  CG        14.2110  -13.1590  -17.4980 C.3   219  LYS219      0.0035
    126  CD        13.9220  -12.2300  -18.6670 C.3   219  LYS219      0.0206
    127  CE        15.0450  -12.2830  -19.6930 C.3   219  LYS219      0.1093
    128  NZ        14.8670  -11.2850  -20.7840 N.3   219  LYS219     -0.1314
    129  N         13.8830  -11.1910  -14.3670 N.3   222  ASP222     -0.1225
    130  CA        14.1750  -10.4300  -15.5810 C.3   222  ASP222      0.1805
    131  C         15.6630  -10.4010  -15.9320 C.2   222  ASP222      0.2598
    132  O         16.1190   -9.5210  -16.6630 O.2   222  ASP222     -0.2718
    133  CB        13.6160   -9.0060  -15.4830 C.3   222  ASP222      0.1424
    134  CG        13.5850   -8.2980  -16.8240 C.2   222  ASP222      0.3668
    135  OD1       13.4960   -8.9880  -17.8620 O.co2 222  ASP222     -0.2456
    136  OD2       13.6480   -7.0510  -16.8410 O.co2 222  ASP222     -0.2456
    137  N         16.4130  -11.3730  -15.4250 N.am  223  GLN223     -0.1965
    138  CA        17.8470  -11.4330  -15.6860 C.3   223  GLN223      0.1733
    139  C         18.2470  -12.7470  -16.3500 C.2   223  GLN223      0.2616
    140  O         17.8640  -13.8240  -15.8930 O.2   223  GLN223     -0.2715
    141  CB        18.6330  -11.2410  -14.3880 C.3   223  GLN223      0.0408
    142  CG        18.2480   -9.9930  -13.6140 C.3   223  GLN223      0.0908
    143  CD        18.4900   -8.7200  -14.3990 C.2   223  GLN223      0.2608
    144  OE1       19.4120   -8.6420  -15.2120 O.2   223  GLN223     -0.2717
    145  NE2       17.6580   -7.7130  -14.1610 N.am  223  GLN223     -0.0878
    146  N         19.0150  -12.6490  -17.4310 N.am  224  GLU224     -0.1963
    147  CA        19.5210  -13.8280  -18.1230 C.3   224  GLU224      0.1733
    148  C         20.9110  -14.1840  -17.6170 C.2   224  GLU224      0.2616
    149  O         21.3620  -15.3220  -17.7520 O.2   224  GLU224     -0.2715
    150  CB        19.5520  -13.5980  -19.6360 C.3   224  GLU224      0.0429
    151  CG        18.1780  -13.5830  -20.2880 C.3   224  GLU224      0.1163
    152  CD        18.2440  -13.4540  -21.8000 C.2   224  GLU224      0.3649
    153  OE1       19.2650  -12.9510  -22.3160 O.co2 224  GLU224     -0.2457
    154  OE2       17.2720  -13.8600  -22.4720 O.co2 224  GLU224     -0.2457
    155  N         21.5880  -13.1980  -17.0370 N.am  225  GLY225     -0.1955
    156  CA        22.9020  -13.4090  -16.4610 C.3   225  GLY225      0.1869
    157  C         22.8020  -13.9280  -15.0410 C.2   225  GLY225      0.2309
    158  O         21.7050  -14.0330  -14.4890 O.2   225  GLY225     -0.2863
@<TRIPOS>BOND
     1   111   110    1
     2    98    99    1
     3    95    94    2
     4   106   107    1
     5   110   107    1
     6   154   152   ar
     7   153   152   ar
     8   107   108    1
     9   105   103   ar
    10    99   102    1
    11    99   100    1
    12   104   103   ar
    13    94    93    1
    14   103   102    1
    15   152   151    1
    16   100   101    2
    17    97    96    1
    18   128   127    1
    19   108   109    2
    20   108   112   am
    21    96    93    1
    22    93    92    1
    23   151   150    1
    24   112   113    1
    25    92    87   am
    26   127   126    1
    27   150   147    1
    28    89    86    1
    29    89    90    1
    30    87    88    2
    31    87    86    1
    32   126   125    1
    33   113   114    1
    34   113   116    1
    35    86    85    1
    36   147   148    1
    37   147   146    1
    38    90    91    1
    39   114   115    2
    40   124   125    1
    41   124   121    1
    42   135   134   ar
    43   117   116    1
    44   117   118    1
    45   117   119    1
    46   149   148    2
    47   120   121    1
    48   148   155   am
    49    21    20    1
    50   146   139   am
    51    91    85    1
    52   121   122    1
    53   155   156    1
    54   136   134   ar
    55   134   133    1
    56   132   131    2
    57    53    52    1
    58   156   157    1
    59   139   140    2
    60   139   138    1
    61    20    19    1
    62   131   130    1
    63   131   137   am
    64    73    72    1
    65   138   137    1
    66   138   141    1
    67   122   123    2
    68    19    18    1
    69   130   133    1
    70   130   129    1
    71    52    51    1
    72    83    81   ar
    73    83    84   ar
    74   144   143    2
    75   157   158    2
    76    81    80   ar
    77    84    82   ar
    78   143   145   am
    79   143   142    1
    80   141   142    1
    81    18    17    1
    82    72    69    1
    83    72    74    1
    84    70    69    1
    85    70    71    2
    86    51    50    1
    87    12    11    1
    88    17    14    1
    89    78    77    2
    90    69    68    1
    91    65    67   ar
    92    65    63   ar
    93    80    82   ar
    94    80    79    1
    95    44    41    1
    96    77    76    1
    97    67    66   ar
    98    16    15    2
    99    50    49    1
   100    11    10   ar
   101    11     9   ar
   102    29    28    2
   103    14    15    1
   104    14    13    1
   105    38    37    1
   106    63    62   ar
   107    63    61   ar
   108    79    76    1
   109    40    41    1
   110    40    35   am
   111    62    60   ar
   112    15    22   am
   113    10     8   ar
   114    66    64   ar
   115     9     7   ar
   116    41    42    1
   117    76    75    1
   118    34    37    1
   119    34    35    1
   120    34    33    1
   121    37    39    1
   122    49    46    1
   123    32    30    1
   124    28    33   am
   125    28    27    1
   126    35    36    2
   127    61    64   ar
   128    61    59   ar
   129    42    43    2
   130    60    59   ar
   131    22    23    1
   132    26    27    1
   133    26    24   am
   134     8     6   ar
   135     7     6   ar
   136    23    24    1
   137    59    58    1
   138    27    30    1
   139    45    46    1
   140    46    47    1
   141    30    31    1
   142    57    56    2
   143     6     5    1
   144    24    25    2
   145    56    55    1
   146    58    55    1
   147    47    48    2
   148     5     2    1
   149     2     3    1
   150     2     1    1
   151     3     4    2
   152    55    54    1
