@<TRIPOS>MOLECULE
tmp/3ubnA02.pdb
 89 85 0 0 0
SMALL
GASTEIGER

@<TRIPOS>ATOM
      1  N         10.4630   -9.4240    6.4610 N.3    54  LYS54      -0.1245
      2  CA        10.1140   -9.9990    5.1680 C.3    54  LYS54       0.1561
      3  C         11.3420  -10.4980    4.4090 C.2    54  LYS54       0.2260
      4  O         11.2320  -10.9550    3.2730 O.2    54  LYS54      -0.2867
      5  CB         9.3560   -8.9750    4.3160 C.3    54  LYS54       0.0271
      6  CG        10.1460   -7.7130    4.0160 C.3    54  LYS54       0.0035
      7  CD         9.4530   -6.8520    2.9700 C.3    54  LYS54       0.0206
      8  CE        10.2960   -5.6340    2.6130 C.3    54  LYS54       0.1093
      9  NZ         9.7280   -4.8380    1.4850 N.3    54  LYS54      -0.1314
     10  N         20.0980   -6.4170    0.5760 N.3    64  ASN64      -0.1226
     11  CA        18.9170   -6.2270   -0.2570 C.3    64  ASN64       0.1770
     12  C         18.1560   -4.9740    0.1630 C.2    64  ASN64       0.2439
     13  O         17.8300   -4.8060    1.3390 O.2    64  ASN64      -0.2733
     14  CB        18.0050   -7.4550   -0.1760 C.3    64  ASN64       0.1168
     15  CG        16.7850   -7.3470   -1.0810 C.2    64  ASN64       0.2627
     16  OD1       16.1230   -6.3090   -1.1400 O.2    64  ASN64      -0.2716
     17  ND2       16.4810   -8.4280   -1.7870 N.am   64  ASN64      -0.0877
     18  N         17.8700   -4.0910   -0.8060 N.am   65  PRO65      -0.2718
     19  CA        17.2240   -2.7930   -0.5770 C.3    65  PRO65       0.1535
     20  C         15.9830   -2.8710    0.3170 C.2    65  PRO65       0.2598
     21  O         15.6580   -1.8980    1.0000 O.2    65  PRO65      -0.2715
     22  CB        16.8300   -2.3530   -1.9890 C.3    65  PRO65       0.0310
     23  CG        17.8360   -2.9960   -2.8680 C.3    65  PRO65       0.0237
     24  CD        18.1340   -4.3280   -2.2360 C.3    65  PRO65       0.0939
     25  N         15.3030   -4.0130    0.3160 N.am   66  GLU66      -0.1978
     26  CA        14.0650   -4.1620    1.0780 C.3    66  GLU66       0.1602
     27  C         14.3260   -4.5950    2.5210 C.2    66  GLU66       0.2287
     28  O         13.3950   -4.9250    3.2560 O.2    66  GLU66      -0.2864
     29  CB        13.1420   -5.1770    0.3980 C.3    66  GLU66       0.0415
     30  CG        12.9670   -4.9770   -1.1040 C.3    66  GLU66       0.1163
     31  CD        12.0820   -3.7930   -1.4480 C.2    66  GLU66       0.3649
     32  OE1       11.3690   -3.2980   -0.5500 O.co2  66  GLU66      -0.2457
     33  OE2       12.0970   -3.3590   -2.6200 O.co2  66  GLU66      -0.2457
     34  N          7.0210  -16.7310    4.4730 N.3    84  SER84      -0.1217
     35  CA         6.9220  -16.0610    3.1790 C.3    84  SER84       0.1889
     36  C          8.0320  -15.0400    2.9270 C.2    84  SER84       0.2288
     37  O          7.9920  -14.3090    1.9390 O.2    84  SER84      -0.2866
     38  CB         5.5520  -15.3930    3.0260 C.3    84  SER84       0.2089
     39  OG         5.3550  -14.4000    4.0190 O.3    84  SER84      -0.2183
     40  N         10.5500  -13.6170    1.3050 N.3    86  ASP86      -0.1225
     41  CA        11.0740  -13.8800   -0.0310 C.3    86  ASP86       0.1805
     42  C         12.2720  -13.0120   -0.4100 C.2    86  ASP86       0.2598
     43  O         13.1020  -13.4190   -1.2240 O.2    86  ASP86      -0.2718
     44  CB         9.9680  -13.7370   -1.0800 C.3    86  ASP86       0.1424
     45  CG         9.1430  -15.0000   -1.2320 C.2    86  ASP86       0.3668
     46  OD1        8.0510  -15.0810   -0.6300 O.co2  86  ASP86      -0.2456
     47  OD2        9.5870  -15.9160   -1.9580 O.co2  86  ASP86      -0.2456
     48  N         12.3620  -11.8190    0.1710 N.am   87  ASN87      -0.1960
     49  CA        13.4410  -10.8920   -0.1690 C.3    87  ASN87       0.1819
     50  C         14.8250  -11.4050    0.2240 C.2    87  ASN87       0.2621
     51  O         15.2640  -11.2330    1.3610 O.2    87  ASN87      -0.2715
     52  CB        13.1890   -9.5090    0.4370 C.3    87  ASN87       0.1195
     53  CG        12.0340   -8.7830   -0.2280 C.2    87  ASN87       0.2630
     54  OD1       11.1370   -8.2740    0.4440 O.2    87  ASN87      -0.2716
     55  ND2       12.0500   -8.7360   -1.5570 N.am   87  ASN87      -0.0877
     56  N         15.5050  -12.0320   -0.7300 N.am   88  GLY88      -0.1954
     57  CA        16.8450  -12.5440   -0.5130 C.3    88  GLY88       0.1869
     58  C         17.8100  -12.0470   -1.5730 C.2    88  GLY88       0.2309
     59  O         18.1630  -10.8690   -1.5950 O.2    88  GLY88      -0.2863
     60  N         18.0550  -10.7670   -4.7840 N.3    90  CYS90      -0.1235
     61  CA        17.2770  -10.1590   -5.8580 C.3    90  CYS90       0.1677
     62  C         17.9260  -10.3270   -7.2350 C.2    90  CYS90       0.2270
     63  O         17.2350  -10.3470   -8.2520 O.2    90  CYS90      -0.2867
     64  CB        16.9980   -8.6840   -5.5530 C.3    90  CYS90       0.0956
     65  SG        18.3790   -7.7940   -4.7990 S.3    90  CYS90      -0.0801
     66  N         17.0700   -5.5070   -8.5270 N.3   136  CYS136     -0.1221
     67  CA        17.0820   -5.0440   -7.1420 C.3   136  CYS136      0.1794
     68  C         16.6690   -3.5780   -7.0730 C.2   136  CYS136      0.2443
     69  O         17.5010   -2.7030   -6.8430 O.2   136  CYS136     -0.2733
     70  CB        18.4690   -5.2310   -6.5190 C.3   136  CYS136      0.0970
     71  SG        19.0820   -6.9280   -6.5230 S.3   136  CYS136     -0.0800
     72  N         15.3720   -3.3100   -7.2820 N.am  137  PRO137     -0.2729
     73  CA        14.8390   -1.9460   -7.3080 C.3   137  PRO137      0.1401
     74  C         14.5930   -1.4120   -5.9030 C.2   137  PRO137      0.2269
     75  O         14.1880   -2.1640   -5.0170 O.2   137  PRO137     -0.2865
     76  CB        13.5120   -2.1170   -8.0440 C.3   137  PRO137      0.0296
     77  CG        13.0690   -3.4960   -7.6700 C.3   137  PRO137      0.0237
     78  CD        14.3250   -4.3200   -7.5220 C.3   137  PRO137      0.0939
     79  N         13.7320  -13.0230  -12.3760 N.3   221  ARG221     -0.1245
     80  CA        13.6100  -11.6180  -12.0020 C.3   221  ARG221      0.1563
     81  C         14.1040  -10.7260  -13.1390 C.2   221  ARG221      0.2260
     82  O         14.6720   -9.6590  -12.9080 O.2   221  ARG221     -0.2867
     83  CB        14.3620  -11.3200  -10.7000 C.3   221  ARG221      0.0307
     84  CG        13.7890  -12.0350   -9.4810 C.3   221  ARG221      0.0489
     85  CD        14.4680  -11.5990   -8.1910 C.3   221  ARG221      0.2205
     86  NE        14.3450  -10.1630   -7.9590 N.pl3 221  ARG221     -0.0865
     87  CZ        13.2950   -9.5820   -7.3890 C.cat 221  ARG221      0.5346
     88  NH1       12.2620  -10.3130   -6.9940 N.pl3 221  ARG221      0.1354
     89  NH2       13.2760   -8.2670   -7.2190 N.pl3 221  ARG221      0.1354
@<TRIPOS>BOND
     1    81    82    2
     2    81    80    1
     3    79    80    1
     4    80    83    1
     5    83    84    1
     6    84    85    1
     7    66    67    1
     8    63    62    2
     9    85    86    1
    10    76    77    1
    11    76    73    1
    12    86    87    2
    13    77    78    1
    14    78    72    1
    15    87    89    1
    16    87    88    1
    17    73    72    1
    18    73    74    1
    19    72    68   am
    20    62    61    1
    21    67    68    1
    22    67    70    1
    23    68    69    2
    24    71    70    1
    25    71    65    1
    26    74    75    2
    27    61    64    1
    28    61    60    1
    29    64    65    1
    30    23    24    1
    31    23    22    1
    32    33    31   ar
    33    24    18    1
    34    22    19    1
    35    47    45   ar
    36    17    15   am
    37    59    58    2
    38    58    57    1
    39    55    53   am
    40    31    30    1
    41    31    32   ar
    42    45    44    1
    43    45    46   ar
    44    43    42    2
    45    16    15    2
    46    30    29    1
    47    15    14    1
    48    44    41    1
    49    18    19    1
    50    18    12   am
    51    56    57    1
    52    56    50   am
    53    19    20    1
    54    42    41    1
    55    42    48   am
    56    11    14    1
    57    11    12    1
    58    11    10    1
    59    53    52    1
    60    53    54    2
    61    49    48    1
    62    49    50    1
    63    49    52    1
    64    41    40    1
    65    12    13    2
    66    50    51    2
    67    25    20   am
    68    25    26    1
    69    20    21    2
    70    29    26    1
    71    26    27    1
    72     9     8    1
    73    37    36    2
    74    27    28    2
    75     8     7    1
    76    36    35    1
    77     7     6    1
    78    38    35    1
    79    38    39    1
    80    35    34    1
    81     4     3    2
    82     6     5    1
    83     5     2    1
    84     3     2    1
    85     2     1    1
