@<TRIPOS>MOLECULE
tmp/3ubnG01.pdb
 152 146 0 0 0
SMALL
GASTEIGER

@<TRIPOS>ATOM
      1  N         36.6210   19.5920   -9.5510 N.3    89  TYR89      -0.1241
      2  CA        37.8830   19.9130  -10.2120 C.3    89  TYR89       0.1605
      3  C         39.0340   19.5670   -9.2760 C.2    89  TYR89       0.2264
      4  O         39.1930   20.1930   -8.2320 O.2    89  TYR89      -0.2867
      5  CB        37.9510   21.3910  -10.6090 C.3    89  TYR89       0.0534
      6  CG        38.9620   21.6700  -11.7050 C.ar   89  TYR89      -0.0201
      7  CD1       40.3280   21.6370  -11.4470 C.ar   89  TYR89      -0.0009
      8  CD2       38.5490   21.9600  -12.9990 C.ar   89  TYR89      -0.0009
      9  CE1       41.2520   21.8850  -12.4490 C.ar   89  TYR89       0.0417
     10  CE2       39.4650   22.2100  -14.0060 C.ar   89  TYR89       0.0417
     11  CZ        40.8140   22.1720  -13.7270 C.ar   89  TYR89       0.1957
     12  OH        41.7230   22.4210  -14.7320 O.3    89  TYR89      -0.2866
     13  N         32.8160   32.0020  -19.2810 N.3   128  LYS128     -0.1231
     14  CA        33.4240   30.8440  -19.9260 C.3   128  LYS128      0.1693
     15  C         33.9910   29.8560  -18.9130 C.2   128  LYS128      0.2593
     16  O         34.4360   28.7710  -19.2800 O.2   128  LYS128     -0.2718
     17  CB        34.5280   31.2860  -20.8900 C.3   128  LYS128      0.0285
     18  CG        34.0500   32.1810  -22.0200 C.3   128  LYS128      0.0035
     19  CD        35.2140   32.6320  -22.8880 C.3   128  LYS128      0.0206
     20  CE        34.7640   33.5840  -23.9850 C.3   128  LYS128      0.1093
     21  NZ        33.8690   32.9220  -24.9720 N.3   128  LYS128     -0.1314
     22  N         33.9700   30.2340  -17.6400 N.am  129  GLY129     -0.1942
     23  CA        34.5690   29.4210  -16.5970 C.3   129  GLY129      0.2014
     24  C         33.7950   28.1570  -16.2800 C.2   129  GLY129      0.2639
     25  O         33.2520   28.0120  -15.1840 O.2   129  GLY129     -0.2714
     26  N         33.7470   27.2360  -17.2360 N.am  130  VAL130     -0.1963
     27  CA        33.0540   25.9680  -17.0410 C.3   130  VAL130      0.1727
     28  C         33.9650   24.8000  -17.4210 C.2   130  VAL130      0.2617
     29  O         34.9470   24.9800  -18.1390 O.2   130  VAL130     -0.2715
     30  CB        31.7450   25.9150  -17.8480 C.3   130  VAL130      0.0290
     31  CG1       30.8120   27.0310  -17.4000 C.3   130  VAL130      0.0023
     32  CG2       32.0300   26.0280  -19.3350 C.3   130  VAL130      0.0023
     33  N         33.6450   23.6080  -16.9300 N.am  131  THR131     -0.1937
     34  CA        34.4980   22.4440  -17.1490 C.3   131  THR131      0.2028
     35  C         33.7050   21.1440  -17.1990 C.2   131  THR131      0.2642
     36  O         32.6690   21.0110  -16.5490 O.2   131  THR131     -0.2714
     37  CB        35.5880   22.3360  -16.0590 C.3   131  THR131      0.1808
     38  OG1       36.1620   21.0230  -16.0750 O.3   131  THR131     -0.2208
     39  CG2       34.9970   22.6020  -14.6860 C.3   131  THR131      0.0379
     40  N         34.1960   20.1870  -17.9780 N.am  132  ALA132     -0.1977
     41  CA        33.5640   18.8790  -18.0550 C.3   132  ALA132      0.1597
     42  C         33.7840   18.1120  -16.7570 C.2   132  ALA132      0.2287
     43  O         33.1430   17.0910  -16.5120 O.2   132  ALA132     -0.2864
     44  CB        34.1020   18.0960  -19.2380 C.3   132  ALA132      0.0319
     45  N         28.8400   21.1130  -19.4970 N.3   140  LYS140     -0.1245
     46  CA        29.9050   21.6770  -18.6770 C.3   140  LYS140      0.1561
     47  C         29.3730   22.7480  -17.7320 C.2   140  LYS140      0.2260
     48  O         28.5940   23.6120  -18.1340 O.2   140  LYS140     -0.2867
     49  CB        30.9950   22.2760  -19.5640 C.3   140  LYS140      0.0271
     50  CG        31.6580   21.2760  -20.4930 C.3   140  LYS140      0.0035
     51  CD        32.8330   21.9030  -21.2280 C.3   140  LYS140      0.0206
     52  CE        32.3940   23.0970  -22.0570 C.3   140  LYS140      0.1093
     53  NZ        33.5430   23.7260  -22.7610 N.3   140  LYS140     -0.1314
     54  N         35.2750   31.3390  -12.3340 N.3   148  TRP148     -0.1241
     55  CA        36.5640   31.1300  -12.9820 C.3   148  TRP148      0.1605
     56  C         36.8100   32.2020  -14.0460 C.2   148  TRP148      0.2264
     57  O         36.3440   32.0850  -15.1810 O.2   148  TRP148     -0.2867
     58  CB        36.5960   29.7360  -13.6130 C.3   148  TRP148      0.0550
     59  CG        37.9460   29.2890  -14.0910 C.ar  148  TRP148      0.0003
     60  CD1       39.1090   30.0010  -14.0560 C.ar  148  TRP148      0.0946
     61  CD2       38.2690   28.0220  -14.6760 C.ar  148  TRP148      0.0152
     62  NE1       40.1360   29.2560  -14.5840 N.ar  148  TRP148     -0.2442
     63  CE2       39.6450   28.0360  -14.9720 C.ar  148  TRP148      0.0810
     64  CE3       37.5260   26.8760  -14.9780 C.ar  148  TRP148      0.0012
     65  CZ2       40.2960   26.9490  -15.5550 C.ar  148  TRP148      0.0191
     66  CZ3       38.1720   25.7990  -15.5570 C.ar  148  TRP148      0.0001
     67  CH2       39.5430   25.8430  -15.8400 C.ar  148  TRP148      0.0015
     68  N         38.5670   34.4040  -16.8840 N.3   150  VAL150     -0.1245
     69  CA        39.4660   34.1900  -18.0110 C.3   150  VAL150      0.1561
     70  C         39.7480   35.5360  -18.6760 C.2   150  VAL150      0.2260
     71  O         39.0000   36.4950  -18.4820 O.2   150  VAL150     -0.2867
     72  CB        38.8470   33.2060  -19.0280 C.3   150  VAL150      0.0252
     73  CG1       39.5930   33.2380  -20.3490 C.3   150  VAL150      0.0019
     74  CG2       38.8280   31.7960  -18.4520 C.3   150  VAL150      0.0019
     75  N         43.8460   28.4710   -9.9260 N.3   178  HIS178     -0.1241
     76  CA        43.9390   27.4700  -10.9870 C.3   178  HIS178      0.1621
     77  C         45.3680   27.2990  -11.4820 C.2   178  HIS178      0.2264
     78  O         46.0980   28.2740  -11.6550 O.2   178  HIS178     -0.2867
     79  CB        43.0200   27.8200  -12.1610 C.3   178  HIS178      0.0745
     80  CG        43.0910   26.8450  -13.2940 C.ar  178  HIS178      0.0817
     81  ND1       43.6460   27.1610  -14.5160 N.ar  178  HIS178     -0.2268
     82  CD2       42.6890   25.5550  -13.3870 C.ar  178  HIS178      0.1154
     83  CE1       43.5760   26.1110  -15.3140 C.ar  178  HIS178      0.1986
     84  NE2       43.0000   25.1230  -14.6530 N.ar  178  HIS178     -0.2212
     85  N         47.2490   25.5810  -14.6060 N.3   180  PRO180     -0.2102
     86  CA        47.2530   24.9040  -15.9070 C.3   180  PRO180      0.1504
     87  C         48.3630   23.8640  -15.9840 C.2   180  PRO180      0.2576
     88  O         49.3620   23.9800  -15.2750 O.2   180  PRO180     -0.2718
     89  CB        47.5270   26.0440  -16.8930 C.3   180  PRO180      0.0282
     90  CG        47.0670   27.2800  -16.1810 C.3   180  PRO180      0.0208
     91  CD        47.4000   27.0400  -14.7410 C.3   180  PRO180      0.0893
     92  N         48.1870   22.8610  -16.8370 N.am  181  SER181     -0.1953
     93  CA        49.1790   21.8030  -16.9840 C.3   181  SER181      0.1924
     94  C         50.2930   22.1930  -17.9510 C.2   181  SER181      0.2314
     95  O         51.3670   21.5910  -17.9470 O.2   181  SER181     -0.2863
     96  CB        48.5140   20.5020  -17.4440 C.3   181  SER181      0.2116
     97  OG        47.8220   20.6840  -18.6690 O.3   181  SER181     -0.2180
     98  N         48.2620   26.5060  -22.2130 N.3   185  ASP185     -0.1239
     99  CA        47.0010   26.7170  -21.5150 C.3   185  ASP185      0.1674
    100  C         47.0680   27.9510  -20.6240 C.2   185  ASP185      0.2266
    101  O         46.1230   28.7350  -20.5620 O.2   185  ASP185     -0.2867
    102  CB        46.6250   25.4850  -20.6930 C.3   185  ASP185      0.1410
    103  CG        46.2180   24.3080  -21.5600 C.2   185  ASP185      0.3668
    104  OD1       46.8210   24.1200  -22.6390 O.co2 185  ASP185     -0.2456
    105  OD2       45.2890   23.5720  -21.1670 O.co2 185  ASP185     -0.2456
    106  N         44.6230   30.9810  -21.3260 N.3   189  LEU189     -0.1245
    107  CA        43.6380   31.3210  -20.3040 C.3   189  LEU189      0.1561
    108  C         43.8480   32.7130  -19.7280 C.2   189  LEU189      0.2260
    109  O         42.8860   33.4430  -19.4980 O.2   189  LEU189     -0.2867
    110  CB        43.6510   30.2920  -19.1680 C.3   189  LEU189      0.0270
    111  CG        42.9880   28.9360  -19.4280 C.3   189  LEU189      0.0019
    112  CD1       43.3160   27.9650  -18.3060 C.3   189  LEU189      0.0001
    113  CD2       41.4860   29.0990  -19.5830 C.3   189  LEU189      0.0001
    114  N         45.6670   12.4650  -14.5800 N.3   217  LYS217     -0.1245
    115  CA        44.3000   12.9040  -14.8390 C.3   217  LYS217      0.1561
    116  C         43.3180   12.4770  -13.7470 C.2   217  LYS217      0.2260
    117  O         43.1690   11.2920  -13.4530 O.2   217  LYS217     -0.2867
    118  CB        43.8150   12.4120  -16.2060 C.3   217  LYS217      0.0271
    119  CG        44.3500   13.2070  -17.3840 C.3   217  LYS217      0.0035
    120  CD        43.6810   12.7750  -18.6810 C.3   217  LYS217      0.0206
    121  CE        44.1080   13.6470  -19.8530 C.3   217  LYS217      0.1093
    122  NZ        43.4360   13.2430  -21.1230 N.3   217  LYS217     -0.1314
    123  N         39.5340   13.5970  -15.7790 N.3   220  ASP220     -0.1225
    124  CA        39.9870   14.0120  -17.1030 C.3   220  ASP220      0.1805
    125  C         40.7860   15.3150  -17.0760 C.2   220  ASP220      0.2598
    126  O         41.0290   15.9220  -18.1200 O.2   220  ASP220     -0.2718
    127  CB        38.8010   14.1280  -18.0650 C.3   220  ASP220      0.1424
    128  CG        39.1610   13.7300  -19.4810 C.2   220  ASP220      0.3668
    129  OD1       39.5920   14.6080  -20.2580 O.co2 220  ASP220     -0.2456
    130  OD2       39.0140   12.5360  -19.8150 O.co2 220  ASP220     -0.2456
    131  N         41.2020   15.7340  -15.8840 N.am  221  GLN221     -0.1965
    132  CA        41.9600   16.9750  -15.7320 C.3   221  GLN221      0.1733
    133  C         43.4170   16.7280  -15.3520 C.2   221  GLN221      0.2616
    134  O         43.7070   16.0030  -14.4010 O.2   221  GLN221     -0.2715
    135  CB        41.3000   17.8840  -14.6910 C.3   221  GLN221      0.0408
    136  CG        39.8490   18.2030  -14.9850 C.3   221  GLN221      0.0908
    137  CD        39.6590   18.8360  -16.3480 C.2   221  GLN221      0.2608
    138  OE1       40.5090   19.5920  -16.8200 O.2   221  GLN221     -0.2717
    139  NE2       38.5420   18.5250  -16.9920 N.am  221  GLN221     -0.0878
    140  N         44.3290   17.3370  -16.1040 N.am  222  GLU222     -0.1963
    141  CA        45.7530   17.2740  -15.7950 C.3   222  GLU222      0.1733
    142  C         46.1660   18.4970  -14.9830 C.2   222  GLU222      0.2616
    143  O         47.1850   18.4870  -14.2920 O.2   222  GLU222     -0.2715
    144  CB        46.5840   17.1810  -17.0780 C.3   222  GLU222      0.0429
    145  CG        46.4220   15.8730  -17.8330 C.3   222  GLU222      0.1163
    146  CD        47.2260   15.8340  -19.1190 C.2   222  GLU222      0.3649
    147  OE1       47.6120   16.9140  -19.6180 O.co2 222  GLU222     -0.2457
    148  OE2       47.4740   14.7220  -19.6290 O.co2 222  GLU222     -0.2457
    149  N         45.3640   19.5520  -15.0780 N.am  223  GLY223     -0.1955
    150  CA        45.5910   20.7500  -14.2950 C.3   223  GLY223      0.1869
    151  C         45.0400   20.5690  -12.8960 C.2   223  GLY223      0.2309
    152  O         44.4060   19.5560  -12.6010 O.2   223  GLY223     -0.2863
@<TRIPOS>BOND
     1    21    20    1
     2    20    19    1
     3    19    18    1
     4    53    52    1
     5   104   103   ar
     6    98    99    1
     7    52    51    1
     8    18    17    1
     9   103   105   ar
    10   103   102    1
    11    99   102    1
    12    99   100    1
    13   106   107    1
    14    51    50    1
    15   122   121    1
    16    17    14    1
    17   100   101    2
    18    50    49    1
    19    73    72    1
    20   107   108    1
    21   107   110    1
    22   129   128   ar
    23    14    13    1
    24    14    15    1
    25   121   120    1
    26   130   128   ar
    27   108   109    2
    28   148   146   ar
    29   147   146   ar
    30   113   111    1
    31    49    46    1
    32    45    46    1
    33   128   127    1
    34   111   110    1
    35   111   112    1
    36    32    30    1
    37    16    15    2
    38    44    41    1
    39   146   145    1
    40    72    74    1
    41    72    69    1
    42    15    22   am
    43   120   119    1
    44    46    47    1
    45    70    71    2
    46    70    69    1
    47    97    96    1
    48    29    28    2
    49    48    47    2
    50   126   125    2
    51   127   124    1
    52    41    40    1
    53    41    42    1
    54    69    68    1
    55    40    35   am
    56    94    95    2
    57    94    93    1
    58    30    31    1
    59    30    27    1
    60   145   144    1
    61    22    23    1
    62    96    93    1
    63    28    27    1
    64    28    33   am
    65   119   118    1
    66    26    27    1
    67    26    24   am
    68    35    34    1
    69    35    36    2
    70    34    33    1
    71    34    37    1
    72   124   125    1
    73   124   123    1
    74   144   141    1
    75   125   131   am
    76   139   137   am
    77    93    92    1
    78    89    90    1
    79    89    86    1
    80    92    87   am
    81   138   137    2
    82    42    43    2
    83    23    24    1
    84   137   136    1
    85    24    25    2
    86   118   115    1
    87    90    91    1
    88   140   141    1
    89   140   133   am
    90    38    37    1
    91    37    39    1
    92    87    86    1
    93    87    88    2
    94    86    85    1
    95   131   132    1
    96    67    66   ar
    97    67    65   ar
    98   141   142    1
    99   132   133    1
   100   132   135    1
   101    66    64   ar
   102    65    63   ar
   103   133   134    2
   104    83    84   ar
   105    83    81   ar
   106    57    56    2
   107   149   142   am
   108   149   150    1
   109   136   135    1
   110   142   143    2
   111    64    61   ar
   112    63    61   ar
   113    63    62   ar
   114   115   114    1
   115   115   116    1
   116    91    85    1
   117    12    11    1
   118    61    59   ar
   119    84    82   ar
   120    62    60   ar
   121    81    80   ar
   122   150   151    1
   123    59    60   ar
   124    59    58    1
   125    56    55    1
   126    10    11   ar
   127    10     8   ar
   128   116   117    2
   129    11     9   ar
   130    58    55    1
   131    82    80   ar
   132    80    79    1
   133     8     6   ar
   134    55    54    1
   135   151   152    2
   136     9     7   ar
   137    79    76    1
   138     6     7   ar
   139     6     5    1
   140    78    77    2
   141    77    76    1
   142    76    75    1
   143     5     2    1
   144     2     1    1
   145     2     3    1
   146     3     4    2
