@<TRIPOS>MOLECULE
tmp/3uboA00.pdb
 154 139 0 0 0
SMALL
GASTEIGER

@<TRIPOS>ATOM
      1  N         70.0250   -7.6260   15.4630 N.3    10  ASN10      -0.1240
      2  CA        70.6400   -8.8910   15.8350 C.3    10  ASN10       0.1653
      3  C         72.0200   -9.0580   15.2390 C.2    10  ASN10       0.2266
      4  O         72.1720   -9.1250   14.0050 O.2    10  ASN10      -0.2867
      5  CB        69.7440   -9.9520   15.2740 C.3    10  ASN10       0.1155
      6  CG        68.5280  -10.0700   16.0330 C.2    10  ASN10       0.2627
      7  OD1       68.6020  -10.0200   17.2720 O.2    10  ASN10      -0.2716
      8  ND2       67.3910  -10.1960   15.3720 N.am   10  ASN10      -0.0877
      9  N         74.7960  -10.9810   13.7990 N.3    12  ILE12      -0.1245
     10  CA        74.7200  -12.3380   13.2110 C.3    12  ILE12       0.1561
     11  C         75.9160  -12.6110   12.2920 C.2    12  ILE12       0.2260
     12  O         76.2910  -11.7560   11.4780 O.2    12  ILE12      -0.2867
     13  CB        73.4080  -12.5730   12.4460 C.3    12  ILE12       0.0252
     14  CG1       72.2200  -12.4330   13.4160 C.3    12  ILE12       0.0019
     15  CG2       73.4600  -13.8870   11.7420 C.3    12  ILE12       0.0019
     16  CD1       70.8940  -12.5110   12.7270 C.3    12  ILE12       0.0001
     17  N         77.1010  -14.9240    9.1890 N.3    14  ASP14      -0.1239
     18  CA        76.4840  -15.7070    8.1080 C.3    14  ASP14       0.1674
     19  C         77.3710  -16.8110    7.6000 C.2    14  ASP14       0.2266
     20  O         78.5440  -16.5740    7.1790 O.2    14  ASP14      -0.2867
     21  CB        76.1270  -14.8030    6.9150 C.3    14  ASP14       0.1410
     22  CG        74.9060  -13.9900    7.1790 C.2    14  ASP14       0.3668
     23  OD1       74.4480  -14.1260    8.3160 O.co2  14  ASP14      -0.2456
     24  OD2       74.3980  -13.2290    6.3300 O.co2  14  ASP14      -0.2456
     25  N         63.7530  -19.5250   12.0500 N.3    35  LEU35      -0.1245
     26  CA        64.2780  -19.4320   13.3680 C.3    35  LEU35       0.1561
     27  C         64.4910  -20.8050   13.8880 C.2    35  LEU35       0.2260
     28  O         63.6170  -21.6260   13.8350 O.2    35  LEU35      -0.2867
     29  CB        63.2780  -18.7350   14.2390 C.3    35  LEU35       0.0270
     30  CG        63.4530  -17.2430   14.3260 C.3    35  LEU35       0.0019
     31  CD1       62.2330  -16.7180   14.9260 C.3    35  LEU35       0.0001
     32  CD2       64.6340  -16.9050   15.1510 C.3    35  LEU35       0.0001
     33  N         76.9940  -10.5820    8.9530 N.3    55  GLY55      -0.1210
     34  CA        75.7030  -10.1560    8.4650 C.3    55  GLY55       0.1956
     35  C         74.9980   -9.3170    9.5280 C.2    55  GLY55       0.2612
     36  O         75.5150   -8.3330   10.0980 O.2    55  GLY55      -0.2717
     37  N         73.7850   -9.7640    9.8050 N.am   56  GLY56      -0.1942
     38  CA        72.8390   -9.0910   10.6670 C.3    56  GLY56       0.2014
     39  C         72.2200   -8.0160    9.8060 C.2    56  GLY56       0.2639
     40  O         72.9420   -7.0980    9.4240 O.2    56  GLY56      -0.2714
     41  N         70.9280   -8.1530    9.4790 N.am   57  SER57      -0.1949
     42  CA        70.2470   -7.1270    8.6870 C.3    57  SER57       0.1924
     43  C         70.6410   -5.6240    8.9880 C.2    57  SER57       0.2314
     44  O         71.2830   -4.9770    8.1480 O.2    57  SER57      -0.2863
     45  CB        68.7630   -7.3670    8.6490 C.3    57  SER57       0.2116
     46  OG        68.1650   -6.2980    7.9880 O.3    57  SER57      -0.2180
     47  N         74.3540   -4.6740    8.4680 N.3    60  ASN60      -0.1240
     48  CA        74.7630   -4.5930    7.1030 C.3    60  ASN60       0.1653
     49  C         74.4930   -3.1540    6.6740 C.2    60  ASN60       0.2266
     50  O         75.3510   -2.4790    6.0820 O.2    60  ASN60      -0.2867
     51  CB        73.9680   -5.6060    6.2400 C.3    60  ASN60       0.1155
     52  CG        74.4370   -7.0650    6.4110 C.2    60  ASN60       0.2627
     53  OD1       75.5960   -7.3490    6.8390 O.2    60  ASN60      -0.2716
     54  ND2       73.5310   -7.9980    6.0480 N.am   60  ASN60      -0.0877
     55  N         73.7130  -17.5810   11.2550 N.3   112  SER112     -0.1217
     56  CA        72.6350  -17.9090   10.3530 C.3   112  SER112      0.1889
     57  C         73.1240  -18.7670    9.1950 C.2   112  SER112      0.2288
     58  O         74.1610  -18.4670    8.5530 O.2   112  SER112     -0.2866
     59  CB        71.9440  -16.6390    9.8880 C.3   112  SER112      0.2089
     60  OG        70.8680  -16.9070    9.0290 O.3   112  SER112     -0.2183
     61  N         72.7720  -19.8110    5.8200 N.3   113  ILE113     -0.1245
     62  CA        72.1550  -19.2370    4.6320 C.3   113  ILE113      0.1561
     63  C         72.3890  -20.0580    3.3660 C.2   113  ILE113      0.2260
     64  O         73.5130  -20.1480    2.8780 O.2   113  ILE113     -0.2867
     65  CB        72.5890  -17.7550    4.4130 C.3   113  ILE113      0.0252
     66  CG1       72.2200  -16.8840    5.6370 C.3   113  ILE113      0.0019
     67  CG2       72.0180  -17.2060    3.0990 C.3   113  ILE113      0.0019
     68  CD1       72.5780  -15.3850    5.5490 C.3   113  ILE113      0.0001
     69  N         67.5930  -16.5440   -1.3250 N.3   121  ARG121     -0.1245
     70  CA        68.3610  -16.9390   -0.2010 C.3   121  ARG121      0.1563
     71  C         67.3790  -17.3700    0.8690 C.2   121  ARG121      0.2260
     72  O         66.3520  -16.7410    1.0520 O.2   121  ARG121     -0.2867
     73  CB        69.2970  -15.7960    0.2270 C.3   121  ARG121      0.0307
     74  CG        68.6290  -14.4610    0.4960 C.3   121  ARG121      0.0489
     75  CD        68.1660  -14.4110    1.9400 C.3   121  ARG121      0.2205
     76  NE        67.5880  -13.1240    2.3850 N.pl3 121  ARG121     -0.0865
     77  CZ        66.2980  -12.9010    2.6420 C.cat 121  ARG121      0.5346
     78  NH1       65.3870  -13.8720    2.4960 N.pl3 121  ARG121      0.1354
     79  NH2       65.9330  -11.6860    3.0300 N.pl3 121  ARG121      0.1354
     80  N         68.3000  -19.1610   11.3310 N.3   124  THR124     -0.1218
     81  CA        69.0610  -18.2980   12.2480 C.3   124  THR124      0.1862
     82  C         68.8600  -18.7460   13.6280 C.2   124  THR124      0.2287
     83  O         67.7300  -18.9710   14.0380 O.2   124  THR124     -0.2866
     84  CB        68.6330  -16.8020   12.1200 C.3   124  THR124      0.1770
     85  OG1       68.9060  -16.3730   10.7750 O.3   124  THR124     -0.2211
     86  CG2       69.4350  -15.9550   13.0310 C.3   124  THR124      0.0375
     87  N         69.6160  -17.4830   17.3660 N.3   126  LEU126     -0.1245
     88  CA        69.8600  -16.1560   17.9230 C.3   126  LEU126      0.1561
     89  C         71.0540  -16.0170   18.8690 C.2   126  LEU126      0.2260
     90  O         71.5940  -14.9220   19.0140 O.2   126  LEU126     -0.2867
     91  CB        68.5820  -15.6180   18.5300 C.3   126  LEU126      0.0270
     92  CG        67.5550  -15.3790   17.4390 C.3   126  LEU126      0.0019
     93  CD1       66.0790  -15.3850   17.9020 C.3   126  LEU126      0.0001
     94  CD2       67.9590  -14.0990   16.7610 C.3   126  LEU126      0.0001
     95  N         65.8320   -3.2890   13.4010 N.3   151  GLU151     -0.1245
     96  CA        65.0900   -4.3940   12.7260 C.3   151  GLU151      0.1567
     97  C         63.7580   -4.7130   13.3960 C.2   151  GLU151      0.2260
     98  O         63.6850   -4.6710   14.6360 O.2   151  GLU151     -0.2867
     99  CB        65.9290   -5.7260   12.6400 C.3   151  GLU151      0.0388
    100  CG        67.3350   -5.6830   11.9620 C.3   151  GLU151      0.1160
    101  CD        68.3670   -6.4880   12.7830 C.2   151  GLU151      0.3649
    102  OE1       69.5150   -6.6590   12.2580 O.co2 151  GLU151     -0.2457
    103  OE2       68.0370   -6.9150   13.9720 O.co2 151  GLU151     -0.2457
    104  N         63.1530   -7.6390   13.1450 N.3   153  TYR153     -0.1241
    105  CA        63.7410   -8.9220   13.5540 C.3   153  TYR153      0.1605
    106  C         64.0210   -9.0130   15.0570 C.2   153  TYR153      0.2264
    107  O         64.3640  -10.0920   15.5540 O.2   153  TYR153     -0.2867
    108  CB        65.0850   -9.1730   12.8330 C.3   153  TYR153      0.0534
    109  CG        64.9880   -9.8050   11.4660 C.ar  153  TYR153     -0.0201
    110  CD1       65.9280   -9.4980   10.4730 C.ar  153  TYR153     -0.0009
    111  CD2       63.9710  -10.6830   11.1530 C.ar  153  TYR153     -0.0009
    112  CE1       65.8380  -10.0220    9.1980 C.ar  153  TYR153      0.0417
    113  CE2       63.8870  -11.2210    9.8800 C.ar  153  TYR153      0.0417
    114  CZ        64.8280  -10.8820    8.9030 C.ar  153  TYR153      0.1957
    115  OH        64.7680  -11.4290    7.6420 O.3   153  TYR153     -0.2866
    116  N         61.8090  -10.7750   18.0590 N.3   156  ASP156     -0.1239
    117  CA        61.9860  -12.1870   18.4070 C.3   156  ASP156      0.1674
    118  C         62.6720  -12.3900   19.7440 C.2   156  ASP156      0.2266
    119  O         62.1430  -13.1300   20.5960 O.2   156  ASP156     -0.2867
    120  CB        62.7010  -12.9790   17.2910 C.3   156  ASP156      0.1410
    121  CG        61.7980  -13.2510   16.1020 C.2   156  ASP156      0.3668
    122  OD1       60.6110  -13.5740   16.3520 O.co2 156  ASP156     -0.2456
    123  OD2       62.2500  -13.0990   14.9280 O.co2 156  ASP156     -0.2456
    124  N         70.9550  -12.1210   -0.7620 N.3   267  THR267     -0.1203
    125  CA        71.2940  -11.7780    0.5980 C.3   267  THR267      0.1994
    126  C         71.8980  -10.3780    0.7130 C.2   267  THR267      0.2618
    127  O         72.8690  -10.0420    0.0050 O.2   267  THR267     -0.2717
    128  CB        72.2750  -12.8410    1.1550 C.3   267  THR267      0.1784
    129  OG1       71.5500  -14.0570    1.2760 O.3   267  THR267     -0.2211
    130  CG2       72.8670  -12.4410    2.4830 C.3   267  THR267      0.0376
    131  N         71.2940   -9.5540    1.5500 N.am  268  GLY268     -0.1942
    132  CA        71.8140   -8.2440    1.8580 C.3   268  GLY268      0.2014
    133  C         71.2870   -7.0720    1.0770 C.2   268  GLY268      0.2638
    134  O         71.7140   -5.9670    1.2980 O.2   268  GLY268     -0.2714
    135  N         70.3670   -7.3140    0.1630 N.am  269  ALA269     -0.1977
    136  CA        69.8850   -6.2860   -0.7280 C.3   269  ALA269      0.1597
    137  C         69.1050   -5.2180    0.0090 C.2   269  ALA269      0.2287
    138  O         69.5620   -4.1180    0.1560 O.2   269  ALA269     -0.2864
    139  CB        69.0520   -6.8940   -1.7840 C.3   269  ALA269      0.0319
    140  N         68.9730   -4.4960    2.7420 N.3   271  ASP271     -0.1239
    141  CA        69.7800   -3.8910    3.7660 C.3   271  ASP271      0.1674
    142  C         70.6230   -2.8090    3.1710 C.2   271  ASP271      0.2266
    143  O         70.9150   -1.8340    3.8050 O.2   271  ASP271     -0.2867
    144  CB        70.7120   -4.9020    4.4180 C.3   271  ASP271      0.1410
    145  CG        69.9950   -6.0360    5.0340 C.2   271  ASP271      0.3668
    146  OD1       68.7840   -5.9370    5.2170 O.co2 271  ASP271     -0.2456
    147  OD2       70.6470   -7.0370    5.3250 O.co2 271  ASP271     -0.2456
    148  N         76.6980  -10.4310    2.0930 N.3   307  PRO307     -0.2116
    149  CA        75.7800   -9.2950    2.2560 C.3   307  PRO307      0.1372
    150  C         76.5050   -7.9130    2.4170 C.2   307  PRO307      0.2244
    151  O         75.7730   -6.9190    2.4290 O.2   307  PRO307     -0.2868
    152  CB        75.1030   -9.6420    3.5590 C.3   307  PRO307      0.0268
    153  CG        76.3360  -10.0700    4.4460 C.3   307  PRO307      0.0207
    154  CD        77.2470  -10.8410    3.4090 C.3   307  PRO307      0.0892
@<TRIPOS>BOND
     1   139   136    1
     2    69    70    1
     3   124   125    1
     4   136   137    1
     5   136   135    1
     6    70    73    1
     7    70    71    1
     8   127   126    2
     9   137   138    2
    10   135   133   am
    11    73    74    1
    12    74    75    1
    13   125   126    1
    14   125   128    1
    15   126   131   am
    16    71    72    2
    17   133   134    2
    18   133   132    1
    19   128   129    1
    20   128   130    1
    21   131   132    1
    22    75    76    1
    23   148   149    1
    24   148   154    1
    25   149   150    1
    26   149   152    1
    27    76    77    2
    28   150   151    2
    29    78    77    1
    30    77    79    1
    31   140   141    1
    32    64    63    2
    33    67    65    1
    34   142   141    1
    35   142   143    2
    36    63    62    1
    37   154   153    1
    38   152   153    1
    39   141   144    1
    40    65    62    1
    41    65    66    1
    42   144   145    1
    43    62    61    1
    44   145   146   ar
    45   145   147   ar
    46    68    66    1
    47    54    52   am
    48    50    49    2
    49    51    52    1
    50    51    48    1
    51    24    22   ar
    52    52    53    2
    53    49    48    1
    54    21    22    1
    55    21    18    1
    56    48    47    1
    57    22    23   ar
    58    20    19    2
    59    19    18    1
    60   115   114    1
    61    46    45    1
    62    18    17    1
    63    44    43    2
    64    34    33    1
    65    34    35    1
    66    58    57    2
    67    45    42    1
    68    42    43    1
    69    42    41    1
    70   114   112   ar
    71   114   113   ar
    72    60    59    1
    73    57    56    1
    74   112   110   ar
    75    40    39    2
    76    41    39   am
    77    35    37   am
    78    35    36    2
    79    37    38    1
    80    39    38    1
    81   113   111   ar
    82    59    56    1
    83    56    55    1
    84   110   109   ar
    85    85    84    1
    86   111   109   ar
    87    80    81    1
    88   109   108    1
    89    12    11    2
    90    15    13    1
    91   100    99    1
    92   100   101    1
    93    25    26    1
    94    84    81    1
    95    84    86    1
    96    81    82    1
    97   102   101   ar
    98    11    10    1
    99    13    10    1
   100    13    14    1
   101    99    96    1
   102    96    97    1
   103    96    95    1
   104    16    14    1
   105   101   103   ar
   106   108   105    1
   107   104   105    1
   108    10     9    1
   109    26    27    1
   110    26    29    1
   111    97    98    2
   112   105   106    1
   113    82    83    2
   114    28    27    2
   115     4     3    2
   116    29    30    1
   117    30    31    1
   118    30    32    1
   119   123   121   ar
   120   106   107    2
   121     3     2    1
   122     5     2    1
   123     5     6    1
   124     8     6   am
   125     1     2    1
   126     6     7    2
   127   121   122   ar
   128   121   120    1
   129    94    92    1
   130   120   117    1
   131    87    88    1
   132    92    93    1
   133    92    91    1
   134    88    91    1
   135    88    89    1
   136   116   117    1
   137   117   118    1
   138    89    90    2
   139   118   119    2
