@<TRIPOS>MOLECULE
tmp/3uboA01.pdb
 141 128 0 0 0
SMALL
GASTEIGER

@<TRIPOS>ATOM
      1  N         67.5930  -16.5440   -1.3250 N.3   121  ARG121     -0.1245
      2  CA        68.3610  -16.9390   -0.2010 C.3   121  ARG121      0.1563
      3  C         67.3790  -17.3700    0.8690 C.2   121  ARG121      0.2260
      4  O         66.3520  -16.7410    1.0520 O.2   121  ARG121     -0.2867
      5  CB        69.2970  -15.7960    0.2270 C.3   121  ARG121      0.0307
      6  CG        68.6290  -14.4610    0.4960 C.3   121  ARG121      0.0489
      7  CD        68.1660  -14.4110    1.9400 C.3   121  ARG121      0.2205
      8  NE        67.5880  -13.1240    2.3850 N.pl3 121  ARG121     -0.0865
      9  CZ        66.2980  -12.9010    2.6420 C.cat 121  ARG121      0.5346
     10  NH1       65.3870  -13.8720    2.4960 N.pl3 121  ARG121      0.1354
     11  NH2       65.9330  -11.6860    3.0300 N.pl3 121  ARG121      0.1354
     12  N         59.9010   -4.6350    1.8250 N.3   208  ASN208     -0.1240
     13  CA        59.8080   -5.0740    0.4340 C.3   208  ASN208      0.1653
     14  C         58.3140   -5.2530    0.1610 C.2   208  ASN208      0.2266
     15  O         57.5040   -5.0860    1.0690 O.2   208  ASN208     -0.2867
     16  CB        60.6900   -6.3090    0.1250 C.3   208  ASN208      0.1155
     17  CG        60.3260   -7.5320    0.9750 C.2   208  ASN208      0.2627
     18  OD1       59.1520   -7.7900    1.2430 O.2   208  ASN208     -0.2716
     19  ND2       61.3370   -8.3030    1.3750 N.am  208  ASN208     -0.0877
     20  N         56.2530   -7.9110    2.3330 N.3   211  GLU211     -0.1245
     21  CA        56.1780   -7.3880    3.6990 C.3   211  GLU211      0.1567
     22  C         55.0970   -6.3070    3.8510 C.2   211  GLU211      0.2260
     23  O         54.2640   -6.3450    4.7770 O.2   211  GLU211     -0.2867
     24  CB        57.5340   -6.8590    4.1330 C.3   211  GLU211      0.0388
     25  CG        58.4990   -7.9670    4.4910 C.3   211  GLU211      0.1160
     26  CD        59.9860   -7.6440    4.1820 C.2   211  GLU211      0.3649
     27  OE1       60.3950   -6.4420    4.0900 O.co2 211  GLU211     -0.2457
     28  OE2       60.7550   -8.6320    4.0140 O.co2 211  GLU211     -0.2457
     29  N         61.0170   -1.6160   -1.3370 N.3   238  THR238     -0.1203
     30  CA        61.7890   -2.2760   -2.3970 C.3   238  THR238      0.1994
     31  C         60.9420   -3.2030   -3.2850 C.2   238  THR238      0.2618
     32  O         60.0990   -3.9550   -2.8290 O.2   238  THR238     -0.2717
     33  CB        63.0710   -2.9710   -1.8440 C.3   238  THR238      0.1784
     34  OG1       62.7070   -3.9440   -0.8550 O.3   238  THR238     -0.2211
     35  CG2       64.0630   -1.9620   -1.2410 C.3   238  THR238      0.0376
     36  N         61.1860   -3.1100   -4.5880 N.am  239  LEU239     -0.1965
     37  CA        60.4570   -3.8750   -5.6260 C.3   239  LEU239      0.1728
     38  C         61.3890   -4.7920   -6.4230 C.2   239  LEU239      0.2617
     39  O         61.2380   -4.9450   -7.6310 O.2   239  LEU239     -0.2715
     40  CB        59.7710   -2.9260   -6.6050 C.3   239  LEU239      0.0311
     41  CG        58.7430   -1.9090   -6.0850 C.3   239  LEU239      0.0022
     42  CD1       58.4850   -0.7700   -7.1220 C.3   239  LEU239      0.0001
     43  CD2       57.4480   -2.6150   -5.6010 C.3   239  LEU239      0.0001
     44  N         62.3480   -5.4030   -5.7410 N.am  240  SER240     -0.1936
     45  CA        63.3320   -6.2340   -6.3900 C.3   240  SER240      0.2055
     46  C         63.8710   -5.5190   -7.6260 C.2   240  SER240      0.2642
     47  O         64.5450   -4.4920   -7.4860 O.2   240  SER240     -0.2714
     48  CB        62.7410   -7.5810   -6.7880 C.3   240  SER240      0.2130
     49  OG        61.6560   -7.9610   -5.9810 O.3   240  SER240     -0.2179
     50  N         63.5660   -6.0450   -8.8160 N.am  241  GLU241     -0.1976
     51  CA        64.1910   -5.5760  -10.0420 C.3   241  GLU241      0.1602
     52  C         63.5190   -4.2990  -10.5700 C.2   241  GLU241      0.2287
     53  O         64.1070   -3.5320  -11.3360 O.2   241  GLU241     -0.2864
     54  CB        64.2550   -6.7040  -11.1270 C.3   241  GLU241      0.0415
     55  CG        62.9180   -7.1700  -11.8560 C.3   241  GLU241      0.1163
     56  CD        61.9470   -7.9660  -10.9320 C.2   241  GLU241      0.3649
     57  OE1       60.8770   -8.4180  -11.4220 O.co2 241  GLU241     -0.2457
     58  OE2       62.2370   -8.1260   -9.7090 O.co2 241  GLU241     -0.2457
     59  N         63.0010   -1.9030   -8.8010 N.3   243  GLY243     -0.1225
     60  CA        63.7120   -0.8260   -8.1460 C.3   243  GLY243      0.1811
     61  C         63.0060   -0.4550   -6.8680 C.2   243  GLY243      0.2280
     62  O         62.9760   -1.2830   -5.9770 O.2   243  GLY243     -0.2866
     63  N         65.4080    0.1260  -10.9950 N.3   257  ALA257     -0.1231
     64  CA        66.6120   -0.5300  -10.4930 C.3   257  ALA257      0.1694
     65  C         67.5780   -0.7550  -11.6050 C.2   257  ALA257      0.2592
     66  O         67.2090   -0.7720  -12.7640 O.2   257  ALA257     -0.2718
     67  CB        66.2990   -1.8470   -9.7240 C.3   257  ALA257      0.0304
     68  N         68.8420   -0.8930  -11.2550 N.am  258  SER258     -0.1952
     69  CA        69.8500   -1.1700  -12.2760 C.3   258  SER258      0.1924
     70  C         69.4600   -2.4530  -13.0360 C.2   258  SER258      0.2314
     71  O         68.5670   -3.2330  -12.6000 O.2   258  SER258     -0.2863
     72  CB        71.2320   -1.3310  -11.5970 C.3   258  SER258      0.2116
     73  OG        71.1370   -1.5490  -10.1740 O.3   258  SER258     -0.2180
     74  N         71.1050   -5.9170  -13.8750 N.3   260  LEU260     -0.1301
     75  CA        72.2790   -6.5970  -13.2970 C.3   260  LEU260      0.1247
     76  C         72.9030   -7.6440  -14.2330 C.3   260  LEU260      0.2009
     77  O         72.1830   -8.3250  -15.0640 O.3   260  LEU260     -0.2188
     78  CB        71.9550   -7.1850  -11.9270 C.3   260  LEU260      0.0217
     79  CG        71.7500   -6.1890  -10.7570 C.3   260  LEU260      0.0015
     80  CD1       71.2180   -6.8740   -9.4820 C.3   260  LEU260      0.0000
     81  CD2       73.0210   -5.3640  -10.4730 C.3   260  LEU260      0.0000
     82  N         72.1870  -12.2040  -11.1080 N.3   263  VAL263     -0.1245
     83  CA        71.6990  -12.3060   -9.7580 C.3   263  VAL263      0.1561
     84  C         72.4600  -13.4350   -9.0000 C.2   263  VAL263      0.2260
     85  O         72.0600  -14.5860   -9.0370 O.2   263  VAL263     -0.2867
     86  CB        70.1720  -12.4710   -9.7980 C.3   263  VAL263      0.0252
     87  CG1       69.6070  -12.4590   -8.4120 C.3   263  VAL263      0.0019
     88  CG2       69.5940  -11.3420  -10.6230 C.3   263  VAL263      0.0019
     89  N         71.1010  -12.6640   -3.5990 N.3   266  THR266     -0.1218
     90  CA        70.2000  -11.6580   -3.0570 C.3   266  THR266      0.1862
     91  C         70.4190  -11.2390   -1.5720 C.2   266  THR266      0.2287
     92  O         70.0920  -10.1310   -1.1580 O.2   266  THR266     -0.2866
     93  CB        68.7800  -12.1410   -3.2890 C.3   266  THR266      0.1770
     94  OG1       68.3690  -11.5540   -4.4820 O.3   266  THR266     -0.2211
     95  CG2       67.8350  -11.7190   -2.2550 C.3   266  THR266      0.0375
     96  N         70.3670   -7.3140    0.1630 N.3   269  ALA269     -0.1231
     97  CA        69.8850   -6.2860   -0.7280 C.3   269  ALA269      0.1694
     98  C         69.1050   -5.2180    0.0090 C.2   269  ALA269      0.2592
     99  O         69.5620   -4.1180    0.1560 O.2   269  ALA269     -0.2718
    100  CB        69.0520   -6.8940   -1.7840 C.3   269  ALA269      0.0304
    101  N         67.9220   -5.5530    0.4780 N.am  270  GLY270     -0.1957
    102  CA        67.1300   -4.6020    1.2130 C.3   270  GLY270      0.1869
    103  C         67.9480   -3.8580    2.2300 C.2   270  GLY270      0.2309
    104  O         67.6600   -2.7400    2.5500 O.2   270  GLY270     -0.2863
    105  N         69.9180   -1.3260    0.2810 N.3   273  TYR273     -0.1241
    106  CA        69.0610   -0.3530   -0.3130 C.3   273  TYR273      0.1605
    107  C         68.8060    0.7810    0.6720 C.2   273  TYR273      0.2264
    108  O         68.8380    1.9510    0.3370 O.2   273  TYR273     -0.2867
    109  CB        67.7540   -0.9810   -0.6850 C.3   273  TYR273      0.0534
    110  CG        66.8020    0.0320   -1.2190 C.ar  273  TYR273     -0.0201
    111  CD1       65.9840    0.7440   -0.3840 C.ar  273  TYR273     -0.0009
    112  CD2       66.7450    0.2970   -2.5620 C.ar  273  TYR273     -0.0009
    113  CE1       65.1290    1.6580   -0.8790 C.ar  273  TYR273      0.0417
    114  CE2       65.9040    1.2020   -3.0530 C.ar  273  TYR273      0.0417
    115  CZ        65.0980    1.8830   -2.2180 C.ar  273  TYR273      0.1957
    116  OH        64.2510    2.8020   -2.7460 O.3   273  TYR273     -0.2866
    117  N         68.9430    1.7270   -4.9480 N.3   295  ASN295     -0.1240
    118  CA        69.1080    0.6610   -5.9060 C.3   295  ASN295      0.1653
    119  C         70.5770    0.4560   -6.2570 C.2   295  ASN295      0.2266
    120  O         71.0690   -0.6440   -6.2280 O.2   295  ASN295     -0.2867
    121  CB        68.2430    0.9130   -7.0930 C.3   295  ASN295      0.1155
    122  CG        66.8100    1.0520   -6.7150 C.2   295  ASN295      0.2627
    123  OD1       66.2800    2.1510   -6.7320 O.2   295  ASN295     -0.2716
    124  ND2       66.1680   -0.0420   -6.3440 N.am  295  ASN295     -0.0877
    125  N         72.0130   -1.6800   -3.3510 N.3   298  ALA298     -0.1231
    126  CA        71.4190   -2.9850   -3.4240 C.3   298  ALA298      0.1694
    127  C         72.1240   -3.8470   -4.5140 C.2   298  ALA298      0.2592
    128  O         72.6700   -4.9560   -4.2530 O.2   298  ALA298     -0.2718
    129  CB        69.9470   -2.8270   -3.7040 C.3   298  ALA298      0.0304
    130  N         72.1310   -3.3080   -5.7290 N.am  299  GLY299     -0.1957
    131  CA        72.5110   -4.0560   -6.8990 C.3   299  GLY299      0.1869
    132  C         73.9550   -4.4760   -6.8310 C.2   299  GLY299      0.2309
    133  O         74.2400   -5.5830   -7.1680 O.2   299  GLY299     -0.2863
    134  N         74.2790   -7.7260   -4.5840 N.3   302  ILE302     -0.1245
    135  CA        73.6290   -8.8630   -5.2100 C.3   302  ILE302      0.1561
    136  C         74.5740   -9.5420   -6.2430 C.2   302  ILE302      0.2260
    137  O         74.3890  -10.6950   -6.5990 O.2   302  ILE302     -0.2867
    138  CB        72.3620   -8.4080   -5.9980 C.3   302  ILE302      0.0252
    139  CG1       71.2410   -7.8660   -5.0970 C.3   302  ILE302      0.0019
    140  CG2       71.8060   -9.5520   -6.8890 C.3   302  ILE302      0.0019
    141  CD1       69.8630   -7.7780   -5.8900 C.3   302  ILE302      0.0001
@<TRIPOS>BOND
     1    77    76    1
     2    76    75    1
     3    74    75    1
     4    75    78    1
     5    70    71    2
     6    70    69    1
     7    66    65    2
     8    69    72    1
     9    69    68    1
    10    78    79    1
    11    55    54    1
    12    55    56    1
    13    65    68   am
    14    65    64    1
    15    72    73    1
    16    57    56   ar
    17    53    52    2
    18    54    51    1
    19    82    83    1
    20    63    64    1
    21    56    58   ar
    22    79    81    1
    23    79    80    1
    24    88    86    1
    25    52    51    1
    26    64    67    1
    27    51    50    1
    28    86    83    1
    29    86    87    1
    30    83    84    1
    31    85    84    2
    32    50    46   am
    33    59    60    1
    34    60    61    1
    35    39    38    2
    36    46    47    2
    37    46    45    1
    38   133   132    2
    39    42    41    1
    40   121   122    1
    41   121   118    1
    42   131   132    1
    43   131   130    1
    44   140   138    1
    45    61    62    2
    46    48    45    1
    47    48    49    1
    48   123   122    2
    49   122   124   am
    50    40    41    1
    51    40    37    1
    52   137   136    2
    53    38    44   am
    54    38    37    1
    55    45    44    1
    56   119   120    2
    57   119   118    1
    58   136   135    1
    59    41    43    1
    60   138   135    1
    61   138   139    1
    62   118   117    1
    63   141   139    1
    64   130   127   am
    65    37    36    1
    66   135   134    1
    67    36    31   am
    68   127   128    2
    69   127   126    1
    70    94    93    1
    71   129   126    1
    72    89    90    1
    73   126   125    1
    74    93    90    1
    75    93    95    1
    76    31    32    2
    77    31    30    1
    78    90    91    1
    79   114   112   ar
    80   114   115   ar
    81   116   115    1
    82   112   110   ar
    83    30    33    1
    84    30    29    1
    85   115   113   ar
    86    33    35    1
    87    33    34    1
    88   100    97    1
    89    91    92    2
    90     1     2    1
    91   110   109    1
    92   110   111   ar
    93   113   111   ar
    94    97    98    1
    95    97    96    1
    96   109   106    1
    97   106   105    1
    98   106   107    1
    99     2     5    1
   100     2     3    1
   101    98    99    2
   102    98   101   am
   103    16    13    1
   104    16    17    1
   105    14    13    1
   106    14    15    2
   107     5     6    1
   108   108   107    2
   109    13    12    1
   110   101   102    1
   111     6     7    1
   112     3     4    2
   113    17    18    2
   114    17    19   am
   115   102   103    1
   116     7     8    1
   117   103   104    2
   118    20    21    1
   119     8     9    2
   120    10     9    1
   121     9    11    1
   122    21    22    1
   123    21    24    1
   124    22    23    2
   125    28    26   ar
   126    27    26   ar
   127    24    25    1
   128    26    25    1
