@<TRIPOS>MOLECULE
tmp/3ubqC00.pdb
 152 146 0 0 0
SMALL
GASTEIGER

@<TRIPOS>ATOM
      1  N         -0.5020   54.8700  -53.5850 N.3    89  TYR89      -0.1241
      2  CA        -0.5110   54.8490  -55.0420 C.3    89  TYR89       0.1605
      3  C         -1.2250   53.5730  -55.4650 C.2    89  TYR89       0.2264
      4  O         -0.8170   52.4790  -55.0830 O.2    89  TYR89      -0.2867
      5  CB         0.9110   54.8970  -55.6180 C.3    89  TYR89       0.0534
      6  CG         0.9610   55.4190  -57.0440 C.ar   89  TYR89      -0.0201
      7  CD1        0.6520   54.5940  -58.1190 C.ar   89  TYR89      -0.0009
      8  CD2        1.2900   56.7450  -57.3130 C.ar   89  TYR89      -0.0009
      9  CE1        0.6820   55.0680  -59.4190 C.ar   89  TYR89       0.0417
     10  CE2        1.3230   57.2290  -58.6140 C.ar   89  TYR89       0.0417
     11  CZ         1.0170   56.3840  -59.6600 C.ar   89  TYR89       0.1957
     12  OH         1.0480   56.8490  -60.9540 O.3    89  TYR89      -0.2866
     13  N         12.8360   62.8830  -57.3880 N.3   128  LYS128     -0.1231
     14  CA        11.5960   63.4090  -57.9590 C.3   128  LYS128      0.1693
     15  C         10.4610   62.3900  -57.9010 C.2   128  LYS128      0.2593
     16  O          9.3710   62.6190  -58.4390 O.2   128  LYS128     -0.2718
     17  CB        11.8390   63.8540  -59.4010 C.3   128  LYS128      0.0285
     18  CG        13.0010   64.8220  -59.5340 C.3   128  LYS128      0.0035
     19  CD        13.5360   64.9010  -60.9630 C.3   128  LYS128      0.0206
     20  CE        12.5630   65.5890  -61.9010 C.3   128  LYS128      0.1093
     21  NZ        13.2360   66.0200  -63.1610 N.3   128  LYS128     -0.1314
     22  N         10.7200   61.2680  -57.2340 N.am  129  GLY129     -0.1942
     23  CA         9.7660   60.1810  -57.1750 C.3   129  GLY129      0.2014
     24  C          8.7460   60.3830  -56.0760 C.2   129  GLY129      0.2639
     25  O          8.7860   59.7060  -55.0450 O.2   129  GLY129     -0.2714
     26  N          7.8310   61.3200  -56.2970 N.am  130  VAL130     -0.1963
     27  CA         6.7740   61.5950  -55.3360 C.3   130  VAL130      0.1727
     28  C          5.4340   61.7880  -56.0250 C.2   130  VAL130      0.2617
     29  O          5.3680   61.9740  -57.2400 O.2   130  VAL130     -0.2715
     30  CB         7.0940   62.8120  -54.4580 C.3   130  VAL130      0.0290
     31  CG1        8.3780   62.5690  -53.6740 C.3   130  VAL130      0.0023
     32  CG2        7.1960   64.0770  -55.3050 C.3   130  VAL130      0.0023
     33  N          4.3640   61.7240  -55.2410 N.am  131  THR131     -0.1937
     34  CA         3.0180   61.8230  -55.7890 C.3   131  THR131      0.2028
     35  C          2.0560   62.4030  -54.7680 C.2   131  THR131      0.2642
     36  O          2.2710   62.2740  -53.5640 O.2   131  THR131     -0.2714
     37  CB         2.4940   60.4480  -56.2710 C.3   131  THR131      0.1808
     38  OG1        1.0830   60.5260  -56.5230 O.3   131  THR131     -0.2208
     39  CG2        2.7530   59.3770  -55.2180 C.3   131  THR131      0.0379
     40  N          1.0060   63.0550  -55.2620 N.am  132  ALA132     -0.1977
     41  CA        -0.0390   63.5910  -54.4020 C.3   132  ALA132      0.1597
     42  C         -0.9110   62.4620  -53.8640 C.2   132  ALA132      0.2287
     43  O         -1.6830   62.6570  -52.9250 O.2   132  ALA132     -0.2864
     44  CB        -0.8840   64.6060  -55.1510 C.3   132  ALA132      0.0319
     45  N          3.4480   66.4530  -51.6260 N.3   140  LYS140     -0.1245
     46  CA         3.7280   65.2560  -52.4140 C.3   140  LYS140      0.1561
     47  C          4.8470   64.4470  -51.7550 C.2   140  LYS140      0.2260
     48  O          5.7830   65.0150  -51.1820 O.2   140  LYS140     -0.2867
     49  CB         4.1090   65.6310  -53.8480 C.3   140  LYS140      0.0271
     50  CG         2.9230   66.0520  -54.7210 C.3   140  LYS140      0.0035
     51  CD         3.3510   66.9720  -55.8680 C.3   140  LYS140      0.0206
     52  CE         4.4860   66.3740  -56.6830 C.3   140  LYS140      0.1093
     53  NZ         5.0350   67.3450  -57.6730 N.3   140  LYS140     -0.1314
     54  N         11.1630   55.6720  -56.0720 N.3   148  TRP148     -0.1241
     55  CA        10.6450   55.7670  -57.4270 C.3   148  TRP148      0.1605
     56  C         11.6950   56.4450  -58.3000 C.2   148  TRP148      0.2264
     57  O         11.8090   57.6670  -58.3020 O.2   148  TRP148     -0.2867
     58  CB         9.3440   56.5730  -57.4260 C.3   148  TRP148      0.0550
     59  CG         8.6010   56.5800  -58.7240 C.ar  148  TRP148      0.0003
     60  CD1        9.0170   56.0650  -59.9150 C.ar  148  TRP148      0.0946
     61  CD2        7.3030   57.1330  -58.9570 C.ar  148  TRP148      0.0152
     62  NE1        8.0590   56.2680  -60.8790 N.ar  148  TRP148     -0.2442
     63  CE2        6.9950   56.9200  -60.3140 C.ar  148  TRP148      0.0810
     64  CE3        6.3670   57.7850  -58.1450 C.ar  148  TRP148      0.0012
     65  CZ2        5.7910   57.3390  -60.8830 C.ar  148  TRP148      0.0191
     66  CZ3        5.1740   58.2010  -58.7090 C.ar  148  TRP148      0.0001
     67  CH2        4.8970   57.9780  -60.0670 C.ar  148  TRP148      0.0015
     68  N         13.5160   57.8450  -61.6400 N.3   150  VAL150     -0.1245
     69  CA        13.1530   58.3970  -62.9450 C.3   150  VAL150      0.1561
     70  C         14.3970   58.7410  -63.7650 C.2   150  VAL150      0.2260
     71  O         15.5080   58.7770  -63.2360 O.2   150  VAL150     -0.2867
     72  CB        12.2410   59.6360  -62.8150 C.3   150  VAL150      0.0252
     73  CG1       10.9120   59.2470  -62.1810 C.3   150  VAL150      0.0019
     74  CG2       12.9280   60.7250  -61.9990 C.3   150  VAL150      0.0019
     75  N          6.0270   50.4720  -61.8880 N.3   178  HIS178     -0.1241
     76  CA         5.1290   51.5560  -62.2600 C.3   178  HIS178      0.1621
     77  C          4.6330   51.4470  -63.6990 C.2   178  HIS178      0.2264
     78  O          5.4090   51.1820  -64.6180 O.2   178  HIS178     -0.2867
     79  CB         5.7800   52.9200  -62.0450 C.3   178  HIS178      0.0745
     80  CG         4.8690   54.0590  -62.3730 C.ar  178  HIS178      0.0817
     81  ND1        4.9910   54.8010  -63.5280 N.ar  178  HIS178     -0.2268
     82  CD2        3.7920   54.5540  -61.7200 C.ar  178  HIS178      0.1154
     83  CE1        4.0420   55.7180  -63.5620 C.ar  178  HIS178      0.1986
     84  NE2        3.3000   55.5880  -62.4780 N.ar  178  HIS178     -0.2212
     85  N          2.7050   53.8010  -66.3260 N.3   180  PRO180     -0.2102
     86  CA         2.1380   55.1160  -66.6390 C.3   180  PRO180      0.1504
     87  C          0.8290   54.9910  -67.4220 C.2   180  PRO180      0.2576
     88  O          0.6050   53.9670  -68.0720 O.2   180  PRO180     -0.2718
     89  CB         3.2170   55.7600  -67.5200 C.3   180  PRO180      0.0282
     90  CG         4.4870   55.0330  -67.1680 C.3   180  PRO180      0.0208
     91  CD         4.0480   53.6190  -66.9040 C.3   180  PRO180      0.0893
     92  N         -0.0200   56.0140  -67.3530 N.am  181  SER181     -0.1953
     93  CA        -1.2820   56.0090  -68.0890 C.3   181  SER181      0.1924
     94  C         -1.1040   56.2340  -69.5910 C.2   181  SER181      0.2314
     95  O         -1.9400   55.7980  -70.3850 O.2   181  SER181     -0.2863
     96  CB        -2.2590   57.0400  -67.5130 C.3   181  SER181      0.2116
     97  OG        -1.6400   58.3040  -67.3800 O.3   181  SER181     -0.2180
     98  N          3.6730   59.9490  -70.7150 N.3   185  ASP185     -0.1239
     99  CA         4.2290   59.9220  -69.3620 C.3   185  ASP185      0.1674
    100  C          5.3950   58.9440  -69.2450 C.2   185  ASP185      0.2266
    101  O          6.3710   59.2050  -68.5390 O.2   185  ASP185     -0.2867
    102  CB         3.1500   59.5700  -68.3310 C.3   185  ASP185      0.1410
    103  CG         2.1070   60.6530  -68.1920 C.2   185  ASP185      0.3668
    104  OD1        1.8580   61.3660  -69.1910 O.co2 185  ASP185     -0.2456
    105  OD2        1.5390   60.7960  -67.0850 O.co2 185  ASP185     -0.2456
    106  N          8.9500   60.0860  -67.8560 N.3   189  LEU189     -0.1245
    107  CA         9.5570   59.5120  -66.6590 C.3   189  LEU189      0.1561
    108  C         10.8090   58.6910  -66.9600 C.2   189  LEU189      0.2260
    109  O         11.7750   58.7210  -66.1970 O.2   189  LEU189     -0.2867
    110  CB         8.5470   58.6410  -65.8990 C.3   189  LEU189      0.0270
    111  CG         7.4600   59.3620  -65.1030 C.3   189  LEU189      0.0019
    112  CD1        6.4350   58.3710  -64.5790 C.3   189  LEU189      0.0001
    113  CD2        8.0750   60.1370  -63.9610 C.3   189  LEU189      0.0001
    114  N         -9.4370   56.8290  -62.5080 N.3   217  LYS217     -0.1245
    115  CA        -8.7150   57.5560  -61.4690 C.3   217  LYS217      0.1561
    116  C         -8.9370   56.9390  -60.0990 C.2   217  LYS217      0.2260
    117  O        -10.0630   56.6290  -59.7200 O.2   217  LYS217     -0.2867
    118  CB        -9.1490   59.0220  -61.4230 C.3   217  LYS217      0.0271
    119  CG        -8.6620   59.8710  -62.5720 C.3   217  LYS217      0.0035
    120  CD        -9.0940   61.3170  -62.3800 C.3   217  LYS217      0.0206
    121  CE        -8.7050   62.1770  -63.5640 C.3   217  LYS217      0.1093
    122  NZ        -7.2320   62.1750  -63.7660 N.3   217  LYS217     -0.1314
    123  N         -6.8480   60.0700  -57.6740 N.3   220  ASP220     -0.1225
    124  CA        -6.5300   61.0280  -58.7390 C.3   220  ASP220      0.1805
    125  C         -5.4890   60.5400  -59.7500 C.2   220  ASP220      0.2598
    126  O         -5.0640   61.2960  -60.6270 O.2   220  ASP220     -0.2718
    127  CB        -6.1190   62.3840  -58.1530 C.3   220  ASP220      0.1424
    128  CG        -6.7880   63.5480  -58.8550 C.2   220  ASP220      0.3668
    129  OD1       -7.9160   63.3760  -59.3690 O.co2 220  ASP220     -0.2456
    130  OD2       -6.1830   64.6380  -58.8920 O.co2 220  ASP220     -0.2456
    131  N         -5.0990   59.2760  -59.6400 N.am  221  GLN221     -0.1965
    132  CA        -4.0920   58.7070  -60.5300 C.3   221  GLN221      0.1733
    133  C         -4.7220   57.7500  -61.5310 C.2   221  GLN221      0.2616
    134  O         -5.4190   56.8110  -61.1430 O.2   221  GLN221     -0.2715
    135  CB        -3.0360   57.9630  -59.7140 C.3   221  GLN221      0.0408
    136  CG        -2.4380   58.7970  -58.6030 C.3   221  GLN221      0.0908
    137  CD        -1.8450   60.0760  -59.1320 C.2   221  GLN221      0.2608
    138  OE1       -1.2970   60.1050  -60.2330 O.2   221  GLN221     -0.2717
    139  NE2       -1.9610   61.1510  -58.3600 N.am  221  GLN221     -0.0878
    140  N         -4.4770   57.9840  -62.8160 N.am  222  GLU222     -0.1963
    141  CA        -4.9560   57.0710  -63.8490 C.3   222  GLU222      0.1733
    142  C         -3.9390   55.9720  -64.1180 C.2   222  GLU222      0.2616
    143  O         -4.2160   55.0210  -64.8500 O.2   222  GLU222     -0.2715
    144  CB        -5.2620   57.8280  -65.1400 C.3   222  GLU222      0.0429
    145  CG        -6.4170   58.8010  -65.0090 C.3   222  GLU222      0.1163
    146  CD        -6.6560   59.6020  -66.2700 C.2   222  GLU222      0.3649
    147  OE1       -5.6690   60.0770  -66.8760 O.co2 222  GLU222     -0.2457
    148  OE2       -7.8340   59.7450  -66.6550 O.co2 222  GLU222     -0.2457
    149  N         -2.7570   56.1150  -63.5230 N.am  223  GLY223     -0.1955
    150  CA        -1.7060   55.1290  -63.6600 C.3   223  GLY223      0.1869
    151  C         -1.7920   54.0810  -62.5700 C.2   223  GLY223      0.2309
    152  O         -2.6270   54.1760  -61.6680 O.2   223  GLY223     -0.2863
@<TRIPOS>BOND
     1    98    99    1
     2    95    94    2
     3    94    93    1
     4    99   100    1
     5    99   102    1
     6   100   101    2
     7   104   103   ar
     8   102   103    1
     9   103   105   ar
    10    93    96    1
    11    93    92    1
    12    88    87    2
    13   106   107    1
    14    89    90    1
    15    89    86    1
    16    96    97    1
    17    87    92   am
    18    87    86    1
    19    90    91    1
    20   108   107    1
    21   108   109    2
    22    91    85    1
    23   147   146   ar
    24   107   110    1
    25   148   146   ar
    26    86    85    1
    27   146   145    1
    28   110   111    1
    29   144   145    1
    30   144   141    1
    31   111   112    1
    32   111   113    1
    33   143   142    2
    34    78    77    2
    35   142   141    1
    36   142   149   am
    37   141   140    1
    38   122   121    1
    39    70    71    2
    40    70    69    1
    41    77    76    1
    42   150   149    1
    43   150   151    1
    44   121   120    1
    45    83    81   ar
    46    83    84   ar
    47    81    80   ar
    48    21    20    1
    49    69    72    1
    50    69    68    1
    51   140   133   am
    52    72    73    1
    53    72    74    1
    54   119   120    1
    55   119   118    1
    56   151   152    2
    57   114   115    1
    58    84    82   ar
    59    80    79    1
    60    80    82   ar
    61    76    79    1
    62    76    75    1
    63    20    19    1
    64   133   134    2
    65   133   132    1
    66   115   118    1
    67   115   116    1
    68    19    18    1
    69    12    11    1
    70    65    63   ar
    71    65    67   ar
    72    62    63   ar
    73    62    60   ar
    74   126   125    2
    75   132   135    1
    76   132   131    1
    77    63    61   ar
    78   138   137    2
    79   116   117    2
    80    67    66   ar
    81    60    59   ar
    82   125   131   am
    83   125   124    1
    84   135   136    1
    85    11     9   ar
    86    11    10   ar
    87    18    17    1
    88     9     7   ar
    89    17    14    1
    90   129   128   ar
    91   137   136    1
    92   137   139   am
    93    61    59   ar
    94    61    64   ar
    95   130   128   ar
    96   128   127    1
    97   124   127    1
    98   124   123    1
    99    59    58    1
   100    66    64   ar
   101    10     8   ar
   102    16    15    2
   103    57    56    2
   104    56    55    1
   105     7     6   ar
   106    14    15    1
   107    14    13    1
   108    15    22   am
   109    53    52    1
   110    55    58    1
   111    55    54    1
   112     8     6   ar
   113    29    28    2
   114    22    23    1
   115    23    24    1
   116     6     5    1
   117    52    51    1
   118    38    37    1
   119    26    24   am
   120    26    27    1
   121    37    34    1
   122    37    39    1
   123    24    25    2
   124    28    27    1
   125    28    33   am
   126    51    50    1
   127    34    33    1
   128    34    35    1
   129     5     2    1
   130     3     4    2
   131     3     2    1
   132    27    30    1
   133    32    30    1
   134    40    35   am
   135    40    41    1
   136    44    41    1
   137     2     1    1
   138    35    36    2
   139    50    49    1
   140    30    31    1
   141    41    42    1
   142    42    43    2
   143    49    46    1
   144    46    47    1
   145    46    45    1
   146    47    48    2
