@<TRIPOS>MOLECULE
tmp/3ubqK00.pdb
 152 146 0 0 0
SMALL
GASTEIGER

@<TRIPOS>ATOM
      1  N        -23.0260  -39.1990  -87.8540 N.3    86  TYR86      -0.1241
      2  CA       -21.9130  -38.3680  -88.3110 C.3    86  TYR86       0.1605
      3  C        -21.3460  -37.6380  -87.1010 C.2    86  TYR86       0.2264
      4  O        -22.0360  -36.8390  -86.4820 O.2    86  TYR86      -0.2867
      5  CB       -22.3660  -37.3770  -89.3840 C.3    86  TYR86       0.0534
      6  CG       -21.2430  -36.8200  -90.2500 C.ar   86  TYR86      -0.0201
      7  CD1      -20.3710  -35.8530  -89.7590 C.ar   86  TYR86      -0.0009
      8  CD2      -21.0630  -37.2600  -91.5580 C.ar   86  TYR86      -0.0009
      9  CE1      -19.3500  -35.3380  -90.5480 C.ar   86  TYR86       0.0417
     10  CE2      -20.0420  -36.7430  -92.3620 C.ar   86  TYR86       0.0417
     11  CZ       -19.1910  -35.7830  -91.8490 C.ar   86  TYR86       0.1957
     12  OH       -18.1720  -35.2650  -92.6330 O.3    86  TYR86      -0.2866
     13  N        -27.3490  -34.7230 -102.9820 N.3   125  LYS125     -0.1231
     14  CA       -26.1300  -35.4910 -102.7310 C.3   125  LYS125      0.1693
     15  C        -25.5700  -35.3210 -101.3160 C.2   125  LYS125      0.2593
     16  O        -24.3970  -35.5970 -101.0700 O.2   125  LYS125     -0.2718
     17  CB       -25.0610  -35.2190 -103.7990 C.3   125  LYS125      0.0285
     18  CG       -24.6210  -33.7720 -103.9280 C.3   125  LYS125      0.0035
     19  CD       -23.6260  -33.6070 -105.0800 C.3   125  LYS125      0.0206
     20  CE       -23.1370  -32.1620 -105.2050 C.3   125  LYS125      0.1093
     21  NZ       -22.1960  -31.9440 -106.3500 N.3   125  LYS125     -0.1314
     22  N        -26.4210  -34.8900 -100.3880 N.am  126  GLY126     -0.1942
     23  CA       -26.0220  -34.7340  -98.9990 C.3   126  GLY126      0.2014
     24  C        -26.0530  -36.0420  -98.2300 C.2   126  GLY126      0.2639
     25  O        -26.7800  -36.1750  -97.2440 O.2   126  GLY126     -0.2714
     26  N        -25.2630  -37.0120  -98.6810 N.am  127  VAL127     -0.1963
     27  CA       -25.2360  -38.3330  -98.0670 C.3   127  VAL127      0.1727
     28  C        -23.8390  -38.6870  -97.5770 C.2   127  VAL127      0.2617
     29  O        -22.8740  -37.9900  -97.8740 O.2   127  VAL127     -0.2715
     30  CB       -25.6990  -39.4200  -99.0510 C.3   127  VAL127      0.0290
     31  CG1      -27.1930  -39.3030  -99.3060 C.3   127  VAL127      0.0023
     32  CG2      -24.9150  -39.3260 -100.3540 C.3   127  VAL127      0.0023
     33  N        -23.7340  -39.7780  -96.8270 N.am  128  THR128     -0.1937
     34  CA       -22.4530  -40.1930  -96.2720 C.3   128  THR128      0.2028
     35  C        -22.4730  -41.6530  -95.8320 C.2   128  THR128      0.2642
     36  O        -23.4720  -42.1430  -95.3070 O.2   128  THR128     -0.2714
     37  CB       -22.0380  -39.2990  -95.0810 C.3   128  THR128      0.1808
     38  OG1      -20.8550  -39.8240  -94.4740 O.3   128  THR128     -0.2208
     39  CG2      -23.1450  -39.2440  -94.0340 C.3   128  THR128      0.0379
     40  N        -21.3630  -42.3460  -96.0510 N.am  129  ALA129     -0.1977
     41  CA       -21.2360  -43.7330  -95.6300 C.3   129  ALA129      0.1597
     42  C        -21.2220  -43.8150  -94.1070 C.2   129  ALA129      0.2287
     43  O        -21.2790  -44.9030  -93.5290 O.2   129  ALA129     -0.2864
     44  CB       -19.9720  -44.3440  -96.2090 C.3   129  ALA129      0.0319
     45  N        -25.0530  -45.0150  -99.0530 N.3   137  LYS137     -0.1245
     46  CA       -24.9390  -43.8020  -98.2530 C.3   137  LYS137      0.1561
     47  C        -26.3150  -43.2030  -98.0120 C.2   137  LYS137      0.2260
     48  O        -27.2030  -43.3250  -98.8520 O.2   137  LYS137     -0.2867
     49  CB       -24.0780  -42.7660  -98.9750 C.3   137  LYS137      0.0271
     50  CG       -22.7140  -43.2660  -99.4100 C.3   137  LYS137      0.0035
     51  CD       -21.9800  -42.2040 -100.2140 C.3   137  LYS137      0.0206
     52  CE       -20.6540  -42.7230 -100.7490 C.3   137  LYS137      0.1093
     53  NZ       -19.9280  -41.6780 -101.5330 N.3   137  LYS137     -0.1314
     54  N        -28.6090  -31.9950  -95.9100 N.3   145  TRP145     -0.1241
     55  CA       -27.2530  -31.4900  -96.0050 C.3   145  TRP145      0.1605
     56  C        -27.0380  -30.8300  -97.3610 C.2   145  TRP145      0.2264
     57  O        -26.6310  -31.4890  -98.3120 O.2   145  TRP145     -0.2867
     58  CB       -26.2890  -32.6560  -95.8330 C.3   145  TRP145      0.0550
     59  CG       -24.8590  -32.2880  -95.8000 C.ar  145  TRP145      0.0003
     60  CD1      -24.3190  -31.0390  -95.9270 C.ar  145  TRP145      0.0946
     61  CD2      -23.7620  -33.1880  -95.6250 C.ar  145  TRP145      0.0152
     62  NE1      -22.9470  -31.1100  -95.8460 N.ar  145  TRP145     -0.2442
     63  CE2      -22.5810  -32.4180  -95.6570 C.ar  145  TRP145      0.0810
     64  CE3      -23.6640  -34.5720  -95.4440 C.ar  145  TRP145      0.0012
     65  CZ2      -21.3200  -32.9860  -95.5150 C.ar  145  TRP145      0.0191
     66  CZ3      -22.4150  -35.1330  -95.3060 C.ar  145  TRP145      0.0001
     67  CH2      -21.2570  -34.3440  -95.3410 C.ar  145  TRP145      0.0015
     68  N        -25.4860  -28.7860 -100.4370 N.3   147  VAL147     -0.1245
     69  CA       -24.1740  -28.5590 -101.0360 C.3   147  VAL147      0.1561
     70  C        -24.3400  -27.6580 -102.2510 C.2   147  VAL147      0.2260
     71  O        -25.4640  -27.3740 -102.6680 O.2   147  VAL147     -0.2867
     72  CB       -23.5160  -29.8710 -101.4850 C.3   147  VAL147      0.0252
     73  CG1      -23.1060  -30.7100 -100.2780 C.3   147  VAL147      0.0019
     74  CG2      -24.4530  -30.6450 -102.3890 C.3   147  VAL147      0.0019
     75  N        -21.7500  -28.1060  -90.5520 N.3   175  HIS175     -0.1241
     76  CA       -20.7440  -29.0590  -91.0120 C.3   175  HIS175      0.1621
     77  C        -19.3430  -28.4780  -91.0530 C.2   175  HIS175      0.2264
     78  O        -19.1290  -27.3590  -91.5140 O.2   175  HIS175     -0.2867
     79  CB       -21.0750  -29.6340  -92.3900 C.3   175  HIS175      0.0745
     80  CG       -20.0710  -30.6400  -92.8610 C.ar  175  HIS175      0.0817
     81  ND1      -19.1940  -30.3930  -93.8930 N.ar  175  HIS175     -0.2268
     82  CD2      -19.7750  -31.8800  -92.4060 C.ar  175  HIS175      0.1154
     83  CE1      -18.4170  -31.4470  -94.0710 C.ar  175  HIS175      0.1986
     84  NE2      -18.7470  -32.3610  -93.1800 N.ar  175  HIS175     -0.2212
     85  N        -15.7830  -29.4500  -92.6180 N.3   177  PRO177     -0.2102
     86  CA       -14.9310  -30.3220  -93.4280 C.3   177  PRO177      0.1504
     87  C        -13.5510  -30.4890  -92.8010 C.2   177  PRO177      0.2576
     88  O        -13.1230  -29.6590  -92.0000 O.2   177  PRO177     -0.2718
     89  CB       -14.8290  -29.5700  -94.7610 C.3   177  PRO177      0.0282
     90  CG       -16.0570  -28.7110  -94.8020 C.3   177  PRO177      0.0208
     91  CD       -16.2590  -28.2830  -93.3780 C.3   177  PRO177      0.0893
     92  N        -12.8630  -31.5610  -93.1730 N.am  178  SER178     -0.1953
     93  CA       -11.5400  -31.8420  -92.6470 C.3   178  SER178      0.1924
     94  C        -10.4470  -30.9980  -93.3020 C.2   178  SER178      0.2314
     95  O         -9.3780  -30.8120  -92.7230 O.2   178  SER178     -0.2863
     96  CB       -11.2170  -33.3160  -92.8450 C.3   178  SER178      0.2116
     97  OG       -11.2380  -33.6420  -94.2210 O.3   178  SER178     -0.2180
     98  N        -11.9670  -29.7940  -99.2900 N.3   182  ASP182     -0.1239
     99  CA       -13.3090  -30.3220  -99.0660 C.3   182  ASP182      0.1674
    100  C        -14.3230  -29.2060  -98.8470 C.2   182  ASP182      0.2266
    101  O        -15.4680  -29.2960  -99.2870 O.2   182  ASP182     -0.2867
    102  CB       -13.3070  -31.2960  -97.8950 C.3   182  ASP182      0.1410
    103  CG       -12.6970  -32.6300  -98.2590 C.2   182  ASP182      0.3668
    104  OD1      -12.0410  -32.7030  -99.3210 O.co2 182  ASP182     -0.2456
    105  OD2      -12.8770  -33.6010  -97.4880 O.co2 182  ASP182     -0.2456
    106  N        -17.4970  -28.8500 -101.3970 N.3   186  LEU186     -0.1245
    107  CA       -18.8810  -28.9370 -100.9370 C.3   186  LEU186      0.1561
    108  C        -19.6320  -27.6150 -101.0420 C.2   186  LEU186      0.2260
    109  O        -20.7950  -27.5860 -101.4450 O.2   186  LEU186     -0.2867
    110  CB       -18.9520  -29.4570  -99.4970 C.3   186  LEU186      0.0270
    111  CG       -19.0050  -30.9730  -99.3040 C.3   186  LEU186      0.0019
    112  CD1      -17.7620  -31.6360  -99.8770 C.3   186  LEU186      0.0001
    113  CD2      -19.1730  -31.3060  -97.8290 C.3   186  LEU186      0.0001
    114  N        -10.4430  -40.1010  -86.9290 N.3   214  LYS214     -0.1245
    115  CA       -11.5060  -40.7720  -87.6680 C.3   214  LYS214      0.1561
    116  C        -12.5440  -41.4010  -86.7470 C.2   214  LYS214      0.2260
    117  O        -12.2200  -42.2450  -85.9180 O.2   214  LYS214     -0.2867
    118  CB       -10.9250  -41.8480  -88.5920 C.3   214  LYS214      0.0271
    119  CG       -10.5430  -41.3590  -89.9860 C.3   214  LYS214      0.0035
    120  CD        -9.9150  -42.4830  -90.8070 C.3   214  LYS214      0.0206
    121  CE        -9.4980  -42.0140  -92.1950 C.3   214  LYS214      0.1093
    122  NZ       -10.6780  -41.7170  -93.0590 N.3   214  LYS214     -0.1314
    123  N        -15.2200  -43.4560  -89.9140 N.3   217  ASP217     -0.1225
    124  CA       -14.4650  -43.1510  -91.1360 C.3   217  ASP217      0.1805
    125  C        -14.5320  -41.6860  -91.5750 C.2   217  ASP217      0.2598
    126  O        -14.2860  -41.3650  -92.7370 O.2   217  ASP217     -0.2718
    127  CB       -14.8630  -44.0790  -92.2910 C.3   217  ASP217      0.1424
    128  CG       -13.7720  -44.1830  -93.3600 C.2   217  ASP217      0.3668
    129  OD1      -14.1110  -44.3780  -94.5490 O.co2 217  ASP217     -0.2456
    130  OD2      -12.5730  -44.0740  -93.0080 O.co2 217  ASP217     -0.2456
    131  N        -14.8460  -40.8000  -90.6370 N.am  218  GLN218     -0.1965
    132  CA       -14.9470  -39.3800  -90.9410 C.3   218  GLN218      0.1733
    133  C        -13.9190  -38.5700  -90.1560 C.2   218  GLN218      0.2616
    134  O        -13.8310  -38.6790  -88.9270 O.2   218  GLN218     -0.2715
    135  CB       -16.3590  -38.8750  -90.6370 C.3   218  GLN218      0.0408
    136  CG       -17.4580  -39.7140  -91.2630 C.3   218  GLN218      0.0908
    137  CD       -17.3270  -39.8110  -92.7680 C.2   218  GLN218      0.2608
    138  OE1      -16.8410  -38.8890  -93.4200 O.2   218  GLN218     -0.2717
    139  NE2      -17.7530  -40.9360  -93.3270 N.am  218  GLN218     -0.0878
    140  N        -13.1430  -37.7630  -90.8740 N.am  219  GLU219     -0.1963
    141  CA       -12.1560  -36.8930  -90.2480 C.3   219  GLU219      0.1733
    142  C        -12.7500  -35.5190  -89.9970 C.2   219  GLU219      0.2616
    143  O        -12.1620  -34.6970  -89.2970 O.2   219  GLU219     -0.2715
    144  CB       -10.8950  -36.7870  -91.1070 C.3   219  GLU219      0.0429
    145  CG       -10.0010  -38.0220  -91.0170 C.3   219  GLU219      0.1163
    146  CD        -8.7740  -37.9330  -91.9000 C.2   219  GLU219      0.3649
    147  OE1       -8.9070  -37.5080  -93.0670 O.co2 219  GLU219     -0.2457
    148  OE2       -7.6780  -38.2930  -91.4260 O.co2 219  GLU219     -0.2457
    149  N        -13.9250  -35.2820  -90.5690 N.am  220  GLY220     -0.1955
    150  CA       -14.6380  -34.0390  -90.3520 C.3   220  GLY220      0.1869
    151  C        -15.6270  -34.1550  -89.2090 C.2   220  GLY220      0.2309
    152  O        -15.7450  -35.2070  -88.5880 O.2   220  GLY220     -0.2863
@<TRIPOS>BOND
     1    21    20    1
     2    20    19    1
     3    19    18    1
     4    18    17    1
     5    17    14    1
     6    13    14    1
     7    14    15    1
     8    71    70    2
     9    74    72    1
    10    70    69    1
    11    53    52    1
    12    72    69    1
    13    72    73    1
    14   109   108    2
    15   106   107    1
    16    15    16    2
    17    15    22   am
    18   108   107    1
    19    69    68    1
    20   107   110    1
    21    52    51    1
    22    22    23    1
    23    32    30    1
    24    51    50    1
    25   112   111    1
    26   110   111    1
    27    50    49    1
    28   104   103   ar
    29    31    30    1
    30   111   113    1
    31    98    99    1
    32   101   100    2
    33    99   100    1
    34    99   102    1
    35    45    46    1
    36    30    27    1
    37    23    24    1
    38    49    46    1
    39    48    47    2
    40    26    24   am
    41    26    27    1
    42    57    56    2
    43   103   102    1
    44   103   105   ar
    45    46    47    1
    46    24    25    2
    47    27    28    1
    48    29    28    2
    49    28    33   am
    50    56    55    1
    51    33    34    1
    52    34    35    1
    53    34    37    1
    54    44    41    1
    55    40    35   am
    56    40    41    1
    57    55    54    1
    58    55    58    1
    59    60    62   ar
    60    60    59   ar
    61    62    63   ar
    62    58    59    1
    63    35    36    2
    64    59    61   ar
    65    63    61   ar
    66    63    65   ar
    67    41    42    1
    68    61    64   ar
    69    65    67   ar
    70    64    66   ar
    71    67    66   ar
    72    37    38    1
    73    37    39    1
    74    90    89    1
    75    90    91    1
    76    89    86    1
    77   129   128   ar
    78    97    96    1
    79    42    43    2
    80    83    81   ar
    81    83    84   ar
    82    81    80   ar
    83    86    87    1
    84    86    85    1
    85   138   137    2
    86    91    85    1
    87   128   130   ar
    88   128   127    1
    89   139   137   am
    90    94    95    2
    91    94    93    1
    92    84    82   ar
    93    92    87   am
    94    92    93    1
    95   147   146   ar
    96   122   121    1
    97    80    82   ar
    98    80    79    1
    99    96    93    1
   100    87    88    2
   101   137   136    1
   102   126   125    2
   103    12    11    1
   104    79    76    1
   105    10    11   ar
   106    10     8   ar
   107   127   124    1
   108   121   120    1
   109   146   148   ar
   110   146   145    1
   111    11     9   ar
   112   125   124    1
   113   125   131   am
   114     8     6   ar
   115    78    77    2
   116   136   135    1
   117   124   123    1
   118   144   145    1
   119   144   141    1
   120    77    76    1
   121    76    75    1
   122   132   131    1
   123   132   135    1
   124   132   133    1
   125   140   141    1
   126   140   133   am
   127   120   119    1
   128   149   150    1
   129   149   142   am
   130     9     7   ar
   131   150   151    1
   132     6     7   ar
   133     6     5    1
   134   141   142    1
   135   133   134    2
   136   142   143    2
   137   119   118    1
   138     5     2    1
   139   151   152    2
   140   118   115    1
   141     2     1    1
   142     2     3    1
   143   115   114    1
   144   115   116    1
   145     3     4    2
   146   116   117    2
