@<TRIPOS>MOLECULE
tmp/3ubrB02.pdb
 233 224 0 0 0
SMALL
GASTEIGER

@<TRIPOS>ATOM
      1  N         44.5910   21.2850  -12.4720 N.3     8  ASN8       -0.1240
      2  CA        44.0800   20.1790  -11.6810 C.3     8  ASN8        0.1653
      3  C         44.7500   20.0600  -10.3200 C.2     8  ASN8        0.2266
      4  O         44.3220   19.2740   -9.4670 O.2     8  ASN8       -0.2867
      5  CB        44.2010   18.8840  -12.4870 C.3     8  ASN8        0.1155
      6  CG        43.1700   18.8030  -13.6040 C.2     8  ASN8        0.2627
      7  OD1       42.0660   19.3540  -13.4880 O.2     8  ASN8       -0.2716
      8  ND2       43.5160   18.1050  -14.6830 N.am    8  ASN8       -0.0877
      9  N         43.0880   21.9010   -6.5070 N.3    11  TYR11      -0.1241
     10  CA        42.1520   21.2270   -5.5910 C.3    11  TYR11       0.1605
     11  C         42.7230   20.0760   -4.7550 C.2    11  TYR11       0.2264
     12  O         41.9670   19.4070   -4.0420 O.2    11  TYR11      -0.2867
     13  CB        40.8950   20.7770   -6.3490 C.3    11  TYR11       0.0534
     14  CG        40.1820   21.9500   -6.9670 C.ar   11  TYR11      -0.0201
     15  CD1       39.7650   23.0230   -6.1710 C.ar   11  TYR11      -0.0009
     16  CD2       39.9540   22.0140   -8.3390 C.ar   11  TYR11      -0.0009
     17  CE1       39.1430   24.1270   -6.7240 C.ar   11  TYR11       0.0417
     18  CE2       39.3320   23.1090   -8.9040 C.ar   11  TYR11       0.0417
     19  CZ        38.9220   24.1620   -8.0900 C.ar   11  TYR11       0.1957
     20  OH        38.2930   25.2520   -8.6370 O.3    11  TYR11      -0.2866
     21  N         40.5170   19.0000   -1.7110 N.3    15  PHE15      -0.1241
     22  CA        39.8130   17.7310   -1.8750 C.3    15  PHE15       0.1605
     23  C         40.8810   16.6420   -2.0190 C.2    15  PHE15       0.2264
     24  O         41.3340   16.3180   -3.1290 O.2    15  PHE15      -0.2867
     25  CB        38.8890   17.7740   -3.0800 C.3    15  PHE15       0.0534
     26  CG        37.8040   18.7680   -2.9370 C.ar   15  PHE15      -0.0203
     27  CD1       36.7600   18.5340   -2.0530 C.ar   15  PHE15      -0.0042
     28  CD2       37.8370   19.9610   -3.6400 C.ar   15  PHE15      -0.0042
     29  CE1       35.7370   19.4630   -1.8950 C.ar   15  PHE15      -0.0003
     30  CE2       36.8300   20.8970   -3.4860 C.ar   15  PHE15      -0.0003
     31  CZ        35.7700   20.6420   -2.6150 C.ar   15  PHE15      -0.0000
     32  N         39.7940   12.7560   -3.3350 N.3    18  GLN18      -0.1231
     33  CA        39.2660   12.8140   -4.6880 C.3    18  GLN18       0.1698
     34  C         40.3330   13.2000   -5.6890 C.2    18  GLN18       0.2592
     35  O         40.3700   12.6620   -6.7800 O.2    18  GLN18      -0.2718
     36  CB        38.0860   13.7800   -4.7560 C.3    18  GLN18       0.0381
     37  CG        36.8530   13.3090   -3.9690 C.3    18  GLN18       0.0905
     38  CD        36.7150   13.9140   -2.5730 C.2    18  GLN18       0.2608
     39  OE1       35.6000   14.0800   -2.0840 O.2    18  GLN18      -0.2717
     40  NE2       37.8340   14.2460   -1.9320 N.am   18  GLN18      -0.0878
     41  N         41.2130   14.1220   -5.3300 N.am   19  TYR19      -0.1976
     42  CA        42.3780   14.3680   -6.1560 C.3    19  TYR19       0.1639
     43  C         43.2290   13.1290   -6.2060 C.2    19  TYR19       0.2290
     44  O         43.7290   12.7650   -7.2590 O.2    19  TYR19      -0.2864
     45  CB        43.2210   15.4990   -5.6120 C.3    19  TYR19       0.0560
     46  CG        44.5100   15.6770   -6.3900 C.ar   19  TYR19      -0.0198
     47  CD1       44.5240   16.3660   -7.6100 C.ar   19  TYR19      -0.0009
     48  CD2       45.7080   15.1440   -5.9200 C.ar   19  TYR19      -0.0009
     49  CE1       45.6900   16.5310   -8.3320 C.ar   19  TYR19       0.0417
     50  CE2       46.8880   15.3020   -6.6350 C.ar   19  TYR19       0.0417
     51  CZ        46.8770   16.0010   -7.8400 C.ar   19  TYR19       0.1957
     52  OH        48.0540   16.1560   -8.5490 O.3    19  TYR19      -0.2866
     53  N         41.7000   10.4010   -8.3160 N.3    22  TRP22      -0.1241
     54  CA        41.7290   10.9220   -9.6940 C.3    22  TRP22       0.1605
     55  C         43.1100   10.7760  -10.3690 C.2    22  TRP22       0.2264
     56  O         43.1960   10.4580  -11.5600 O.2    22  TRP22      -0.2867
     57  CB        41.2870   12.4000   -9.7130 C.3    22  TRP22       0.0550
     58  CG        41.5850   13.0960  -10.9970 C.ar   22  TRP22       0.0003
     59  CD1       40.7730   13.1820  -12.0860 C.ar   22  TRP22       0.0946
     60  CD2       42.7950   13.7850  -11.3400 C.ar   22  TRP22       0.0152
     61  NE1       41.4000   13.8860  -13.0840 N.ar   22  TRP22      -0.2442
     62  CE2       42.6440   14.2620  -12.6520 C.ar   22  TRP22       0.0810
     63  CE3       43.9970   14.0330  -10.6690 C.ar   22  TRP22       0.0012
     64  CZ2       43.6400   14.9880  -13.2980 C.ar   22  TRP22       0.0191
     65  CZ3       44.9880   14.7490  -11.3200 C.ar   22  TRP22       0.0001
     66  CH2       44.8010   15.2200  -12.6100 C.ar   22  TRP22       0.0015
     67  N         42.6100    8.3100  -17.8660 N.3    60  HIS60      -0.1241
     68  CA        42.2690    9.7280  -18.1270 C.3    60  HIS60       0.1621
     69  C         43.4600   10.6830  -18.0510 C.2    60  HIS60       0.2264
     70  O         43.5090   11.6690  -18.7700 O.2    60  HIS60      -0.2867
     71  CB        41.1670   10.2150  -17.1670 C.3    60  HIS60       0.0745
     72  CG        39.7790    9.7460  -17.5240 C.ar   60  HIS60       0.0817
     73  ND1       38.7160    9.8080  -16.6470 N.ar   60  HIS60      -0.2268
     74  CD2       39.2870    9.2020  -18.6620 C.ar   60  HIS60       0.1154
     75  CE1       37.6300    9.3360  -17.2360 C.ar   60  HIS60       0.1986
     76  NE2       37.9490    8.9600  -18.4600 N.ar   60  HIS60      -0.2212
     77  N         41.9120   15.5190  -18.7810 N.3   124  ILE124     -0.1231
     78  CA        40.5520   15.4580  -18.3120 C.3   124  ILE124      0.1692
     79  C         40.6270   15.6940  -16.8190 C.2   124  ILE124      0.2593
     80  O         41.2090   14.8990  -16.1000 O.2   124  ILE124     -0.2718
     81  CB        39.9100   14.1030  -18.6170 C.3   124  ILE124      0.0266
     82  CG1       39.8960   13.8340  -20.1220 C.3   124  ILE124      0.0019
     83  CG2       38.4860   14.0840  -18.1230 C.3   124  ILE124      0.0020
     84  CD1       40.0130   12.4000  -20.4810 C.3   124  ILE124      0.0001
     85  N         40.0850   16.8110  -16.3590 N.am  125  GLY125     -0.1942
     86  CA        40.2090   17.1970  -14.9560 C.3   125  GLY125      0.2014
     87  C         38.8930   17.4710  -14.2570 C.2   125  GLY125      0.2639
     88  O         37.8430   16.9760  -14.6580 O.2   125  GLY125     -0.2714
     89  N         38.9640   18.2850  -13.2090 N.am  126  CYS126     -0.1967
     90  CA        37.8370   18.5020  -12.3050 C.3   126  CYS126      0.1712
     91  C         36.7130   19.2880  -12.9560 C.2   126  CYS126      0.2296
     92  O         35.5210   19.0270  -12.7150 O.2   126  CYS126     -0.2864
     93  CB        38.2870   19.2940  -11.0660 C.3   126  CYS126      0.0983
     94  SG        39.5760   18.6090  -10.0480 S.3   126  CYS126     -0.0798
     95  N         33.7560   17.6140  -15.2750 N.3   129  CYS129     -0.1221
     96  CA        32.5310   17.0320  -14.6720 C.3   129  CYS129      0.1808
     97  C         31.8680   17.8860  -13.5860 C.2   129  CYS129      0.2601
     98  O         30.6650   17.7390  -13.3290 O.2   129  CYS129     -0.2717
     99  CB        32.8280   15.6780  -14.0250 C.3   129  CYS129      0.0970
    100  SG        33.5990   14.4570  -15.0510 S.3   129  CYS129     -0.0800
    101  N         32.6430   18.7350  -12.9170 N.am  130  HIS130     -0.1975
    102  CA        32.1220   19.5080  -11.7920 C.3   130  HIS130      0.1656
    103  C         31.9950   21.0020  -12.0450 C.2   130  HIS130      0.2291
    104  O         32.6490   21.5650  -12.9190 O.2   130  HIS130     -0.2864
    105  CB        33.0130   19.3250  -10.5750 C.3   130  HIS130      0.0771
    106  CG        32.8560   18.0060   -9.9020 C.ar  130  HIS130      0.0820
    107  ND1       31.7550   17.6900   -9.1360 N.ar  130  HIS130     -0.2267
    108  CD2       33.6720   16.9270   -9.8590 C.ar  130  HIS130      0.1154
    109  CE1       31.8960   16.4660   -8.6580 C.ar  130  HIS130      0.1986
    110  NE2       33.0520   15.9810   -9.0800 N.ar  130  HIS130     -0.2212
    111  N         33.3240   23.1840  -10.3290 N.3   132  LYS132     -0.1245
    112  CA        34.4410   23.5930   -9.4460 C.3   132  LYS132      0.1561
    113  C         34.5720   25.1040   -9.2270 C.2   132  LYS132      0.2260
    114  O         34.8820   25.8460  -10.1690 O.2   132  LYS132     -0.2867
    115  CB        35.7940   23.0330   -9.9500 C.3   132  LYS132      0.0271
    116  CG        36.3710   21.8890   -9.1220 C.3   132  LYS132      0.0035
    117  CD        35.3720   20.7590   -8.9060 C.3   132  LYS132      0.0206
    118  CE        35.4150   20.1900   -7.4870 C.3   132  LYS132      0.1093
    119  NZ        34.0880   19.6230   -7.1020 N.3   132  LYS132     -0.1314
    120  N         31.9000   20.7270   -4.9310 N.3   135  PRO135     -0.2102
    121  CA        31.3850   19.5570   -5.6530 C.3   135  PRO135      0.1504
    122  C         30.1730   19.9160   -6.4730 C.2   135  PRO135      0.2576
    123  O         29.9130   21.1080   -6.6790 O.2   135  PRO135     -0.2718
    124  CB        31.0130   18.5880   -4.5230 C.3   135  PRO135      0.0282
    125  CG        30.5720   19.4680   -3.4300 C.3   135  PRO135      0.0208
    126  CD        31.4450   20.7150   -3.5230 C.3   135  PRO135      0.0893
    127  N         29.4410   18.8960   -6.9280 N.am  136  LYS136     -0.1966
    128  CA        28.2420   19.0790   -7.7460 C.3   136  LYS136      0.1728
    129  C         28.6320   19.0150   -9.2190 C.2   136  LYS136      0.2616
    130  O         29.7270   19.4430   -9.6310 O.2   136  LYS136     -0.2715
    131  CB        27.5190   20.4000   -7.4390 C.3   136  LYS136      0.0311
    132  CG        26.0640   20.4810   -7.8660 C.3   136  LYS136      0.0038
    133  CD        25.4620   21.8440   -7.4760 C.3   136  LYS136      0.0206
    134  CE        25.2030   21.9620   -5.9400 C.3   136  LYS136      0.1093
    135  NZ        24.8760   23.3590   -5.4790 N.3   136  LYS136     -0.1314
    136  N         27.6970   18.4990  -10.0050 N.am  137  LEU137     -0.1977
    137  CA        27.9690   18.1390  -11.3650 C.3   137  LEU137      0.1596
    138  C         27.5550   19.2370  -12.3110 C.2   137  LEU137      0.2287
    139  O         26.8610   20.1720  -11.9350 O.2   137  LEU137     -0.2864
    140  CB        27.2210   16.8580  -11.7020 C.3   137  LEU137      0.0297
    141  CG        27.4600   15.7140  -10.7280 C.3   137  LEU137      0.0022
    142  CD1       26.7450   14.5040  -11.2750 C.3   137  LEU137      0.0001
    143  CD2       28.9650   15.4590  -10.5010 C.3   137  LEU137      0.0001
    144  N         19.1670   12.2590   -9.7440 N.3   160  LYS160     -0.1245
    145  CA        20.5720   12.1330   -9.3090 C.3   160  LYS160      0.1561
    146  C         21.2350   10.9280  -10.0200 C.2   160  LYS160      0.2260
    147  O         22.3430   11.0400  -10.5420 O.2   160  LYS160     -0.2867
    148  CB        20.6400   12.0390   -7.7650 C.3   160  LYS160      0.0271
    149  CG        22.0190   11.7550   -7.1190 C.3   160  LYS160      0.0035
    150  CD        21.8410   11.2800   -5.6450 C.3   160  LYS160      0.0206
    151  CE        21.2310    9.8260   -5.5140 C.3   160  LYS160      0.1093
    152  NZ        20.3970    9.5940   -4.2850 N.3   160  LYS160     -0.1314
    153  N         24.4830   10.8360  -13.2310 N.3   164  GLU164     -0.1245
    154  CA        25.7100   10.0690  -12.9670 C.3   164  GLU164      0.1567
    155  C         26.2990    9.4910  -14.2530 C.2   164  GLU164      0.2260
    156  O         27.5270    9.4550  -14.4130 O.2   164  GLU164     -0.2867
    157  CB        25.4680    8.9490  -11.9360 C.3   164  GLU164      0.0388
    158  CG        24.9070    9.4290  -10.5910 C.3   164  GLU164      0.1160
    159  CD        25.2260    8.5060   -9.4150 C.2   164  GLU164      0.3649
    160  OE1       25.1740    7.2580   -9.5790 O.co2 164  GLU164     -0.2457
    161  OE2       25.5100    9.0490   -8.3150 O.co2 164  GLU164     -0.2457
    162  N         27.2890   12.6410  -17.1370 N.3   167  VAL167     -0.1231
    163  CA        28.6480   13.2280  -16.9810 C.3   167  VAL167      0.1692
    164  C         29.7280   12.5060  -17.7640 C.2   167  VAL167      0.2592
    165  O         30.7600   13.0940  -18.0740 O.2   167  VAL167     -0.2718
    166  CB        29.1520   13.2660  -15.5060 C.3   167  VAL167      0.0266
    167  CG1       28.6940   14.5430  -14.7980 C.3   167  VAL167      0.0020
    168  CG2       28.7190   12.0070  -14.7410 C.3   167  VAL167      0.0020
    169  N         29.5020   11.2200  -18.0210 N.am  168  CYS168     -0.1970
    170  CA        30.3440   10.4270  -18.8960 C.3   168  CYS168      0.1712
    171  C         29.8810   10.5740  -20.3510 C.2   168  CYS168      0.2296
    172  O         30.7100   10.6510  -21.2620 O.2   168  CYS168     -0.2864
    173  CB        30.2840    8.9570  -18.4850 C.3   168  CYS168      0.0983
    174  SG        30.6080    8.5900  -16.7210 S.3   168  CYS168     -0.0798
    175  N         28.7900    5.3480  -12.9460 N.3   245  VAL245     -0.1245
    176  CA        29.4970    5.6400  -11.7160 C.3   245  VAL245      0.1561
    177  C         29.3650    4.4660  -10.7660 C.2   245  VAL245      0.2260
    178  O         30.3630    4.0530  -10.2050 O.2   245  VAL245     -0.2867
    179  CB        28.9760    6.9570  -11.0500 C.3   245  VAL245      0.0252
    180  CG1       29.8630    7.3800   -9.8980 C.3   245  VAL245      0.0019
    181  CG2       28.9030    8.0990  -12.0610 C.3   245  VAL245      0.0019
    182  N         32.8700    4.6410  -10.8050 N.3   249  MET249     -0.1245
    183  CA        33.2930    5.5850   -9.7680 C.3   249  MET249      0.1570
    184  C         32.5650    5.2700   -8.4520 C.2   249  MET249      0.2261
    185  O         31.7320    6.0540   -7.9880 O.2   249  MET249     -0.2867
    186  CB        33.0890    7.0450  -10.2400 C.3   249  MET249      0.0387
    187  CG        34.2430    7.5610  -11.1460 C.3   249  MET249      0.0595
    188  SD        33.9260    9.1780  -11.8760 S.3   249  MET249     -0.1393
    189  CE        34.2000   10.2210  -10.4560 C.3   249  MET249      0.0692
    190  N         31.8000    4.1210   -4.3270 N.3   251  LYS251     -0.1245
    191  CA        32.0900    4.6850   -3.0150 C.3   251  LYS251      0.1561
    192  C         32.9720    3.7360   -2.2280 C.2   251  LYS251      0.2260
    193  O         32.6590    2.5590   -2.0450 O.2   251  LYS251     -0.2867
    194  CB        30.8130    4.9590   -2.2330 C.3   251  LYS251      0.0271
    195  CG        29.8690    5.9290   -2.9260 C.3   251  LYS251      0.0035
    196  CD        30.2990    7.4000   -2.7840 C.3   251  LYS251      0.0206
    197  CE        29.2200    8.3840   -3.2970 C.3   251  LYS251      0.1093
    198  NZ        29.2010    8.6510   -4.7890 N.3   251  LYS251     -0.1314
    199  N         33.6550    7.8120    0.6540 N.3   260  PHE260     -0.1227
    200  CA        33.7120    8.7830   -0.4540 C.3   260  PHE260      0.1736
    201  C         33.7370    8.0880   -1.8290 C.2   260  PHE260      0.2596
    202  O         33.9760    6.8810   -1.9340 O.2   260  PHE260     -0.2718
    203  CB        34.9290    9.7160   -0.3030 C.3   260  PHE260      0.0547
    204  CG        36.2280    9.0870   -0.7170 C.ar  260  PHE260     -0.0202
    205  CD1       36.7660    9.3360   -1.9610 C.ar  260  PHE260     -0.0042
    206  CD2       36.9000    8.2290    0.1340 C.ar  260  PHE260     -0.0042
    207  CE1       37.9660    8.7500   -2.3460 C.ar  260  PHE260     -0.0003
    208  CE2       38.1050    7.6390   -0.2410 C.ar  260  PHE260     -0.0003
    209  CZ        38.6350    7.8930   -1.4770 C.ar  260  PHE260     -0.0000
    210  N         33.5130    8.8790   -2.8740 N.am  261  THR261     -0.1953
    211  CA        33.4650    8.3740   -4.2420 C.3   261  THR261      0.1897
    212  C         34.8730    8.2250   -4.8600 C.2   261  THR261      0.2313
    213  O         35.6460    9.1800   -4.9470 O.2   261  THR261     -0.2863
    214  CB        32.5240    9.2390   -5.1140 C.3   261  THR261      0.1794
    215  OG1       32.5410    8.7700   -6.4570 O.3   261  THR261     -0.2208
    216  CG2       32.9170   10.6820   -5.1090 C.3   261  THR261      0.0378
    217  N         37.3920    8.2890   -7.4990 N.3   263  HIS263     -0.1241
    218  CA        37.5940    8.9800   -8.7450 C.3   263  HIS263      0.1621
    219  C         38.5970    8.2580   -9.6610 C.2   263  HIS263      0.2264
    220  O         38.9230    8.7730  -10.7260 O.2   263  HIS263     -0.2867
    221  CB        38.0510   10.4090   -8.4400 C.3   263  HIS263      0.0745
    222  CG        36.9210   11.3420   -8.1550 C.ar  263  HIS263      0.0817
    223  ND1       35.9460   11.0740   -7.2170 N.ar  263  HIS263     -0.2268
    224  CD2       36.5890   12.5270   -8.7150 C.ar  263  HIS263      0.1154
    225  CE1       35.0570   12.0510   -7.2220 C.ar  263  HIS263      0.1986
    226  NE2       35.4260   12.9490   -8.1190 N.ar  263  HIS263     -0.2212
    227  N         38.8540    6.1200  -12.2890 N.3   265  VAL265     -0.1245
    228  CA        38.0230    5.5000  -13.3050 C.3   265  VAL265      0.1561
    229  C         38.8710    4.4840  -14.0790 C.2   265  VAL265      0.2260
    230  O         39.6620    4.8440  -14.9430 O.2   265  VAL265     -0.2867
    231  CB        37.3770    6.5320  -14.2620 C.3   265  VAL265      0.0252
    232  CG1       36.0740    5.9970  -14.7580 C.3   265  VAL265      0.0019
    233  CG2       37.1330    7.8490  -13.5610 C.3   265  VAL265      0.0019
@<TRIPOS>BOND
     1   172   171    2
     2    84    82    1
     3   171   170    1
     4    82    81    1
     5   170   173    1
     6   170   169    1
     7    77    78    1
     8    70    69    2
     9    74    76   ar
    10    74    72   ar
    11    81    78    1
    12    81    83    1
    13   173   174    1
    14    76    75   ar
    15    78    79    1
    16    68    69    1
    17    68    67    1
    18    68    71    1
    19   165   164    2
    20   169   164   am
    21   164   163    1
    22    72    71    1
    23    72    73   ar
    24    75    73   ar
    25   162   163    1
    26   163   166    1
    27    79    85   am
    28    79    80    2
    29    85    86    1
    30   166   167    1
    31   166   168    1
    32    95    96    1
    33   100    99    1
    34    86    87    1
    35   230   229    2
    36   232   231    1
    37     8     6   am
    38    96    99    1
    39    96    97    1
    40    88    87    2
    41   156   155    2
    42   231   233    1
    43   231   228    1
    44    87    89   am
    45   155   154    1
    46   229   228    1
    47     6     7    2
    48     6     5    1
    49    97    98    2
    50    97   101   am
    51   228   227    1
    52    64    62   ar
    53    64    66   ar
    54   153   154    1
    55    89    90    1
    56    61    62   ar
    57    61    59   ar
    58   154   157    1
    59    91    92    2
    60    91    90    1
    61   175   176    1
    62   104   103    2
    63   101   102    1
    64    62    60   ar
    65    66    65   ar
    66     5     2    1
    67     1     2    1
    68   138   139    2
    69   138   137    1
    70    90    93    1
    71    59    58   ar
    72   181   179    1
    73   103   102    1
    74   157   158    1
    75   188   187    1
    76   188   189    1
    77   102   105    1
    78   176   179    1
    79   176   177    1
    80   140   137    1
    81   140   141    1
    82     2     3    1
    83    56    55    2
    84   137   136    1
    85    60    58   ar
    86    60    63   ar
    87    65    63   ar
    88   142   141    1
    89   187   186    1
    90    93    94    1
    91   179   180    1
    92    58    57    1
    93   182   183    1
    94   177   178    2
    95   141   143    1
    96   220   219    2
    97   158   159    1
    98   105   106    1
    99   147   146    2
   100    55    54    1
   101   111   112    1
   102     3     4    2
   103   186   183    1
   104   114   113    2
   105   146   145    1
   106   136   129   am
   107   115   112    1
   108   115   116    1
   109   106   108   ar
   110   106   107   ar
   111   108   110   ar
   112   183   184    1
   113   144   145    1
   114    57    54    1
   115    54    53    1
   116   219   218    1
   117   130   129    2
   118   160   159   ar
   119   112   113    1
   120   159   161   ar
   121   145   148    1
   122   129   128    1
   123   107   109   ar
   124   116   117    1
   125   110   109   ar
   126   117   118    1
   127    18    16   ar
   128    18    19   ar
   129   218   221    1
   130   218   217    1
   131   224   222   ar
   132   224   226   ar
   133    20    19    1
   134    52    51    1
   135   184   185    2
   136   221   222    1
   137    16    14   ar
   138    49    51   ar
   139    49    47   ar
   140   222   223   ar
   141   226   225   ar
   142    19    17   ar
   143   132   133    1
   144   132   131    1
   145    51    50   ar
   146   148   149    1
   147   128   131    1
   148   128   127    1
   149    47    46   ar
   150   118   119    1
   151   133   134    1
   152    44    43    2
   153   225   223   ar
   154   149   150    1
   155    14    13    1
   156    14    15   ar
   157   127   122   am
   158    35    34    2
   159    17    15   ar
   160   123   122    2
   161    50    48   ar
   162     9    10    1
   163   122   121    1
   164   215   214    1
   165    46    48   ar
   166    46    45    1
   167    13    10    1
   168    43    42    1
   169    42    45    1
   170    42    41    1
   171   134   135    1
   172    34    41   am
   173    34    33    1
   174   121   120    1
   175   121   124    1
   176   150   151    1
   177    10    11    1
   178   151   152    1
   179   214   216    1
   180   214   211    1
   181   213   212    2
   182   120   126    1
   183   212   211    1
   184   198   197    1
   185    36    33    1
   186    36    37    1
   187    11    12    2
   188    33    32    1
   189   124   125    1
   190   190   191    1
   191   211   210    1
   192    37    38    1
   193    28    30   ar
   194    28    26   ar
   195   126   125    1
   196    30    31   ar
   197   197   196    1
   198    24    23    2
   199    25    26    1
   200    25    22    1
   201   191   194    1
   202   191   192    1
   203    26    27   ar
   204   195   196    1
   205   195   194    1
   206   210   201   am
   207    31    29   ar
   208    38    39    2
   209    38    40   am
   210   207   205   ar
   211   207   209   ar
   212   192   193    2
   213    27    29   ar
   214    23    22    1
   215   205   204   ar
   216   202   201    2
   217    22    21    1
   218   201   200    1
   219   209   208   ar
   220   204   203    1
   221   204   206   ar
   222   200   203    1
   223   200   199    1
   224   208   206   ar
