@<TRIPOS>MOLECULE
tmp/3ubrB03.pdb
 211 202 0 0 0
SMALL
GASTEIGER

@<TRIPOS>ATOM
      1  N         47.2610    2.6970  -14.8240 N.3    28  SER28      -0.1217
      2  CA        46.9200    1.9160  -15.9990 C.3    28  SER28       0.1889
      3  C         47.5260    2.7060  -17.1430 C.2    28  SER28       0.2288
      4  O         46.9130    3.6460  -17.6400 O.2    28  SER28      -0.2866
      5  CB        45.4050    1.7630  -16.1660 C.3    28  SER28       0.2089
      6  OG        44.7820    3.0050  -16.3790 O.3    28  SER28      -0.2183
      7  N         43.9710    0.8510  -27.7530 N.3    56  ALA56      -0.1231
      8  CA        42.8760    0.7890  -26.7860 C.3    56  ALA56       0.1679
      9  C         43.0440    1.9320  -25.7670 C.2    56  ALA56       0.2434
     10  O         44.1280    2.5450  -25.6720 O.2    56  ALA56      -0.2733
     11  CB        42.8140   -0.5710  -26.0880 C.3    56  ALA56       0.0304
     12  N         41.9700    2.2410  -25.0180 N.am   57  PRO57      -0.2718
     13  CA        42.0730    3.3250  -24.0590 C.3    57  PRO57       0.1535
     14  C         43.0410    2.9660  -22.9560 C.2    57  PRO57       0.2598
     15  O         43.2130    1.7770  -22.6430 O.2    57  PRO57      -0.2715
     16  CB        40.6560    3.4370  -23.4800 C.3    57  PRO57       0.0310
     17  CG        39.7730    2.6160  -24.3830 C.3    57  PRO57       0.0237
     18  CD        40.6420    1.5960  -25.0040 C.3    57  PRO57       0.0939
     19  N         43.6940    3.9810  -22.4000 N.am   58  ARG58      -0.1964
     20  CA        44.2880    3.8530  -21.0820 C.3    58  ARG58       0.1729
     21  C         43.7310    4.9910  -20.1990 C.2    58  ARG58       0.2617
     22  O         42.6760    5.5630  -20.5360 O.2    58  ARG58      -0.2715
     23  CB        45.7990    3.7980  -21.1950 C.3    58  ARG58       0.0348
     24  CG        46.4410    4.9600  -21.9080 C.3    58  ARG58       0.0492
     25  CD        47.9220    4.9760  -21.5620 C.3    58  ARG58       0.2205
     26  NE        48.6490    6.0400  -22.2430 N.pl3  58  ARG58      -0.0865
     27  CZ        49.9670    6.0490  -22.4220 C.cat  58  ARG58       0.5346
     28  NH1       50.7190    5.0480  -21.9540 N.pl3  58  ARG58       0.1354
     29  NH2       50.5410    7.0580  -23.0750 N.pl3  58  ARG58       0.1354
     30  N         44.3750    5.3060  -19.0770 N.am   59  GLY59      -0.1940
     31  CA        43.7610    6.1920  -18.0790 C.3    59  GLY59       0.2014
     32  C         43.6030    7.6540  -18.4780 C.2    59  GLY59       0.2638
     33  O         44.3810    8.1810  -19.2870 O.2    59  GLY59      -0.2714
     34  N         42.6100    8.3100  -17.8660 N.am   60  HIS60      -0.1973
     35  CA        42.2690    9.7280  -18.1270 C.3    60  HIS60       0.1656
     36  C         43.4600   10.6830  -18.0510 C.2    60  HIS60       0.2291
     37  O         43.5090   11.6690  -18.7700 O.2    60  HIS60      -0.2864
     38  CB        41.1670   10.2150  -17.1670 C.3    60  HIS60       0.0771
     39  CG        39.7790    9.7460  -17.5240 C.ar   60  HIS60       0.0820
     40  ND1       38.7160    9.8080  -16.6470 N.ar   60  HIS60      -0.2267
     41  CD2       39.2870    9.2020  -18.6620 C.ar   60  HIS60       0.1154
     42  CE1       37.6300    9.3360  -17.2360 C.ar   60  HIS60       0.1986
     43  NE2       37.9490    8.9600  -18.4600 N.ar   60  HIS60      -0.2212
     44  N         46.2310   10.4280  -19.3140 N.3    62  TYR62      -0.1227
     45  CA        46.9890   10.3730  -20.5700 C.3    62  TYR62       0.1736
     46  C         46.2590   10.9740  -21.7830 C.2    62  TYR62       0.2595
     47  O         46.7730   10.9150  -22.9000 O.2    62  TYR62      -0.2718
     48  CB        47.3570    8.9140  -20.8560 C.3    62  TYR62       0.0548
     49  CG        48.1770    8.2990  -19.7530 C.ar   62  TYR62      -0.0200
     50  CD1       49.4830    8.7220  -19.5170 C.ar   62  TYR62      -0.0009
     51  CD2       47.6610    7.3160  -18.9350 C.ar   62  TYR62      -0.0009
     52  CE1       50.2550    8.1790  -18.4840 C.ar   62  TYR62       0.0417
     53  CE2       48.4340    6.7570  -17.9110 C.ar   62  TYR62       0.0417
     54  CZ        49.7230    7.2020  -17.6950 C.ar   62  TYR62       0.1957
     55  OH        50.4930    6.6740  -16.6950 O.3    62  TYR62      -0.2866
     56  N         45.0770   11.5550  -21.5600 N.am   63  ALA63      -0.1980
     57  CA        44.2360   12.0660  -22.6560 C.3    63  ALA63       0.1597
     58  C         45.0130   12.9670  -23.6130 C.2    63  ALA63       0.2287
     59  O         45.0050   12.7450  -24.8250 O.2    63  ALA63      -0.2864
     60  CB        43.0030   12.8220  -22.1080 C.3    63  ALA63       0.0319
     61  N         48.1520   11.2950  -25.1670 N.3    66  ASP66      -0.1239
     62  CA        47.7580   10.3240  -26.1860 C.3    66  ASP66       0.1674
     63  C         47.2600   10.9470  -27.4920 C.2    66  ASP66       0.2266
     64  O         47.5430   10.4010  -28.5710 O.2    66  ASP66      -0.2867
     65  CB        46.7250    9.3350  -25.6180 C.3    66  ASP66       0.1410
     66  CG        47.3820    8.1190  -24.9570 C.2    66  ASP66       0.3668
     67  OD1       48.6290    7.9390  -25.1300 O.co2  66  ASP66      -0.2456
     68  OD2       46.6490    7.3420  -24.2890 O.co2  66  ASP66      -0.2456
     69  N         36.9910   16.3710  -26.1270 N.3    91  CYS91      -0.1221
     70  CA        36.9060   15.3350  -25.1110 C.3    91  CYS91       0.1808
     71  C         38.2900   14.8820  -24.5720 C.2    91  CYS91       0.2601
     72  O         38.4410   13.7280  -24.1790 O.2    91  CYS91      -0.2717
     73  CB        36.1450   14.1430  -25.6870 C.3    91  CYS91       0.0970
     74  SG        34.6460   14.5410  -26.6890 S.3    91  CYS91      -0.0800
     75  N         39.2830   15.7800  -24.5270 N.am   92  LYS92      -0.1965
     76  CA        40.6040   15.4410  -23.9920 C.3    92  LYS92       0.1728
     77  C         41.0860   16.3700  -22.8690 C.2    92  LYS92       0.2616
     78  O         42.2400   16.2030  -22.4060 O.2    92  LYS92      -0.2715
     79  CB        41.6650   15.4760  -25.0990 C.3    92  LYS92       0.0311
     80  CG        41.3230   14.7020  -26.3600 C.3    92  LYS92       0.0038
     81  CD        41.2400   13.1960  -26.1050 C.3    92  LYS92       0.0206
     82  CE        40.8340   12.4410  -27.3400 C.3    92  LYS92       0.1093
     83  NZ        39.4540   12.8270  -27.8030 N.3    92  LYS92      -0.1314
     84  N         40.2520   17.3320  -22.4270 N.am   93  SER93      -0.1950
     85  CA        40.7680   18.4660  -21.6180 C.3    93  SER93       0.1924
     86  C         39.7260   19.3920  -20.9380 C.2    93  SER93       0.2314
     87  O         38.7160   19.7750  -21.5450 O.2    93  SER93      -0.2863
     88  CB        41.6780   19.3380  -22.5070 C.3    93  SER93       0.2116
     89  OG        42.7060   19.9760  -21.7740 O.3    93  SER93      -0.2180
     90  N         41.9120   15.5190  -18.7810 N.3   124  ILE124     -0.1245
     91  CA        40.5520   15.4580  -18.3120 C.3   124  ILE124      0.1561
     92  C         40.6270   15.6940  -16.8190 C.2   124  ILE124      0.2260
     93  O         41.2090   14.8990  -16.1000 O.2   124  ILE124     -0.2867
     94  CB        39.9100   14.1030  -18.6170 C.3   124  ILE124      0.0252
     95  CG1       39.8960   13.8340  -20.1220 C.3   124  ILE124      0.0019
     96  CG2       38.4860   14.0840  -18.1230 C.3   124  ILE124      0.0019
     97  CD1       40.0130   12.4000  -20.4810 C.3   124  ILE124      0.0001
     98  N         35.8680   19.3760  -16.0070 N.3   128  ASP128     -0.1225
     99  CA        35.1610   18.5890  -17.0180 C.3   128  ASP128      0.1805
    100  C         33.8110   18.0840  -16.5270 C.2   128  ASP128      0.2598
    101  O         32.8410   18.1260  -17.2790 O.2   128  ASP128     -0.2718
    102  CB        35.9980   17.3890  -17.4640 C.3   128  ASP128      0.1424
    103  CG        37.2130   17.7820  -18.3000 C.2   128  ASP128      0.3668
    104  OD1       38.3400   17.5320  -17.8360 O.co2 128  ASP128     -0.2456
    105  OD2       37.0410   18.3250  -19.4170 O.co2 128  ASP128     -0.2456
    106  N         33.7560   17.6140  -15.2750 N.am  129  CYS129     -0.1970
    107  CA        32.5310   17.0320  -14.6720 C.3   129  CYS129      0.1712
    108  C         31.8680   17.8860  -13.5860 C.2   129  CYS129      0.2296
    109  O         30.6650   17.7390  -13.3290 O.2   129  CYS129     -0.2864
    110  CB        32.8280   15.6780  -14.0250 C.3   129  CYS129      0.0983
    111  SG        33.5990   14.4570  -15.0510 S.3   129  CYS129     -0.0798
    112  N         29.9720   21.2510  -21.7400 N.3   141  ARG141     -0.1245
    113  CA        30.0880   21.2970  -23.1980 C.3   141  ARG141      0.1563
    114  C         28.6950   21.5060  -23.7660 C.2   141  ARG141      0.2260
    115  O         27.8310   20.6520  -23.5860 O.2   141  ARG141     -0.2867
    116  CB        30.6780   19.9960  -23.7440 C.3   141  ARG141      0.0307
    117  CG        31.8640   19.3800  -22.9570 C.3   141  ARG141      0.0489
    118  CD        33.1620   20.2030  -23.0570 C.3   141  ARG141      0.2205
    119  NE        34.4130   19.4090  -23.0180 N.pl3 141  ARG141     -0.0865
    120  CZ        35.0620   18.9980  -21.9210 C.cat 141  ARG141      0.5346
    121  NH1       36.1910   18.3200  -22.0530 N.pl3 141  ARG141      0.1354
    122  NH2       34.6110   19.2530  -20.6940 N.pl3 141  ARG141      0.1354
    123  N         24.4830   10.8360  -13.2310 N.3   164  GLU164     -0.1245
    124  CA        25.7100   10.0690  -12.9670 C.3   164  GLU164      0.1567
    125  C         26.2990    9.4910  -14.2530 C.2   164  GLU164      0.2260
    126  O         27.5270    9.4550  -14.4130 O.2   164  GLU164     -0.2867
    127  CB        25.4680    8.9490  -11.9360 C.3   164  GLU164      0.0388
    128  CG        24.9070    9.4290  -10.5910 C.3   164  GLU164      0.1160
    129  CD        25.2260    8.5060   -9.4150 C.2   164  GLU164      0.3649
    130  OE1       25.1740    7.2580   -9.5790 O.co2 164  GLU164     -0.2457
    131  OE2       25.5100    9.0490   -8.3150 O.co2 164  GLU164     -0.2457
    132  N         27.2890   12.6410  -17.1370 N.3   167  VAL167     -0.1231
    133  CA        28.6480   13.2280  -16.9810 C.3   167  VAL167      0.1692
    134  C         29.7280   12.5060  -17.7640 C.2   167  VAL167      0.2592
    135  O         30.7600   13.0940  -18.0740 O.2   167  VAL167     -0.2718
    136  CB        29.1520   13.2660  -15.5060 C.3   167  VAL167      0.0266
    137  CG1       28.6940   14.5430  -14.7980 C.3   167  VAL167      0.0020
    138  CG2       28.7190   12.0070  -14.7410 C.3   167  VAL167      0.0020
    139  N         29.5020   11.2200  -18.0210 N.am  168  CYS168     -0.1970
    140  CA        30.3440   10.4270  -18.8960 C.3   168  CYS168      0.1712
    141  C         29.8810   10.5740  -20.3510 C.2   168  CYS168      0.2296
    142  O         30.7100   10.6510  -21.2620 O.2   168  CYS168     -0.2864
    143  CB        30.2840    8.9570  -18.4850 C.3   168  CYS168      0.0983
    144  SG        30.6080    8.5900  -16.7210 S.3   168  CYS168     -0.0798
    145  N         29.2310   12.9640  -21.8920 N.3   170  GLN170     -0.1231
    146  CA        29.9870   14.0650  -22.5000 C.3   170  GLN170      0.1698
    147  C         30.9480   13.5980  -23.5700 C.2   170  GLN170      0.2592
    148  O         31.1430   14.2820  -24.5640 O.2   170  GLN170     -0.2718
    149  CB        30.7900   14.8200  -21.4500 C.3   170  GLN170      0.0381
    150  CG        29.9530   15.6900  -20.5470 C.3   170  GLN170      0.0905
    151  CD        30.7200   16.1750  -19.3320 C.2   170  GLN170      0.2608
    152  OE1       30.5340   17.2980  -18.8660 O.2   170  GLN170     -0.2717
    153  NE2       31.5880   15.3170  -18.8070 N.am  170  GLN170     -0.0878
    154  N         31.5650   12.4480  -23.3590 N.am  171  CYS171     -0.1956
    155  CA        32.6200   11.9960  -24.2530 C.3   171  CYS171      0.1843
    156  C         32.4460   10.5600  -24.7560 C.2   171  CYS171      0.2625
    157  O         32.7300   10.2540  -25.9090 O.2   171  CYS171     -0.2714
    158  CB        33.9470   12.1450  -23.5210 C.3   171  CYS171      0.0997
    159  SG        34.0170   13.7240  -22.6380 S.3   171  CYS171     -0.0797
    160  N         31.9560    9.6750  -23.9000 N.am  172  HIS172     -0.1973
    161  CA        31.9030    8.2580  -24.2210 C.3   172  HIS172      0.1656
    162  C         30.6820    7.9330  -25.0790 C.2   172  HIS172      0.2291
    163  O         29.7720    7.2130  -24.6910 O.2   172  HIS172     -0.2864
    164  CB        32.0210    7.4520  -22.9190 C.3   172  HIS172      0.0771
    165  CG        33.4110    7.4610  -22.3480 C.ar  172  HIS172      0.0820
    166  ND1       34.4280    6.6760  -22.8510 N.ar  172  HIS172     -0.2267
    167  CD2       33.9590    8.1850  -21.3440 C.ar  172  HIS172      0.1154
    168  CE1       35.5340    6.8980  -22.1640 C.ar  172  HIS172      0.1986
    169  NE2       35.2800    7.8140  -21.2480 N.ar  172  HIS172     -0.2212
    170  N         26.9910    4.6720  -14.9090 N.3   244  CYS244     -0.1221
    171  CA        28.4230    4.4840  -15.1450 C.3   244  CYS244      0.1808
    172  C         29.1810    4.4330  -13.8320 C.2   244  CYS244      0.2601
    173  O         30.0620    3.5870  -13.6320 O.2   244  CYS244     -0.2717
    174  CB        28.9870    5.6390  -15.9590 C.3   244  CYS244      0.0970
    175  SG        27.9250    6.1410  -17.2890 S.3   244  CYS244     -0.0800
    176  N         28.7900    5.3480  -12.9460 N.am  245  VAL245     -0.1979
    177  CA        29.4970    5.6400  -11.7160 C.3   245  VAL245      0.1595
    178  C         29.3650    4.4660  -10.7660 C.2   245  VAL245      0.2287
    179  O         30.3630    4.0530  -10.2050 O.2   245  VAL245     -0.2864
    180  CB        28.9760    6.9570  -11.0500 C.3   245  VAL245      0.0276
    181  CG1       29.8630    7.3800   -9.8980 C.3   245  VAL245      0.0022
    182  CG2       28.9030    8.0990  -12.0610 C.3   245  VAL245      0.0022
    183  N         31.9100    2.3260  -12.1810 N.3   248  HIS248     -0.1226
    184  CA        33.1900    2.9330  -12.5360 C.3   248  HIS248      0.1752
    185  C         33.7480    3.9740  -11.5470 C.2   248  HIS248      0.2595
    186  O         34.9700    4.1730  -11.4730 O.2   248  HIS248     -0.2718
    187  CB        33.1140    3.5050  -13.9500 C.3   248  HIS248      0.0759
    188  CG        33.1930    2.4610  -15.0160 C.ar  248  HIS248      0.0818
    189  ND1       34.3710    1.8380  -15.3710 N.ar  248  HIS248     -0.2268
    190  CD2       32.2350    1.9200  -15.7940 C.ar  248  HIS248      0.1154
    191  CE1       34.1330    0.9740  -16.3370 C.ar  248  HIS248      0.1986
    192  NE2       32.8440    1.0110  -16.6190 N.ar  248  HIS248     -0.2212
    193  N         32.8700    4.6410  -10.8050 N.am  249  MET249     -0.1979
    194  CA        33.2930    5.5850   -9.7680 C.3   249  MET249      0.1605
    195  C         32.5650    5.2700   -8.4520 C.2   249  MET249      0.2287
    196  O         31.7320    6.0540   -7.9880 O.2   249  MET249     -0.2864
    197  CB        33.0890    7.0450  -10.2400 C.3   249  MET249      0.0413
    198  CG        34.2430    7.5610  -11.1460 C.3   249  MET249      0.0598
    199  SD        33.9260    9.1780  -11.8760 S.3   249  MET249     -0.1393
    200  CE        34.2000   10.2210  -10.4560 C.3   249  MET249      0.0692
    201  N         38.8540    6.1200  -12.2890 N.3   265  VAL265     -0.1231
    202  CA        38.0230    5.5000  -13.3050 C.3   265  VAL265      0.1692
    203  C         38.8710    4.4840  -14.0790 C.2   265  VAL265      0.2592
    204  O         39.6620    4.8440  -14.9430 O.2   265  VAL265     -0.2718
    205  CB        37.3770    6.5320  -14.2620 C.3   265  VAL265      0.0266
    206  CG1       36.0740    5.9970  -14.7580 C.3   265  VAL265      0.0020
    207  CG2       37.1330    7.8490  -13.5610 C.3   265  VAL265      0.0020
    208  N         38.7200    3.2130  -13.7150 N.am  266  GLY266     -0.1957
    209  CA        39.2610    2.1010  -14.4920 C.3   266  GLY266      0.1869
    210  C         38.3700    0.8630  -14.4500 C.2   266  GLY266      0.2309
    211  O         37.1740    0.9000  -14.7670 O.2   266  GLY266     -0.2863
@<TRIPOS>BOND
     1    64    63    2
     2    83    82    1
     3     7     8    1
     4    63    62    1
     5    82    81    1
     6     8    11    1
     7     8     9    1
     8    74    73    1
     9    80    81    1
    10    80    79    1
    11    62    65    1
    12    62    61    1
    13    69    70    1
    14   157   156    2
    15     9    10    2
    16     9    12   am
    17    73    70    1
    18    65    66    1
    19    67    66   ar
    20    70    71    1
    21    79    76    1
    22   162   163    2
    23   162   161    1
    24    12    18    1
    25    12    13    1
    26    18    17    1
    27    66    68   ar
    28    59    58    2
    29   156   155    1
    30   156   160   am
    31    71    75   am
    32    71    72    2
    33   148   147    2
    34    75    76    1
    35    17    16    1
    36   155   158    1
    37   155   154    1
    38   161   160    1
    39   161   164    1
    40    13    16    1
    41    13    14    1
    42    76    77    1
    43   114   115    2
    44   114   113    1
    45   116   113    1
    46   116   117    1
    47    58    57    1
    48   147   154   am
    49   147   146    1
    50   158   159    1
    51   113   112    1
    52    29    27    1
    53   118   119    1
    54   118   117    1
    55   119   120    2
    56    14    15    2
    57    14    19   am
    58   164   165    1
    59    47    46    2
    60    77    84   am
    61    77    78    2
    62   166   165   ar
    63   166   168   ar
    64    57    60    1
    65    57    56    1
    66    88    89    1
    67    88    85    1
    68   146   145    1
    69   146   149    1
    70    84    85    1
    71    27    26    2
    72    27    28    1
    73    19    20    1
    74   165   167   ar
    75    26    25    1
    76   168   169   ar
    77   121   120    1
    78   120   122    1
    79    24    25    1
    80    24    23    1
    81    46    56   am
    82    46    45    1
    83    85    86    1
    84    87    86    2
    85   149   150    1
    86   167   169   ar
    87   142   141    2
    88    23    20    1
    89    20    21    1
    90    48    45    1
    91    48    49    1
    92    45    44    1
    93   150   151    1
    94    22    21    2
    95    97    95    1
    96   141   140    1
    97    21    30   am
    98    95    94    1
    99    49    50   ar
   100    49    51   ar
   101    50    52   ar
   102   105   103   ar
   103   151   152    2
   104   151   153   am
   105    33    32    2
   106    30    31    1
   107    51    53   ar
   108   140   143    1
   109   140   139    1
   110    90    91    1
   111    37    36    2
   112    41    43   ar
   113    41    39   ar
   114    94    91    1
   115    94    96    1
   116   143   144    1
   117    52    54   ar
   118    32    31    1
   119    32    34   am
   120    43    42   ar
   121    91    92    1
   122   103   104   ar
   123   103   102    1
   124    35    36    1
   125    35    34    1
   126    35    38    1
   127   135   134    2
   128   139   134   am
   129    53    54   ar
   130   134   133    1
   131    54    55    1
   132     4     3    2
   133    39    38    1
   134    39    40   ar
   135   102    99    1
   136   175   174    1
   137   101   100    2
   138    42    40   ar
   139     3     2    1
   140   132   133    1
   141    99   100    1
   142    99    98    1
   143   133   136    1
   144    92    93    2
   145   192   191   ar
   146   192   190   ar
   147   100   106   am
   148     6     5    1
   149   191   189   ar
   150     5     2    1
   151     2     1    1
   152   174   171    1
   153   190   188   ar
   154   136   137    1
   155   136   138    1
   156   189   188   ar
   157   106   107    1
   158   171   170    1
   159   171   172    1
   160   111   110    1
   161   188   187    1
   162   204   203    2
   163   211   210    2
   164   206   205    1
   165   107   110    1
   166   107   108    1
   167   209   210    1
   168   209   208    1
   169   126   125    2
   170   205   207    1
   171   205   202    1
   172   125   124    1
   173   203   208   am
   174   203   202    1
   175   187   184    1
   176   172   173    2
   177   172   176   am
   178   108   109    2
   179   202   201    1
   180   123   124    1
   181   124   127    1
   182   176   177    1
   183   184   183    1
   184   184   185    1
   185   182   180    1
   186   127   128    1
   187   199   198    1
   188   199   200    1
   189   177   180    1
   190   177   178    1
   191   185   186    2
   192   185   193   am
   193   198   197    1
   194   180   181    1
   195   193   194    1
   196   178   179    2
   197   128   129    1
   198   197   194    1
   199   194   195    1
   200   130   129   ar
   201   129   131   ar
   202   195   196    2
