@<TRIPOS>MOLECULE
tmp/3ubrB04.pdb
 209 206 0 0 0
SMALL
GASTEIGER

@<TRIPOS>ATOM
      1  N         43.9710    0.8510  -27.7530 N.3    56  ALA56      -0.1231
      2  CA        42.8760    0.7890  -26.7860 C.3    56  ALA56       0.1679
      3  C         43.0440    1.9320  -25.7670 C.2    56  ALA56       0.2434
      4  O         44.1280    2.5450  -25.6720 O.2    56  ALA56      -0.2733
      5  CB        42.8140   -0.5710  -26.0880 C.3    56  ALA56       0.0304
      6  N         41.9700    2.2410  -25.0180 N.am   57  PRO57      -0.2729
      7  CA        42.0730    3.3250  -24.0590 C.3    57  PRO57       0.1401
      8  C         43.0410    2.9660  -22.9560 C.2    57  PRO57       0.2269
      9  O         43.2130    1.7770  -22.6430 O.2    57  PRO57      -0.2865
     10  CB        40.6560    3.4370  -23.4800 C.3    57  PRO57       0.0296
     11  CG        39.7730    2.6160  -24.3830 C.3    57  PRO57       0.0237
     12  CD        40.6420    1.5960  -25.0040 C.3    57  PRO57       0.0939
     13  N         29.5020   11.2200  -18.0210 N.3   168  CYS168     -0.1221
     14  CA        30.3440   10.4270  -18.8960 C.3   168  CYS168      0.1808
     15  C         29.8810   10.5740  -20.3510 C.2   168  CYS168      0.2601
     16  O         30.7100   10.6510  -21.2620 O.2   168  CYS168     -0.2717
     17  CB        30.2840    8.9570  -18.4850 C.3   168  CYS168      0.0970
     18  SG        30.6080    8.5900  -16.7210 S.3   168  CYS168     -0.0800
     19  N         28.5600   10.6220  -20.5680 N.am  169  ALA169     -0.1979
     20  CA        27.9910   10.8720  -21.8980 C.3   169  ALA169      0.1597
     21  C         28.5930   12.0560  -22.6300 C.2   169  ALA169      0.2287
     22  O         28.4570   12.1590  -23.8490 O.2   169  ALA169     -0.2864
     23  CB        26.5290   11.0730  -21.8040 C.3   169  ALA169      0.0319
     24  N         31.9560    9.6750  -23.9000 N.3   172  HIS172     -0.1241
     25  CA        31.9030    8.2580  -24.2210 C.3   172  HIS172      0.1621
     26  C         30.6820    7.9330  -25.0790 C.2   172  HIS172      0.2264
     27  O         29.7720    7.2130  -24.6910 O.2   172  HIS172     -0.2867
     28  CB        32.0210    7.4520  -22.9190 C.3   172  HIS172      0.0745
     29  CG        33.4110    7.4610  -22.3480 C.ar  172  HIS172      0.0817
     30  ND1       34.4280    6.6760  -22.8510 N.ar  172  HIS172     -0.2268
     31  CD2       33.9590    8.1850  -21.3440 C.ar  172  HIS172      0.1154
     32  CE1       35.5340    6.8980  -22.1640 C.ar  172  HIS172      0.1986
     33  NE2       35.2800    7.8140  -21.2480 N.ar  172  HIS172     -0.2212
     34  N         29.6760    4.2440  -25.6870 N.3   228  GLU228     -0.1231
     35  CA        29.3720    3.6900  -24.3630 C.3   228  GLU228      0.1699
     36  C         28.0190    4.1390  -23.8790 C.2   228  GLU228      0.2592
     37  O         27.2960    3.3270  -23.3650 O.2   228  GLU228     -0.2718
     38  CB        30.4020    4.0630  -23.3110 C.3   228  GLU228      0.0402
     39  CG        31.6470    3.2440  -23.3360 C.3   228  GLU228      0.1161
     40  CD        32.6580    3.7360  -24.3220 C.2   228  GLU228      0.3649
     41  OE1       33.2750    2.8860  -25.0090 O.co2 228  GLU228     -0.2457
     42  OE2       32.8550    4.9620  -24.4020 O.co2 228  GLU228     -0.2457
     43  N         27.6700    5.4160  -24.0190 N.am  229  TYR229     -0.1976
     44  CA        26.3430    5.8880  -23.5370 C.3   229  TYR229      0.1639
     45  C         25.2180    5.1920  -24.3080 C.2   229  TYR229      0.2290
     46  O         24.2650    4.7210  -23.6990 O.2   229  TYR229     -0.2864
     47  CB        26.1740    7.4240  -23.6010 C.3   229  TYR229      0.0560
     48  CG        24.9720    7.9540  -22.8150 C.ar  229  TYR229     -0.0198
     49  CD1       24.9850    7.9830  -21.4210 C.ar  229  TYR229     -0.0009
     50  CD2       23.8160    8.4230  -23.4660 C.ar  229  TYR229     -0.0009
     51  CE1       23.8770    8.4620  -20.6830 C.ar  229  TYR229      0.0417
     52  CE2       22.6900    8.9000  -22.7350 C.ar  229  TYR229      0.0417
     53  CZ        22.7280    8.9140  -21.3420 C.ar  229  TYR229      0.1957
     54  OH        21.6580    9.3900  -20.5910 O.3   229  TYR229     -0.2866
     55  N         25.1650    1.3210  -23.4940 N.3   232  TRP232     -0.1241
     56  CA        24.7670    1.1360  -22.0990 C.3   232  TRP232      0.1605
     57  C         23.2480    1.0880  -21.9850 C.2   232  TRP232      0.2264
     58  O         22.6980    0.1200  -21.4900 O.2   232  TRP232     -0.2867
     59  CB        25.3630    2.2650  -21.2410 C.3   232  TRP232      0.0550
     60  CG        24.8720    2.3420  -19.8320 C.ar  232  TRP232      0.0003
     61  CD1       25.3020    1.6110  -18.7720 C.ar  232  TRP232      0.0946
     62  CD2       23.8750    3.2250  -19.3350 C.ar  232  TRP232      0.0152
     63  NE1       24.6150    1.9690  -17.6370 N.ar  232  TRP232     -0.2442
     64  CE2       23.7300    2.9590  -17.9570 C.ar  232  TRP232      0.0810
     65  CE3       23.0800    4.2120  -19.9230 C.ar  232  TRP232      0.0012
     66  CZ2       22.8280    3.6440  -17.1580 C.ar  232  TRP232      0.0191
     67  CZ3       22.1860    4.8940  -19.1330 C.ar  232  TRP232      0.0001
     68  CH2       22.0610    4.6020  -17.7640 C.ar  232  TRP232      0.0015
     69  N         21.8580   -3.7000  -17.5050 N.3   237  HIS237     -0.1241
     70  CA        22.1460   -2.7310  -16.4570 C.3   237  HIS237      0.1621
     71  C         21.6200   -1.3670  -16.8400 C.2   237  HIS237      0.2264
     72  O         21.1080   -0.6180  -16.0030 O.2   237  HIS237     -0.2867
     73  CB        23.6500   -2.6340  -16.2020 C.3   237  HIS237      0.0745
     74  CG        24.1970   -3.8130  -15.4780 C.ar  237  HIS237      0.0817
     75  ND1       24.8290   -4.8490  -16.1250 N.ar  237  HIS237     -0.2268
     76  CD2       24.1470   -4.1550  -14.1700 C.ar  237  HIS237      0.1154
     77  CE1       25.1640   -5.7720  -15.2420 C.ar  237  HIS237      0.1986
     78  NE2       24.7640   -5.3740  -14.0470 N.ar  237  HIS237     -0.2212
     79  N         21.4510    1.4280  -13.7370 N.3   242  VAL242     -0.1231
     80  CA        22.7090    1.2480  -13.0390 C.3   242  VAL242      0.1692
     81  C         23.7520    2.0710  -13.7830 C.2   242  VAL242      0.2593
     82  O         24.1890    1.7060  -14.8740 O.2   242  VAL242     -0.2718
     83  CB        23.1380   -0.2190  -12.9630 C.3   242  VAL242      0.0266
     84  CG1       24.5690   -0.3300  -12.4010 C.3   242  VAL242      0.0020
     85  CG2       22.1690   -1.0010  -12.1190 C.3   242  VAL242      0.0020
     86  N         24.1450    3.1740  -13.1620 N.am  243  SER243     -0.1938
     87  CA        24.8660    4.2480  -13.8160 C.3   243  SER243      0.2055
     88  C         26.3030    3.8600  -14.1120 C.2   243  SER243      0.2643
     89  O         26.7770    2.8540  -13.6190 O.2   243  SER243     -0.2714
     90  CB        24.8720    5.4590  -12.8960 C.3   243  SER243      0.2130
     91  OG        25.7240    5.1980  -11.7860 O.3   243  SER243     -0.2179
     92  N         26.9910    4.6720  -14.9090 N.am  244  CYS244     -0.1967
     93  CA        28.4230    4.4840  -15.1450 C.3   244  CYS244      0.1712
     94  C         29.1810    4.4330  -13.8320 C.2   244  CYS244      0.2296
     95  O         30.0620    3.5870  -13.6320 O.2   244  CYS244     -0.2864
     96  CB        28.9870    5.6390  -15.9590 C.3   244  CYS244      0.0983
     97  SG        27.9250    6.1410  -17.2890 S.3   244  CYS244     -0.0798
     98  N         29.4410    1.3910  -11.1390 N.3   247  CYS247     -0.1221
     99  CA        30.5070    0.4500  -11.4780 C.3   247  CYS247      0.1808
    100  C         31.8740    1.0860  -11.7170 C.2   247  CYS247      0.2601
    101  O         32.8910    0.4450  -11.5050 O.2   247  CYS247     -0.2717
    102  CB        30.1390   -0.3140  -12.7430 C.3   247  CYS247      0.0970
    103  SG        28.6310   -1.2330  -12.6210 S.3   247  CYS247     -0.0800
    104  N         31.9100    2.3260  -12.1810 N.am  248  HIS248     -0.1975
    105  CA        33.1900    2.9330  -12.5360 C.3   248  HIS248      0.1656
    106  C         33.7480    3.9740  -11.5470 C.2   248  HIS248      0.2291
    107  O         34.9700    4.1730  -11.4730 O.2   248  HIS248     -0.2864
    108  CB        33.1140    3.5050  -13.9500 C.3   248  HIS248      0.0771
    109  CG        33.1930    2.4610  -15.0160 C.ar  248  HIS248      0.0820
    110  ND1       34.3710    1.8380  -15.3710 N.ar  248  HIS248     -0.2267
    111  CD2       32.2350    1.9200  -15.7940 C.ar  248  HIS248      0.1154
    112  CE1       34.1330    0.9740  -16.3370 C.ar  248  HIS248      0.1986
    113  NE2       32.8440    1.0110  -16.6190 N.ar  248  HIS248     -0.2212
    114  N         38.8540    6.1200  -12.2890 N.3   265  VAL265     -0.1231
    115  CA        38.0230    5.5000  -13.3050 C.3   265  VAL265      0.1692
    116  C         38.8710    4.4840  -14.0790 C.2   265  VAL265      0.2593
    117  O         39.6620    4.8440  -14.9430 O.2   265  VAL265     -0.2718
    118  CB        37.3770    6.5320  -14.2620 C.3   265  VAL265      0.0266
    119  CG1       36.0740    5.9970  -14.7580 C.3   265  VAL265      0.0020
    120  CG2       37.1330    7.8490  -13.5610 C.3   265  VAL265      0.0020
    121  N         38.7200    3.2130  -13.7150 N.am  266  GLY266     -0.1942
    122  CA        39.2610    2.1010  -14.4920 C.3   266  GLY266      0.2014
    123  C         38.3700    0.8630  -14.4500 C.2   266  GLY266      0.2639
    124  O         37.1740    0.9000  -14.7670 O.2   266  GLY266     -0.2714
    125  N         38.9710   -0.2390  -14.0430 N.am  267  ASN267     -0.1958
    126  CA        38.2980   -1.5120  -14.0150 C.3   267  ASN267      0.1804
    127  C         37.4210   -1.5860  -12.7790 C.2   267  ASN267      0.2463
    128  O         37.9210   -1.4460  -11.6740 O.2   267  ASN267     -0.2730
    129  CB        39.3540   -2.6250  -14.0050 C.3   267  ASN267      0.1195
    130  CG        38.8320   -3.9340  -14.5430 C.2   267  ASN267      0.2630
    131  OD1       37.6210   -4.1830  -14.5480 O.2   267  ASN267     -0.2716
    132  ND2       39.7400   -4.7850  -14.9930 N.am  267  ASN267     -0.0877
    133  N         36.1110   -1.7940  -12.9490 N.am  268  PRO268     -0.2716
    134  CA        35.2160   -1.9800  -11.8030 C.3   268  PRO268      0.1536
    135  C         35.5180   -3.2180  -10.9690 C.2   268  PRO268      0.2598
    136  O         35.1270   -3.2670   -9.8080 O.2   268  PRO268     -0.2715
    137  CB        33.8450   -2.1580  -12.4590 C.3   268  PRO268      0.0310
    138  CG        33.9550   -1.4750  -13.7570 C.3   268  PRO268      0.0237
    139  CD        35.3550   -1.7410  -14.2130 C.3   268  PRO268      0.0939
    140  N         36.1780   -4.2090  -11.5770 N.am  269  PHE269     -0.1974
    141  CA        36.5520   -5.4610  -10.9100 C.3   269  PHE269      0.1639
    142  C         37.6990   -5.3410   -9.8990 C.2   269  PHE269      0.2290
    143  O         37.7890   -6.1570   -8.9680 O.2   269  PHE269     -0.2864
    144  CB        36.9660   -6.5130  -11.9380 C.3   269  PHE269      0.0560
    145  CG        35.8160   -7.1540  -12.6580 C.ar  269  PHE269     -0.0200
    146  CD1       35.8630   -7.3380  -14.0310 C.ar  269  PHE269     -0.0042
    147  CD2       34.6840   -7.5900  -11.9620 C.ar  269  PHE269     -0.0042
    148  CE1       34.8050   -7.9220  -14.6940 C.ar  269  PHE269     -0.0003
    149  CE2       33.6300   -8.1880  -12.6260 C.ar  269  PHE269     -0.0003
    150  CZ        33.6910   -8.3540  -13.9870 C.ar  269  PHE269     -0.0000
    151  N         30.2510   -4.6400   -8.0940 N.3   276  CYS276     -0.1235
    152  CA        29.2890   -5.7600   -8.2540 C.3   276  CYS276      0.1677
    153  C         28.7460   -6.3110   -6.9240 C.2   276  CYS276      0.2270
    154  O         27.5510   -6.6030   -6.8260 O.2   276  CYS276     -0.2867
    155  CB        29.8910   -6.9260   -9.0630 C.3   276  CYS276      0.0956
    156  SG        31.2110   -6.5560  -10.2780 S.3   276  CYS276     -0.0801
    157  N         31.8500  -12.6410  -17.8320 N.3   291  THR291     -0.1203
    158  CA        32.0530  -11.5410  -18.7510 C.3   291  THR291      0.1994
    159  C         33.1420  -11.9000  -19.7630 C.2   291  THR291      0.2617
    160  O         33.1880  -11.3270  -20.8720 O.2   291  THR291     -0.2717
    161  CB        32.3490  -10.1670  -18.0510 C.3   291  THR291      0.1784
    162  OG1       33.7380   -9.8630  -18.1230 O.3   291  THR291     -0.2211
    163  CG2       31.8690  -10.1330  -16.6030 C.3   291  THR291      0.0376
    164  N         34.0150  -12.8400  -19.4000 N.am  292  ASN292     -0.1974
    165  CA        35.0400  -13.2870  -20.3340 C.3   292  ASN292      0.1688
    166  C         34.4390  -14.1690  -21.4010 C.2   292  ASN292      0.2292
    167  O         34.9640  -14.2190  -22.5170 O.2   292  ASN292     -0.2864
    168  CB        36.1720  -14.0260  -19.6270 C.3   292  ASN292      0.1181
    169  CG        37.1380  -13.0920  -18.9470 C.2   292  ASN292      0.2629
    170  OD1       37.3210  -11.9560  -19.3720 O.2   292  ASN292     -0.2716
    171  ND2       37.7750  -13.5730  -17.8830 N.am  292  ASN292     -0.0877
    172  N         32.8540  -11.5960  -23.6580 N.3   295  LYS295     -0.1245
    173  CA        34.0170  -11.0400  -24.3600 C.3   295  LYS295      0.1561
    174  C         34.4160  -11.8910  -25.5710 C.2   295  LYS295      0.2260
    175  O         34.6240  -11.3610  -26.6640 O.2   295  LYS295     -0.2867
    176  CB        35.2190  -10.9050  -23.4100 C.3   295  LYS295      0.0271
    177  CG        35.3350   -9.5580  -22.6940 C.3   295  LYS295      0.0035
    178  CD        36.7860   -9.2060  -22.4690 C.3   295  LYS295      0.0206
    179  CE        36.9610   -7.8450  -21.7860 C.3   295  LYS295      0.1093
    180  NZ        38.3100   -7.7250  -21.1030 N.3   295  LYS295     -0.1314
    181  N         34.9270   -0.6630  -26.2040 N.3   350  HIS350     -0.1226
    182  CA        35.6730   -1.8210  -25.7440 C.3   350  HIS350      0.1752
    183  C         34.9410   -2.5910  -24.6600 C.2   350  HIS350      0.2596
    184  O         35.1170   -3.8030  -24.5230 O.2   350  HIS350     -0.2718
    185  CB        37.0700   -1.3940  -25.2650 C.3   350  HIS350      0.0759
    186  CG        38.0180   -1.1370  -26.3840 C.ar  350  HIS350      0.0818
    187  ND1       38.1290    0.0910  -26.9950 N.ar  350  HIS350     -0.2268
    188  CD2       38.8750   -1.9600  -27.0290 C.ar  350  HIS350      0.1154
    189  CE1       39.0330    0.0190  -27.9590 C.ar  350  HIS350      0.1986
    190  NE2       39.5020   -1.2130  -27.9980 N.ar  350  HIS350     -0.2212
    191  N         34.1210   -1.8880  -23.8920 N.am  351  GLY351     -0.1957
    192  CA        33.2950   -2.5280  -22.8570 C.3   351  GLY351      0.1869
    193  C         31.9280   -3.0280  -23.2950 C.2   351  GLY351      0.2309
    194  O         31.1020   -3.3210  -22.4310 O.2   351  GLY351     -0.2863
    195  N         30.8060   -6.2560  -21.8610 N.3   354  ALA354     -0.1231
    196  CA        30.4410   -6.1150  -20.4470 C.3   354  ALA354      0.1694
    197  C         29.1450   -5.3470  -20.2830 C.2   354  ALA354      0.2592
    198  O         28.4290   -5.5650  -19.3230 O.2   354  ALA354     -0.2718
    199  CB        31.5380   -5.3860  -19.6760 C.3   354  ALA354      0.0304
    200  N         28.8750   -4.4140  -21.1930 N.am  355  HIS355     -0.1976
    201  CA        27.7370   -3.5210  -21.0450 C.3   355  HIS355      0.1656
    202  C         26.4580   -4.0870  -21.6690 C.2   355  HIS355      0.2291
    203  O         25.4760   -4.2570  -20.9790 O.2   355  HIS355     -0.2864
    204  CB        28.0350   -2.1580  -21.6690 C.3   355  HIS355      0.0771
    205  CG        29.0450   -1.3380  -20.9260 C.ar  355  HIS355      0.0820
    206  ND1       29.9160   -0.4900  -21.5730 N.ar  355  HIS355     -0.2267
    207  CD2       29.3080   -1.2090  -19.6050 C.ar  355  HIS355      0.1154
    208  CE1       30.6890    0.1090  -20.6870 C.ar  355  HIS355      0.1986
    209  NE2       30.3460   -0.3130  -19.4830 N.ar  355  HIS355     -0.2212
@<TRIPOS>BOND
     1   190   189   ar
     2   190   188   ar
     3   189   187   ar
     4     1     2    1
     5   188   186   ar
     6   187   186   ar
     7     2     5    1
     8     2     3    1
     9   175   174    2
    10   186   185    1
    11   181   182    1
    12     3     4    2
    13     3     6   am
    14   182   185    1
    15   182   183    1
    16    34    35    1
    17   174   173    1
    18    26    27    2
    19    26    25    1
    20     6    12    1
    21     6     7    1
    22    41    40   ar
    23    12    11    1
    24   183   184    2
    25   183   191   am
    26    42    40   ar
    27    11    10    1
    28    35    36    1
    29    35    38    1
    30   173   172    1
    31   173   176    1
    32    40    39    1
    33    45    46    2
    34    45    44    1
    35    25    24    1
    36    25    28    1
    37     7    10    1
    38     7     8    1
    39    43    36   am
    40    43    44    1
    41   191   192    1
    42    36    37    2
    43    22    21    2
    44    47    44    1
    45    47    48    1
    46    55    56    1
    47    50    48   ar
    48    50    52   ar
    49   176   177    1
    50    39    38    1
    51   193   192    1
    52   193   194    2
    53     8     9    2
    54    28    29    1
    55    30    29   ar
    56    30    32   ar
    57    48    49   ar
    58    52    53   ar
    59   177   178    1
    60    21    20    1
    61   167   166    2
    62   178   179    1
    63    29    31   ar
    64    32    33   ar
    65    56    57    1
    66    56    59    1
    67    57    58    2
    68    20    23    1
    69    20    19    1
    70   195   196    1
    71   179   180    1
    72   202   201    1
    73   202   203    2
    74   204   201    1
    75   204   205    1
    76   206   205   ar
    77   206   208   ar
    78    49    51   ar
    79   166   165    1
    80    31    33   ar
    81    53    51   ar
    82    53    54    1
    83    16    15    2
    84    59    60    1
    85   200   201    1
    86   200   197   am
    87   205   207   ar
    88   160   159    2
    89   208   209   ar
    90    19    15   am
    91   196   197    1
    92   196   199    1
    93    15    14    1
    94   165   168    1
    95   165   164    1
    96   197   198    2
    97    65    62   ar
    98    65    67   ar
    99    60    62   ar
   100    60    61   ar
   101   159   164   am
   102   159   158    1
   103   168   169    1
   104   207   209   ar
   105   170   169    2
   106    62    64   ar
   107    67    68   ar
   108   169   171   am
   109    14    17    1
   110    14    13    1
   111    61    63   ar
   112   158   161    1
   113   158   157    1
   114    17    18    1
   115   162   161    1
   116   161   163    1
   117    64    63   ar
   118    64    66   ar
   119    68    66   ar
   120    69    70    1
   121    97    96    1
   122    71    70    1
   123    71    72    2
   124   113   112   ar
   125   113   111   ar
   126    70    73    1
   127   112   110   ar
   128    73    74    1
   129    75    74   ar
   130    75    77   ar
   131    96    93    1
   132   111   109   ar
   133    74    76   ar
   134   110   109   ar
   135    77    78   ar
   136    93    92    1
   137    93    94    1
   138   109   108    1
   139   132   130   am
   140   117   116    2
   141    92    88   am
   142    82    81    2
   143   124   123    2
   144   119   118    1
   145   148   146   ar
   146   148   150   ar
   147   131   130    2
   148   130   129    1
   149   122   123    1
   150   122   121    1
   151   123   125   am
   152   118   120    1
   153   118   115    1
   154   139   138    1
   155   139   133    1
   156    76    78   ar
   157    88    87    1
   158    88    89    2
   159   116   121   am
   160   116   115    1
   161   125   126    1
   162   146   145   ar
   163   126   129    1
   164   126   127    1
   165   150   149   ar
   166   108   105    1
   167    94    95    2
   168    87    86    1
   169    87    90    1
   170    81    86   am
   171    81    80    1
   172   138   137    1
   173    79    80    1
   174   115   114    1
   175    80    83    1
   176    83    84    1
   177    83    85    1
   178   133   127   am
   179   133   134    1
   180    90    91    1
   181   127   128    2
   182   102   103    1
   183   102    99    1
   184   145   147   ar
   185   145   144    1
   186   149   147   ar
   187   105   104    1
   188   105   106    1
   189   137   134    1
   190   104   100   am
   191   144   141    1
   192   134   135    1
   193   100   101    2
   194   100    99    1
   195   140   135   am
   196   140   141    1
   197   106   107    2
   198    99    98    1
   199   135   136    2
   200   141   142    1
   201   156   155    1
   202   142   143    2
   203   155   152    1
   204   152   151    1
   205   152   153    1
   206   153   154    2
