@<TRIPOS>MOLECULE
tmp/3ubrB01.pdb
 248 240 0 0 0
SMALL
GASTEIGER

@<TRIPOS>ATOM
      1  N         41.8710    6.2810  -44.3740 N.3    48  TYR48      -0.1241
      2  CA        41.4010    7.1340  -43.2820 C.3    48  TYR48       0.1605
      3  C         42.2400    6.9900  -42.0180 C.2    48  TYR48       0.2264
      4  O         42.7890    5.9250  -41.7520 O.2    48  TYR48      -0.2867
      5  CB        39.9480    6.7680  -42.9880 C.3    48  TYR48       0.0534
      6  CG        39.2910    7.5020  -41.8340 C.ar   48  TYR48      -0.0201
      7  CD1       38.9210    8.8350  -41.9690 C.ar   48  TYR48      -0.0009
      8  CD2       39.0120    6.8560  -40.6240 C.ar   48  TYR48      -0.0009
      9  CE1       38.3190    9.5160  -40.9530 C.ar   48  TYR48       0.0417
     10  CE2       38.4030    7.5360  -39.5900 C.ar   48  TYR48       0.0417
     11  CZ        38.0580    8.8780  -39.7620 C.ar   48  TYR48       0.1957
     12  OH        37.4430    9.6060  -38.7510 O.3    48  TYR48      -0.2866
     13  N         42.2580    6.2050  -38.9080 N.3    50  PHE50      -0.1241
     14  CA        42.3890    4.9930  -38.0990 C.3    50  PHE50       0.1605
     15  C         43.2100    3.8720  -38.7790 C.2    50  PHE50       0.2264
     16  O         43.5400    2.8870  -38.1420 O.2    50  PHE50      -0.2867
     17  CB        41.0140    4.4410  -37.7250 C.3    50  PHE50       0.0534
     18  CG        40.3430    5.1690  -36.6200 C.ar   50  PHE50      -0.0203
     19  CD1       39.8600    6.4460  -36.8030 C.ar   50  PHE50      -0.0042
     20  CD2       40.1410    4.5670  -35.4110 C.ar   50  PHE50      -0.0042
     21  CE1       39.2090    7.1300  -35.7950 C.ar   50  PHE50      -0.0003
     22  CE2       39.4920    5.2470  -34.3870 C.ar   50  PHE50      -0.0003
     23  CZ        39.0190    6.5330  -34.5950 C.ar   50  PHE50      -0.0000
     24  N         45.7020    3.0520  -33.9810 N.3    54  TYR54      -0.1227
     25  CA        44.5440    2.9850  -33.1020 C.3    54  TYR54       0.1736
     26  C         44.9350    2.1260  -31.8980 C.2    54  TYR54       0.2595
     27  O         45.2750    0.9690  -32.0740 O.2    54  TYR54      -0.2718
     28  CB        43.3710    2.3770  -33.8900 C.3    54  TYR54       0.0548
     29  CG        42.1440    2.0200  -33.0920 C.ar   54  TYR54      -0.0200
     30  CD1       41.3690    3.0000  -32.5090 C.ar   54  TYR54      -0.0009
     31  CD2       41.7570    0.7120  -32.9320 C.ar   54  TYR54      -0.0009
     32  CE1       40.2420    2.6870  -31.7640 C.ar   54  TYR54       0.0417
     33  CE2       40.6230    0.3840  -32.2000 C.ar   54  TYR54       0.0417
     34  CZ        39.8620    1.3790  -31.6160 C.ar   54  TYR54       0.1957
     35  OH        38.7210    1.0820  -30.8870 O.3    54  TYR54      -0.2866
     36  N         44.9470    2.7030  -30.6940 N.am   55  LYS55      -0.1966
     37  CA        45.2780    1.9540  -29.4750 C.3    55  LYS55       0.1728
     38  C         44.0160    1.8330  -28.6460 C.2    55  LYS55       0.2616
     39  O         43.0970    2.6230  -28.7930 O.2    55  LYS55      -0.2715
     40  CB        46.3370    2.6650  -28.6130 C.3    55  LYS55       0.0311
     41  CG        47.5200    3.3000  -29.3190 C.3    55  LYS55       0.0038
     42  CD        48.6000    2.3240  -29.6630 C.3    55  LYS55       0.0206
     43  CE        49.8180    3.1000  -30.1480 C.3    55  LYS55       0.1093
     44  NZ        50.8230    2.2590  -30.8620 N.3    55  LYS55      -0.1314
     45  N         43.9710    0.8510  -27.7530 N.am   56  ALA56      -0.1964
     46  CA        42.8760    0.7890  -26.7860 C.3    56  ALA56       0.1713
     47  C         43.0440    1.9320  -25.7670 C.2    56  ALA56       0.2458
     48  O         44.1280    2.5450  -25.6720 O.2    56  ALA56      -0.2730
     49  CB        42.8140   -0.5710  -26.0880 C.3    56  ALA56       0.0333
     50  N         41.9700    2.2410  -25.0180 N.am   57  PRO57      -0.2716
     51  CA        42.0730    3.3250  -24.0590 C.3    57  PRO57       0.1536
     52  C         43.0410    2.9660  -22.9560 C.2    57  PRO57       0.2598
     53  O         43.2130    1.7770  -22.6430 O.2    57  PRO57      -0.2715
     54  CB        40.6560    3.4370  -23.4800 C.3    57  PRO57       0.0310
     55  CG        39.7730    2.6160  -24.3830 C.3    57  PRO57       0.0237
     56  CD        40.6420    1.5960  -25.0040 C.3    57  PRO57       0.0939
     57  N         43.6940    3.9810  -22.4000 N.am   58  ARG58      -0.1978
     58  CA        44.2880    3.8530  -21.0820 C.3    58  ARG58       0.1597
     59  C         43.7310    4.9910  -20.1990 C.2    58  ARG58       0.2287
     60  O         42.6760    5.5630  -20.5360 O.2    58  ARG58      -0.2864
     61  CB        45.7990    3.7980  -21.1950 C.3    58  ARG58       0.0334
     62  CG        46.4410    4.9600  -21.9080 C.3    58  ARG58       0.0492
     63  CD        47.9220    4.9760  -21.5620 C.3    58  ARG58       0.2205
     64  NE        48.6490    6.0400  -22.2430 N.pl3  58  ARG58      -0.0865
     65  CZ        49.9670    6.0490  -22.4220 C.cat  58  ARG58       0.5346
     66  NH1       50.7190    5.0480  -21.9540 N.pl3  58  ARG58       0.1354
     67  NH2       50.5410    7.0580  -23.0750 N.pl3  58  ARG58       0.1354
     68  N         48.1520   11.2950  -25.1670 N.3    66  ASP66      -0.1225
     69  CA        47.7580   10.3240  -26.1860 C.3    66  ASP66       0.1805
     70  C         47.2600   10.9470  -27.4920 C.2    66  ASP66       0.2597
     71  O         47.5430   10.4010  -28.5710 O.2    66  ASP66      -0.2718
     72  CB        46.7250    9.3350  -25.6180 C.3    66  ASP66       0.1424
     73  CG        47.3820    8.1190  -24.9570 C.2    66  ASP66       0.3668
     74  OD1       48.6290    7.9390  -25.1300 O.co2  66  ASP66      -0.2456
     75  OD2       46.6490    7.3420  -24.2890 O.co2  66  ASP66      -0.2456
     76  N         46.5270   12.0630  -27.4060 N.am   67  VAL67      -0.1980
     77  CA        46.0760   12.7680  -28.6110 C.3    67  VAL67       0.1595
     78  C         47.2810   13.3860  -29.3030 C.2    67  VAL67       0.2287
     79  O         47.3950   13.3430  -30.5300 O.2    67  VAL67      -0.2864
     80  CB        44.9740   13.8400  -28.3490 C.3    67  VAL67       0.0276
     81  CG1       45.4700   14.9640  -27.4700 C.3    67  VAL67       0.0022
     82  CG2       44.4890   14.4050  -29.6490 C.3    67  VAL67       0.0022
     83  N         49.6350   10.3520  -31.1010 N.3    70  THR70      -0.1218
     84  CA        49.0600    9.4060  -32.0710 C.3    70  THR70       0.1862
     85  C         49.1770    9.8700  -33.5370 C.2    70  THR70       0.2287
     86  O         48.9100   11.0300  -33.8750 O.2    70  THR70      -0.2866
     87  CB        47.5760    9.0830  -31.7080 C.3    70  THR70       0.1770
     88  OG1       47.0360    8.1550  -32.6590 O.3    70  THR70      -0.2211
     89  CG2       46.7160   10.3530  -31.6560 C.3    70  THR70       0.0375
     90  N         47.5880    9.7750  -36.0940 N.3    72  ARG72      -0.1231
     91  CA        46.3780   10.2850  -36.7450 C.3    72  ARG72       0.1694
     92  C         46.3190   11.7990  -36.7220 C.2    72  ARG72       0.2592
     93  O         45.8860   12.4160  -37.6980 O.2    72  ARG72      -0.2718
     94  CB        45.1050    9.7490  -36.0650 C.3    72  ARG72       0.0321
     95  CG        45.1040    8.2520  -35.7360 C.3    72  ARG72       0.0489
     96  CD        43.7250    7.6350  -35.8720 C.3    72  ARG72       0.2205
     97  NE        42.7060    8.2750  -35.0450 N.pl3  72  ARG72      -0.0865
     98  CZ        42.4420    7.9840  -33.7700 C.cat  72  ARG72       0.5346
     99  NH1       43.1380    7.0580  -33.1090 N.pl3  72  ARG72       0.1354
    100  NH2       41.4650    8.6400  -33.1470 N.pl3  72  ARG72       0.1354
    101  N         46.7440   12.3820  -35.6000 N.am   73  THR73      -0.1953
    102  CA        46.8070   13.8410  -35.4370 C.3    73  THR73       0.1897
    103  C         47.9120   14.4910  -36.2780 C.2    73  THR73       0.2313
    104  O         47.8500   15.6820  -36.5770 O.2    73  THR73      -0.2863
    105  CB        47.0610   14.1950  -33.9820 C.3    73  THR73       0.1794
    106  OG1       48.2980   13.5980  -33.5670 O.3    73  THR73      -0.2208
    107  CG2       45.9090   13.6890  -33.1170 C.3    73  THR73       0.0378
    108  N         43.4820   17.4230  -39.1160 N.3    84  LEU84      -0.1245
    109  CA        42.3120   17.3730  -38.2450 C.3    84  LEU84       0.1561
    110  C         42.0330   18.7050  -37.5440 C.2    84  LEU84       0.2260
    111  O         42.9890   19.4670  -37.2540 O.2    84  LEU84      -0.2867
    112  CB        42.4900   16.2740  -37.1940 C.3    84  LEU84       0.0270
    113  CG        42.8890   14.8790  -37.6790 C.3    84  LEU84       0.0019
    114  CD1       42.6600   13.9020  -36.5380 C.3    84  LEU84       0.0001
    115  CD2       42.1570   14.4120  -38.9470 C.3    84  LEU84       0.0001
    116  N         38.1070   20.3220  -32.9120 N.3    87  ALA87      -0.1231
    117  CA        37.1580   19.3870  -32.2640 C.3    87  ALA87       0.1694
    118  C         37.8240   18.2470  -31.4950 C.2    87  ALA87       0.2592
    119  O         37.4100   17.8970  -30.3960 O.2    87  ALA87      -0.2718
    120  CB        36.2150   18.8280  -33.2930 C.3    87  ALA87       0.0304
    121  N         38.8690   17.6900  -32.0800 N.am   88  CYS88      -0.1970
    122  CA        39.6810   16.6750  -31.4330 C.3    88  CYS88       0.1712
    123  C         40.0370   16.8570  -29.9380 C.2    88  CYS88       0.2296
    124  O         40.2370   15.8780  -29.2300 O.2    88  CYS88      -0.2864
    125  CB        40.9580   16.5120  -32.2480 C.3    88  CYS88       0.0983
    126  SG        40.6360   15.6990  -33.8350 S.3    88  CYS88      -0.0798
    127  N         36.9910   16.3710  -26.1270 N.3    91  CYS91      -0.1221
    128  CA        36.9060   15.3350  -25.1110 C.3    91  CYS91       0.1808
    129  C         38.2900   14.8820  -24.5720 C.2    91  CYS91       0.2601
    130  O         38.4410   13.7280  -24.1790 O.2    91  CYS91      -0.2717
    131  CB        36.1450   14.1430  -25.6870 C.3    91  CYS91       0.0970
    132  SG        34.6460   14.5410  -26.6890 S.3    91  CYS91      -0.0800
    133  N         39.2830   15.7800  -24.5270 N.am   92  LYS92      -0.1979
    134  CA        40.6040   15.4410  -23.9920 C.3    92  LYS92       0.1596
    135  C         41.0860   16.3700  -22.8690 C.2    92  LYS92       0.2287
    136  O         42.2400   16.2030  -22.4060 O.2    92  LYS92      -0.2864
    137  CB        41.6650   15.4760  -25.0990 C.3    92  LYS92       0.0298
    138  CG        41.3230   14.7020  -26.3600 C.3    92  LYS92       0.0038
    139  CD        41.2400   13.1960  -26.1050 C.3    92  LYS92       0.0206
    140  CE        40.8340   12.4410  -27.3400 C.3    92  LYS92       0.1093
    141  NZ        39.4540   12.8270  -27.8030 N.3    92  LYS92      -0.1314
    142  N         31.5650   12.4480  -23.3590 N.3   171  CYS171     -0.1221
    143  CA        32.6200   11.9960  -24.2530 C.3   171  CYS171      0.1808
    144  C         32.4460   10.5600  -24.7560 C.2   171  CYS171      0.2601
    145  O         32.7300   10.2540  -25.9090 O.2   171  CYS171     -0.2717
    146  CB        33.9470   12.1450  -23.5210 C.3   171  CYS171      0.0970
    147  SG        34.0170   13.7240  -22.6380 S.3   171  CYS171     -0.0800
    148  N         31.9560    9.6750  -23.9000 N.am  172  HIS172     -0.1961
    149  CA        31.9030    8.2580  -24.2210 C.3   172  HIS172      0.1787
    150  C         30.6820    7.9330  -25.0790 C.2   172  HIS172      0.2620
    151  O         29.7720    7.2130  -24.6910 O.2   172  HIS172     -0.2715
    152  CB        32.0210    7.4520  -22.9190 C.3   172  HIS172      0.0785
    153  CG        33.4110    7.4610  -22.3480 C.ar  172  HIS172      0.0821
    154  ND1       34.4280    6.6760  -22.8510 N.ar  172  HIS172     -0.2267
    155  CD2       33.9590    8.1850  -21.3440 C.ar  172  HIS172      0.1154
    156  CE1       35.5340    6.8980  -22.1640 C.ar  172  HIS172      0.1986
    157  NE2       35.2800    7.8140  -21.2480 N.ar  172  HIS172     -0.2212
    158  N         30.7080    8.4690  -26.2840 N.am  173  VAL173     -0.1977
    159  CA        29.5620    8.4430  -27.1760 C.3   173  VAL173      0.1596
    160  C         29.9970    8.6460  -28.6140 C.2   173  VAL173      0.2287
    161  O         31.0250    9.2700  -28.8810 O.2   173  VAL173     -0.2864
    162  CB        28.5920    9.5670  -26.8350 C.3   173  VAL173      0.0276
    163  CG1       27.7940    9.1910  -25.6530 C.3   173  VAL173      0.0022
    164  CG2       29.3370   10.8430  -26.5590 C.3   173  VAL173      0.0022
    165  N         30.1780   10.2720  -32.1220 N.3   175  TYR175     -0.1241
    166  CA        30.1180   11.6560  -32.6090 C.3   175  TYR175      0.1605
    167  C         30.4200   11.7530  -34.1050 C.2   175  TYR175      0.2264
    168  O         30.8080   10.7720  -34.7430 O.2   175  TYR175     -0.2867
    169  CB        31.1010   12.5410  -31.8460 C.3   175  TYR175      0.0534
    170  CG        32.5090   12.2320  -32.1980 C.ar  175  TYR175     -0.0201
    171  CD1       33.1870   11.2200  -31.5460 C.ar  175  TYR175     -0.0009
    172  CD2       33.1450   12.9040  -33.2230 C.ar  175  TYR175     -0.0009
    173  CE1       34.4890   10.8990  -31.8960 C.ar  175  TYR175      0.0417
    174  CE2       34.4340   12.6050  -33.5750 C.ar  175  TYR175      0.0417
    175  CZ        35.1140   11.6030  -32.9110 C.ar  175  TYR175      0.1957
    176  OH        36.4060   11.2900  -33.2620 O.3   175  TYR175     -0.2866
    177  N         31.7280   15.2020  -37.0450 N.3   177  PHE177     -0.1241
    178  CA        31.9920   16.6190  -37.2530 C.3   177  PHE177      0.1605
    179  C         31.0180   17.1420  -38.2680 C.2   177  PHE177      0.2264
    180  O         31.0770   16.7740  -39.4440 O.2   177  PHE177     -0.2867
    181  CB        33.4300   16.8820  -37.7050 C.3   177  PHE177      0.0534
    182  CG        34.4570   16.4100  -36.7210 C.ar  177  PHE177     -0.0203
    183  CD1       34.2940   16.6480  -35.3660 C.ar  177  PHE177     -0.0042
    184  CD2       35.5690   15.7200  -37.1430 C.ar  177  PHE177     -0.0042
    185  CE1       35.2220   16.2230  -34.4650 C.ar  177  PHE177     -0.0003
    186  CE2       36.5100   15.2930  -36.2350 C.ar  177  PHE177     -0.0003
    187  CZ        36.3360   15.5490  -34.8950 C.ar  177  PHE177     -0.0000
    188  N         31.1560   19.3970  -32.8770 N.3   187  VAL187     -0.1245
    189  CA        30.9090   18.0540  -32.4690 C.3   187  VAL187      0.1561
    190  C         29.4090   17.9590  -32.2470 C.2   187  VAL187      0.2260
    191  O         28.8630   18.6470  -31.3940 O.2   187  VAL187     -0.2867
    192  CB        31.6870   17.7360  -31.2020 C.3   187  VAL187      0.0252
    193  CG1       31.3440   16.3570  -30.6860 C.3   187  VAL187      0.0019
    194  CG2       33.1740   17.8540  -31.4920 C.3   187  VAL187      0.0019
    195  N         26.3280   14.8640  -31.8410 N.3   189  PHE189     -0.1241
    196  CA        26.0490   13.4670  -31.6100 C.3   189  PHE189      0.1605
    197  C         24.7780   13.1430  -32.4060 C.2   189  PHE189      0.2264
    198  O         23.7660   13.8510  -32.2600 O.2   189  PHE189     -0.2867
    199  CB        25.8120   13.1710  -30.1260 C.3   189  PHE189      0.0534
    200  CG        26.9170   13.6080  -29.2060 C.ar  189  PHE189     -0.0203
    201  CD1       26.6770   13.6760  -27.8500 C.ar  189  PHE189     -0.0042
    202  CD2       28.1800   13.9250  -29.6710 C.ar  189  PHE189     -0.0042
    203  CE1       27.6570   14.0550  -26.9690 C.ar  189  PHE189     -0.0003
    204  CE2       29.1840   14.3270  -28.7750 C.ar  189  PHE189     -0.0003
    205  CZ        28.9160   14.3860  -27.4250 C.ar  189  PHE189     -0.0000
    206  N         32.5170    5.6870  -33.0790 N.3   225  GLN225     -0.1231
    207  CA        33.4400    5.9650  -31.9740 C.3   225  GLN225      0.1698
    208  C         32.7680    5.7060  -30.6260 C.2   225  GLN225      0.2592
    209  O         31.7180    6.3040  -30.3070 O.2   225  GLN225     -0.2718
    210  CB        33.9510    7.4030  -32.0110 C.3   225  GLN225      0.0381
    211  CG        34.9460    7.7180  -33.1440 C.3   225  GLN225      0.0905
    212  CD        34.2840    8.2880  -34.4000 C.2   225  GLN225      0.2608
    213  OE1       33.0490    8.2820  -34.5380 O.2   225  GLN225     -0.2717
    214  NE2       35.1060    8.7790  -35.3290 N.am  225  GLN225     -0.0878
    215  N         33.3780    4.7900  -29.8630 N.am  226  HIS226     -0.1976
    216  CA        33.0570    4.5320  -28.4540 C.3   226  HIS226      0.1656
    217  C         31.6430    4.9260  -28.0280 C.2   226  HIS226      0.2291
    218  O         31.4380    5.8780  -27.2650 O.2   226  HIS226     -0.2864
    219  CB        34.0900    5.2420  -27.5930 C.3   226  HIS226      0.0771
    220  CG        34.5140    6.5610  -28.1490 C.ar  226  HIS226      0.0820
    221  ND1       33.6200    7.5850  -28.3880 N.ar  226  HIS226     -0.2267
    222  CD2       35.7340    7.0220  -28.5150 C.ar  226  HIS226      0.1154
    223  CE1       34.2770    8.6240  -28.8750 C.ar  226  HIS226      0.1986
    224  NE2       35.5600    8.3060  -28.9680 N.ar  226  HIS226     -0.2212
    225  N         29.6760    4.2440  -25.6870 N.3   228  GLU228     -0.1245
    226  CA        29.3720    3.6900  -24.3630 C.3   228  GLU228      0.1567
    227  C         28.0190    4.1390  -23.8790 C.2   228  GLU228      0.2260
    228  O         27.2960    3.3270  -23.3650 O.2   228  GLU228     -0.2867
    229  CB        30.4020    4.0630  -23.3110 C.3   228  GLU228      0.0388
    230  CG        31.6470    3.2440  -23.3360 C.3   228  GLU228      0.1160
    231  CD        32.6580    3.7360  -24.3220 C.2   228  GLU228      0.3649
    232  OE1       33.2750    2.8860  -25.0090 O.co2 228  GLU228     -0.2457
    233  OE2       32.8550    4.9620  -24.4020 O.co2 228  GLU228     -0.2457
    234  N         33.1750   -0.5310  -31.4800 N.3   348  ALA348     -0.1245
    235  CA        34.1330    0.5560  -31.2020 C.3   348  ALA348      0.1562
    236  C         34.3020    0.6780  -29.7000 C.2   348  ALA348      0.2260
    237  O         35.4220    0.9100  -29.2420 O.2   348  ALA348     -0.2867
    238  CB        33.7080    1.9000  -31.8020 C.3   348  ALA348      0.0290
    239  N         34.9270   -0.6630  -26.2040 N.3   350  HIS350     -0.1241
    240  CA        35.6730   -1.8210  -25.7440 C.3   350  HIS350      0.1621
    241  C         34.9410   -2.5910  -24.6600 C.2   350  HIS350      0.2264
    242  O         35.1170   -3.8030  -24.5230 O.2   350  HIS350     -0.2867
    243  CB        37.0700   -1.3940  -25.2650 C.3   350  HIS350      0.0745
    244  CG        38.0180   -1.1370  -26.3840 C.ar  350  HIS350      0.0817
    245  ND1       38.1290    0.0910  -26.9950 N.ar  350  HIS350     -0.2268
    246  CD2       38.8750   -1.9600  -27.0290 C.ar  350  HIS350      0.1154
    247  CE1       39.0330    0.0190  -27.9590 C.ar  350  HIS350      0.1986
    248  NE2       39.5020   -1.2130  -27.9980 N.ar  350  HIS350     -0.2212
@<TRIPOS>BOND
     1     1     2    1
     2     2     5    1
     3     2     3    1
     4     5     6    1
     5     3     4    2
     6     7     6   ar
     7     7     9   ar
     8     6     8   ar
     9     9    11   ar
    10     8    10   ar
    11    11    10   ar
    12    11    12    1
    13   180   179    2
    14   108   109    1
    15   115   113    1
    16    13    14    1
    17    15    16    2
    18    15    14    1
    19   179   178    1
    20   109   110    1
    21   109   112    1
    22    14    17    1
    23    17    18    1
    24   181   178    1
    25   181   182    1
    26    93    92    2
    27   113   112    1
    28   113   114    1
    29   110   111    2
    30   178   177    1
    31   184   182   ar
    32   184   186   ar
    33    19    18   ar
    34    19    21   ar
    35    91    92    1
    36    91    90    1
    37    91    94    1
    38    92   101   am
    39   182   183   ar
    40    18    20   ar
    41   104   103    2
    42   103   102    1
    43   186   187   ar
    44    94    95    1
    45    96    95    1
    46    96    97    1
    47    21    23   ar
    48   101   102    1
    49   102   105    1
    50    20    22   ar
    51   183   185   ar
    52   214   212   am
    53    97    98    2
    54   187   185   ar
    55   168   167    2
    56    23    22   ar
    57   213   212    2
    58   212   211    1
    59   167   166    1
    60   105   106    1
    61   105   107    1
    62    24    25    1
    63    28    25    1
    64    28    29    1
    65    86    85    2
    66   126   125    1
    67    98   100    1
    68    98    99    1
    69   174   172   ar
    70   174   175   ar
    71    85    84    1
    72   120   117    1
    73   176   175    1
    74   172   170   ar
    75   211   210    1
    76    25    26    1
    77    29    31   ar
    78    29    30   ar
    79   206   207    1
    80    31    33   ar
    81   116   117    1
    82   175   173   ar
    83   188   189    1
    84    88    87    1
    85   166   165    1
    86   166   169    1
    87    30    32   ar
    88   189   190    1
    89   189   192    1
    90   197   198    2
    91   197   196    1
    92   117   118    1
    93   125   122    1
    94   190   191    2
    95    33    34   ar
    96   170   169    1
    97   170   171   ar
    98   121   118   am
    99   121   122    1
   100    27    26    2
   101    84    87    1
   102    84    83    1
   103   210   207    1
   104   207   208    1
   105    26    36   am
   106   173   171   ar
   107   195   196    1
   108   238   235    1
   109    32    34   ar
   110    87    89    1
   111    34    35    1
   112   196   199    1
   113   118   119    2
   114   194   192    1
   115   234   235    1
   116   122   123    1
   117   235   236    1
   118   192   193    1
   119    44    43    1
   120    36    37    1
   121   208   209    2
   122   208   215   am
   123    79    78    2
   124    43    42    1
   125   199   200    1
   126   123   124    2
   127   215   216    1
   128   236   237    2
   129   202   200   ar
   130   202   204   ar
   131    42    41    1
   132    82    80    1
   133    37    38    1
   134    37    40    1
   135    41    40    1
   136    78    77    1
   137   200   201   ar
   138   224   223   ar
   139   224   222   ar
   140   161   160    2
   141   223   221   ar
   142    39    38    2
   143   204   205   ar
   144    38    45   am
   145   160   159    1
   146    77    80    1
   147    77    76    1
   148    71    70    2
   149   222   220   ar
   150   216   217    1
   151   216   219    1
   152   221   220   ar
   153    80    81    1
   154   220   219    1
   155   217   218    2
   156   248   247   ar
   157   248   246   ar
   158   247   245   ar
   159   201   203   ar
   160   141   140    1
   161    45    46    1
   162    70    76   am
   163    70    69    1
   164   205   203   ar
   165   140   139    1
   166   159   162    1
   167   159   158    1
   168   246   244   ar
   169   245   244   ar
   170   162   164    1
   171   162   163    1
   172    46    49    1
   173    46    47    1
   174   132   131    1
   175   244   243    1
   176   138   139    1
   177   138   137    1
   178   158   150   am
   179   239   240    1
   180    69    72    1
   181    69    68    1
   182   127   128    1
   183   145   144    2
   184    47    48    2
   185    47    50   am
   186   240   243    1
   187   240   241    1
   188   131   128    1
   189   225   226    1
   190    72    73    1
   191    74    73   ar
   192   128   129    1
   193   137   134    1
   194   150   151    2
   195   150   149    1
   196    50    56    1
   197    50    51    1
   198   232   231   ar
   199    56    55    1
   200    73    75   ar
   201   144   143    1
   202   144   148   am
   203   241   242    2
   204   129   133   am
   205   129   130    2
   206   133   134    1
   207   233   231   ar
   208    55    54    1
   209   226   227    1
   210   226   229    1
   211   231   230    1
   212   143   146    1
   213   143   142    1
   214   149   148    1
   215   149   152    1
   216    51    54    1
   217    51    52    1
   218   134   135    1
   219   227   228    2
   220   146   147    1
   221   230   229    1
   222    67    65    1
   223    52    53    2
   224    52    57   am
   225   152   153    1
   226   135   136    2
   227   154   153   ar
   228   154   156   ar
   229    65    64    2
   230    65    66    1
   231    57    58    1
   232   153   155   ar
   233    64    63    1
   234   156   157   ar
   235    62    63    1
   236    62    61    1
   237   155   157   ar
   238    61    58    1
   239    58    59    1
   240    60    59    2
