@<TRIPOS>MOLECULE
tmp/3ubrB05.pdb
 174 167 0 0 0
SMALL
GASTEIGER

@<TRIPOS>ATOM
      1  N         21.4220   -4.5760  -20.0890 N.3   236  ILE236     -0.1231
      2  CA        20.4190   -4.9190  -19.0840 C.3   236  ILE236      0.1692
      3  C         20.6060   -4.0550  -17.8120 C.2   236  ILE236      0.2592
      4  O         19.6290   -3.7110  -17.1410 O.2   236  ILE236     -0.2718
      5  CB        20.4090   -6.4640  -18.8050 C.3   236  ILE236      0.0266
      6  CG1       19.0430   -7.0610  -19.1730 C.3   236  ILE236      0.0019
      7  CG2       20.8390   -6.7780  -17.3670 C.3   236  ILE236      0.0020
      8  CD1       17.8840   -6.5680  -18.3440 C.3   236  ILE236      0.0001
      9  N         21.8580   -3.7000  -17.5050 N.am  237  HIS237     -0.1976
     10  CA        22.1460   -2.7310  -16.4570 C.3   237  HIS237      0.1656
     11  C         21.6200   -1.3670  -16.8400 C.2   237  HIS237      0.2291
     12  O         21.1080   -0.6180  -16.0030 O.2   237  HIS237     -0.2864
     13  CB        23.6500   -2.6340  -16.2020 C.3   237  HIS237      0.0771
     14  CG        24.1970   -3.8130  -15.4780 C.ar  237  HIS237      0.0820
     15  ND1       24.8290   -4.8490  -16.1250 N.ar  237  HIS237     -0.2267
     16  CD2       24.1470   -4.1550  -14.1700 C.ar  237  HIS237      0.1154
     17  CE1       25.1640   -5.7720  -15.2420 C.ar  237  HIS237      0.1986
     18  NE2       24.7640   -5.3740  -14.0470 N.ar  237  HIS237     -0.2212
     19  N         17.9390   -0.8830  -15.9360 N.3   240  ASN240     -0.1240
     20  CA        17.7740   -0.7690  -14.4660 C.3   240  ASN240      0.1653
     21  C         18.3350    0.5430  -13.8920 C.2   240  ASN240      0.2266
     22  O         18.3220    0.7680  -12.6830 O.2   240  ASN240     -0.2867
     23  CB        18.4190   -1.9660  -13.7570 C.3   240  ASN240      0.1155
     24  CG        17.5570   -3.2130  -13.8170 C.2   240  ASN240      0.2627
     25  OD1       17.0220   -3.6560  -12.7990 O.2   240  ASN240     -0.2716
     26  ND2       17.4020   -3.7740  -15.0080 N.am  240  ASN240     -0.0877
     27  N         21.4510    1.4280  -13.7370 N.3   242  VAL242     -0.1245
     28  CA        22.7090    1.2480  -13.0390 C.3   242  VAL242      0.1561
     29  C         23.7520    2.0710  -13.7830 C.2   242  VAL242      0.2260
     30  O         24.1890    1.7060  -14.8740 O.2   242  VAL242     -0.2867
     31  CB        23.1380   -0.2190  -12.9630 C.3   242  VAL242      0.0252
     32  CG1       24.5690   -0.3300  -12.4010 C.3   242  VAL242      0.0019
     33  CG2       22.1690   -1.0010  -12.1190 C.3   242  VAL242      0.0019
     34  N         28.1620    3.9040  -10.5970 N.3   246  ASP246     -0.1225
     35  CA        27.9920    2.7340   -9.7070 C.3   246  ASP246      0.1805
     36  C         29.1500    1.7380   -9.8810 C.2   246  ASP246      0.2598
     37  O         29.7660    1.3100   -8.8890 O.2   246  ASP246     -0.2718
     38  CB        26.6750    1.9950   -9.9580 C.3   246  ASP246      0.1424
     39  CG        25.4620    2.7810   -9.5220 C.2   246  ASP246      0.3668
     40  OD1       25.5840    3.6670   -8.6580 O.co2 246  ASP246     -0.2456
     41  OD2       24.3660    2.5050  -10.0370 O.co2 246  ASP246     -0.2456
     42  N         29.4410    1.3910  -11.1390 N.am  247  CYS247     -0.1970
     43  CA        30.5070    0.4500  -11.4780 C.3   247  CYS247      0.1712
     44  C         31.8740    1.0860  -11.7170 C.2   247  CYS247      0.2296
     45  O         32.8910    0.4450  -11.5050 O.2   247  CYS247     -0.2864
     46  CB        30.1390   -0.3140  -12.7430 C.3   247  CYS247      0.0983
     47  SG        28.6310   -1.2330  -12.6210 S.3   247  CYS247     -0.0798
     48  N         36.1110   -1.7940  -12.9490 N.3   268  PRO268     -0.2102
     49  CA        35.2160   -1.9800  -11.8030 C.3   268  PRO268      0.1504
     50  C         35.5180   -3.2180  -10.9690 C.2   268  PRO268      0.2575
     51  O         35.1270   -3.2670   -9.8080 O.2   268  PRO268     -0.2718
     52  CB        33.8450   -2.1580  -12.4590 C.3   268  PRO268      0.0282
     53  CG        33.9550   -1.4750  -13.7570 C.3   268  PRO268      0.0208
     54  CD        35.3550   -1.7410  -14.2130 C.3   268  PRO268      0.0893
     55  N         36.1780   -4.2090  -11.5770 N.am  269  PHE269     -0.1977
     56  CA        36.5520   -5.4610  -10.9100 C.3   269  PHE269      0.1639
     57  C         37.6990   -5.3410   -9.8990 C.2   269  PHE269      0.2290
     58  O         37.7890   -6.1570   -8.9680 O.2   269  PHE269     -0.2864
     59  CB        36.9660   -6.5130  -11.9380 C.3   269  PHE269      0.0560
     60  CG        35.8160   -7.1540  -12.6580 C.ar  269  PHE269     -0.0200
     61  CD1       35.8630   -7.3380  -14.0310 C.ar  269  PHE269     -0.0042
     62  CD2       34.6840   -7.5900  -11.9620 C.ar  269  PHE269     -0.0042
     63  CE1       34.8050   -7.9220  -14.6940 C.ar  269  PHE269     -0.0003
     64  CE2       33.6300   -8.1880  -12.6260 C.ar  269  PHE269     -0.0003
     65  CZ        33.6910   -8.3540  -13.9870 C.ar  269  PHE269     -0.0000
     66  N         31.7090   -2.4050   -6.0900 N.3   275  THR275     -0.1203
     67  CA        30.9800   -2.3840   -7.3710 C.3   275  THR275      0.1994
     68  C         29.9380   -3.5310   -7.4130 C.2   275  THR275      0.2618
     69  O         28.8690   -3.4130   -6.7990 O.2   275  THR275     -0.2717
     70  CB        31.9390   -2.4160   -8.5910 C.3   275  THR275      0.1784
     71  OG1       32.7660   -3.5770   -8.5230 O.3   275  THR275     -0.2211
     72  CG2       32.8330   -1.1600   -8.6290 C.3   275  THR275      0.0376
     73  N         30.2510   -4.6400   -8.0940 N.am  276  CYS276     -0.1969
     74  CA        29.2890   -5.7600   -8.2540 C.3   276  CYS276      0.1712
     75  C         28.7460   -6.3110   -6.9240 C.2   276  CYS276      0.2296
     76  O         27.5510   -6.6030   -6.8260 O.2   276  CYS276     -0.2864
     77  CB        29.8910   -6.9260   -9.0630 C.3   276  CYS276      0.0983
     78  SG        31.2110   -6.5560  -10.2780 S.3   276  CYS276     -0.0798
     79  N         27.9010   -5.0550   -4.2550 N.3   278  THR278     -0.1203
     80  CA        26.7400   -4.2720   -3.8530 C.3   278  THR278      0.1994
     81  C         25.4340   -4.9300   -4.2490 C.2   278  THR278      0.2618
     82  O         24.5070   -4.9420   -3.4540 O.2   278  THR278     -0.2717
     83  CB        26.7840   -2.8270   -4.4460 C.3   278  THR278      0.1784
     84  OG1       28.0640   -2.2400   -4.1790 O.3   278  THR278     -0.2211
     85  CG2       25.6930   -1.9480   -3.8370 C.3   278  THR278      0.0376
     86  N         25.3640   -5.4880   -5.4540 N.am  279  CYS279     -0.1955
     87  CA        24.0880   -6.0130   -5.9780 C.3   279  CYS279      0.1843
     88  C         24.0960   -7.4950   -6.3460 C.2   279  CYS279      0.2625
     89  O         23.0580   -8.0310   -6.7590 O.2   279  CYS279     -0.2714
     90  CB        23.6500   -5.1980   -7.1990 C.3   279  CYS279      0.0997
     91  SG        23.7400   -3.4290   -6.9160 S.3   279  CYS279     -0.0797
     92  N         25.2430   -8.1550   -6.1870 N.am  280  HIS280     -0.1973
     93  CA        25.3800   -9.5340   -6.6370 C.3   280  HIS280      0.1656
     94  C         26.0090  -10.4370   -5.6060 C.2   280  HIS280      0.2291
     95  O         26.9600  -10.0440   -4.9370 O.2   280  HIS280     -0.2864
     96  CB        26.1640   -9.5820   -7.9410 C.3   280  HIS280      0.0771
     97  CG        25.4550   -8.9130   -9.0740 C.ar  280  HIS280      0.0820
     98  ND1       24.1260   -9.1470   -9.3600 N.ar  280  HIS280     -0.2267
     99  CD2       25.8810   -8.0090   -9.9830 C.ar  280  HIS280      0.1154
    100  CE1       23.7660   -8.4180  -10.3990 C.ar  280  HIS280      0.1986
    101  NE2       24.8120   -7.7170  -10.7980 N.ar  280  HIS280     -0.2212
    102  N         27.1160  -13.5900   -6.2430 N.3   282  GLN282     -0.1245
    103  CA        28.1220  -14.4640   -6.8340 C.3   282  GLN282      0.1566
    104  C         29.5400  -14.0020   -6.4410 C.2   282  GLN282      0.2260
    105  O         29.7060  -13.0720   -5.6450 O.2   282  GLN282     -0.2867
    106  CB        27.9510  -14.5220   -8.3500 C.3   282  GLN282      0.0367
    107  CG        26.5520  -14.9450   -8.8040 C.3   282  GLN282      0.0905
    108  CD        25.5870  -13.7660   -9.0440 C.2   282  GLN282      0.2608
    109  OE1       24.3700  -13.8960   -8.8770 O.2   282  GLN282     -0.2717
    110  NE2       26.1300  -12.6200   -9.4470 N.am  282  GLN282     -0.0878
    111  N         31.5650  -13.9880  -11.8340 N.3   287  LEU287     -0.1245
    112  CA        31.1870  -12.8170  -12.6210 C.3   287  LEU287      0.1561
    113  C         32.3070  -12.3680  -13.5530 C.2   287  LEU287      0.2260
    114  O         32.0390  -11.8550  -14.6260 O.2   287  LEU287     -0.2867
    115  CB        30.7900  -11.6600  -11.6950 C.3   287  LEU287      0.0270
    116  CG        29.3620  -11.5880  -11.1320 C.3   287  LEU287      0.0019
    117  CD1       28.6370  -12.8860  -11.2380 C.3   287  LEU287      0.0001
    118  CD2       29.3590  -11.0960   -9.6840 C.3   287  LEU287      0.0001
    119  N         32.2880  -15.0060  -16.4250 N.3   290  VAL290     -0.1231
    120  CA        31.0840  -14.8670  -17.2400 C.3   290  VAL290      0.1692
    121  C         31.3120  -13.7690  -18.2730 C.2   290  VAL290      0.2592
    122  O         31.0180  -13.9400  -19.4540 O.2   290  VAL290     -0.2718
    123  CB        29.8160  -14.4810  -16.4250 C.3   290  VAL290      0.0266
    124  CG1       28.6300  -14.3200  -17.3640 C.3   290  VAL290      0.0020
    125  CG2       29.4900  -15.5150  -15.3670 C.3   290  VAL290      0.0020
    126  N         31.8500  -12.6410  -17.8320 N.am  291  THR291     -0.1953
    127  CA        32.0530  -11.5410  -18.7510 C.3   291  THR291      0.1897
    128  C         33.1420  -11.9000  -19.7630 C.2   291  THR291      0.2313
    129  O         33.1880  -11.3270  -20.8720 O.2   291  THR291     -0.2863
    130  CB        32.3490  -10.1670  -18.0510 C.3   291  THR291      0.1794
    131  OG1       33.7380   -9.8630  -18.1230 O.3   291  THR291     -0.2208
    132  CG2       31.8690  -10.1330  -16.6030 C.3   291  THR291      0.0378
    133  N         31.2690  -13.7860  -22.6450 N.3   294  ARG294     -0.1245
    134  CA        30.7300  -12.7470  -23.5030 C.3   294  ARG294      0.1563
    135  C         31.8110  -12.0740  -24.3230 C.2   294  ARG294      0.2260
    136  O         31.7040  -11.9920  -25.5350 O.2   294  ARG294     -0.2867
    137  CB        29.9920  -11.7170  -22.6540 C.3   294  ARG294      0.0307
    138  CG        28.5470  -12.1010  -22.3690 C.3   294  ARG294      0.0489
    139  CD        28.3650  -13.1910  -21.3040 C.3   294  ARG294      0.2205
    140  NE        26.9440  -13.3300  -20.9880 N.pl3 294  ARG294     -0.0865
    141  CZ        26.2450  -12.4480  -20.2700 C.cat 294  ARG294      0.5346
    142  NH1       24.9430  -12.6350  -20.0620 N.pl3 294  ARG294      0.1354
    143  NH2       26.8410  -11.3650  -19.7610 N.pl3 294  ARG294      0.1354
    144  N         30.8060   -6.2560  -21.8610 N.3   354  ALA354     -0.1231
    145  CA        30.4410   -6.1150  -20.4470 C.3   354  ALA354      0.1694
    146  C         29.1450   -5.3470  -20.2830 C.2   354  ALA354      0.2592
    147  O         28.4290   -5.5650  -19.3230 O.2   354  ALA354     -0.2718
    148  CB        31.5380   -5.3860  -19.6760 C.3   354  ALA354      0.0304
    149  N         28.8750   -4.4140  -21.1930 N.am  355  HIS355     -0.1976
    150  CA        27.7370   -3.5210  -21.0450 C.3   355  HIS355      0.1656
    151  C         26.4580   -4.0870  -21.6690 C.2   355  HIS355      0.2291
    152  O         25.4760   -4.2570  -20.9790 O.2   355  HIS355     -0.2864
    153  CB        28.0350   -2.1580  -21.6690 C.3   355  HIS355      0.0771
    154  CG        29.0450   -1.3380  -20.9260 C.ar  355  HIS355      0.0820
    155  ND1       29.9160   -0.4900  -21.5730 N.ar  355  HIS355     -0.2267
    156  CD2       29.3080   -1.2090  -19.6050 C.ar  355  HIS355      0.1154
    157  CE1       30.6890    0.1090  -20.6870 C.ar  355  HIS355      0.1986
    158  NE2       30.3460   -0.3130  -19.4830 N.ar  355  HIS355     -0.2212
    159  N         26.2580   -7.0710  -24.2160 N.3   357  PRO357     -0.2102
    160  CA        26.4700   -8.2710  -25.0510 C.3   357  PRO357      0.1504
    161  C         25.3750   -8.5480  -26.1170 C.2   357  PRO357      0.2575
    162  O         25.6680   -8.5530  -27.3260 O.2   357  PRO357     -0.2718
    163  CB        26.4960   -9.4300  -24.0310 C.3   357  PRO357      0.0282
    164  CG        26.3130   -8.8390  -22.6790 C.3   357  PRO357      0.0208
    165  CD        26.4440   -7.3500  -22.7810 C.3   357  PRO357      0.0893
    166  N         24.1340   -8.7670  -25.6770 N.am  358  GLU358     -0.1980
    167  CA        23.0780   -9.1620  -26.6020 C.3   358  GLU358      0.1602
    168  C         23.0090   -8.2240  -27.7980 C.2   358  GLU358      0.2287
    169  O         23.0300   -8.6760  -28.9440 O.2   358  GLU358     -0.2864
    170  CB        21.7100   -9.2940  -25.9170 C.3   358  GLU358      0.0415
    171  CG        21.1750   -8.0730  -25.1810 C.3   358  GLU358      0.1163
    172  CD        21.2240   -8.1890  -23.6530 C.2   358  GLU358      0.3649
    173  OE1       21.5340   -9.2970  -23.1230 O.co2 358  GLU358     -0.2457
    174  OE2       20.9390   -7.1460  -22.9890 O.co2 358  GLU358     -0.2457
@<TRIPOS>BOND
     1   169   168    2
     2   168   167    1
     3   162   161    2
     4   167   170    1
     5   167   166    1
     6   161   166   am
     7   161   160    1
     8   170   171    1
     9   136   135    2
    10   171   172    1
    11   160   159    1
    12   160   163    1
    13   135   134    1
    14   159   165    1
    15   163   164    1
    16   172   173   ar
    17   172   174   ar
    18   134   137    1
    19   134   133    1
    20   165   164    1
    21   137   138    1
    22   138   139    1
    23   144   145    1
    24   153   150    1
    25   153   154    1
    26   151   150    1
    27   151   152    2
    28   155   154   ar
    29   155   157   ar
    30   139   140    1
    31   149   150    1
    32   149   146   am
    33   140   141    2
    34   154   156   ar
    35   129   128    2
    36   157   158   ar
    37   145   146    1
    38   145   148    1
    39   146   147    2
    40   141   142    1
    41   141   143    1
    42     1     2    1
    43   128   127    1
    44   156   158   ar
    45   122   121    2
    46     6     5    1
    47     6     8    1
    48     2     5    1
    49     2     3    1
    50     5     7    1
    51   127   130    1
    52   127   126    1
    53   121   126   am
    54   121   120    1
    55   131   130    1
    56   130   132    1
    57     3     9   am
    58     3     4    2
    59     9    10    1
    60   124   123    1
    61   120   119    1
    62   120   123    1
    63    11    10    1
    64    11    12    2
    65    10    13    1
    66   123   125    1
    67    13    14    1
    68    15    14   ar
    69    15    17   ar
    70    19    20    1
    71    14    16   ar
    72    17    18   ar
    73    26    24   am
    74    30    29    2
    75    63    61   ar
    76    63    65   ar
    77   114   113    2
    78    20    21    1
    79    20    23    1
    80    54    53    1
    81    54    48    1
    82    16    18   ar
    83    61    60   ar
    84    65    64   ar
    85    21    22    2
    86    24    23    1
    87    24    25    2
    88    29    28    1
    89    53    52    1
    90    27    28    1
    91   113   112    1
    92    28    31    1
    93    31    32    1
    94    31    33    1
    95    48    49    1
    96    46    47    1
    97    46    43    1
    98    60    62   ar
    99    60    59    1
   100    64    62   ar
   101   112   111    1
   102   112   115    1
   103    52    49    1
   104    59    56    1
   105    49    50    1
   106    44    45    2
   107    44    43    1
   108   115   116    1
   109    55    50   am
   110    55    56    1
   111    43    42    1
   112   117   116    1
   113    42    36   am
   114   116   118    1
   115    50    51    2
   116    56    57    1
   117   101   100   ar
   118   101    99   ar
   119    34    35    1
   120   100    98   ar
   121    78    77    1
   122    41    39   ar
   123    99    97   ar
   124    38    35    1
   125    38    39    1
   126    57    58    2
   127    36    35    1
   128    36    37    2
   129    39    40   ar
   130   110   108   am
   131    98    97   ar
   132    97    96    1
   133    77    74    1
   134   108   109    2
   135   108   107    1
   136   107   106    1
   137    72    70    1
   138    70    71    1
   139    70    67    1
   140   106   103    1
   141    74    73    1
   142    74    75    1
   143    73    68   am
   144    96    93    1
   145    68    67    1
   146    68    69    2
   147    67    66    1
   148    90    91    1
   149    90    87    1
   150    75    76    2
   151   103   104    1
   152   103   102    1
   153    89    88    2
   154    93    92    1
   155    93    94    1
   156   104   105    2
   157    88    92   am
   158    88    87    1
   159    87    86    1
   160    94    95    2
   161    86    81   am
   162    83    84    1
   163    83    80    1
   164    83    85    1
   165    79    80    1
   166    81    80    1
   167    81    82    2
