@<TRIPOS>MOLECULE
tmp/3uc5A00.pdb
 163 157 0 0 0
SMALL
GASTEIGER

@<TRIPOS>ATOM
      1  N         38.4490  -11.4720    6.2460 N.3     7  PRO7       -0.2102
      2  CA        38.9220  -11.9480    4.9450 C.3     7  PRO7        0.1504
      3  C         38.8210  -13.4610    4.8580 C.2     7  PRO7        0.2576
      4  O         38.8930  -14.1590    5.8780 O.2     7  PRO7       -0.2718
      5  CB        40.3960  -11.5350    4.9300 C.3     7  PRO7        0.0282
      6  CG        40.7620  -11.2140    6.3820 C.3     7  PRO7        0.0208
      7  CD        39.5380  -11.3480    7.2330 C.3     7  PRO7        0.0893
      8  N         38.6580  -13.9710    3.6470 N.am    8  GLY8       -0.1943
      9  CA        38.6500  -15.4040    3.4490 C.3     8  GLY8        0.2014
     10  C         38.3080  -15.7190    2.0140 C.2     8  GLY8        0.2640
     11  O         37.9940  -14.8160    1.2250 O.2     8  GLY8       -0.2714
     12  N         38.3650  -16.9950    1.6550 N.am    9  SER9       -0.1935
     13  CA        37.9870  -17.3640    0.2980 C.3     9  SER9        0.2055
     14  C         36.4880  -17.6660    0.1780 C.2     9  SER9        0.2643
     15  O         35.9040  -17.4980   -0.8920 O.2     9  SER9       -0.2714
     16  CB        38.8510  -18.5110   -0.2350 C.3     9  SER9        0.2130
     17  OG        38.8830  -19.6030    0.6550 O.3     9  SER9       -0.2179
     18  N         35.8770  -18.0900    1.2840 N.am   10  PHE10      -0.1973
     19  CA        34.4440  -18.4010    1.3270 C.3    10  PHE10       0.1639
     20  C         33.9480  -19.1340    0.0790 C.2    10  PHE10       0.2290
     21  O         33.0970  -18.6340   -0.6600 O.2    10  PHE10      -0.2864
     22  CB        33.6280  -17.1310    1.5780 C.3    10  PHE10       0.0560
     23  CG        34.1450  -16.3050    2.7270 C.ar   10  PHE10      -0.0200
     24  CD1       34.8180  -15.1150    2.4930 C.ar   10  PHE10      -0.0042
     25  CD2       33.9810  -16.7320    4.0330 C.ar   10  PHE10      -0.0042
     26  CE1       35.3100  -14.3540    3.5340 C.ar   10  PHE10      -0.0003
     27  CE2       34.4730  -15.9760    5.0960 C.ar   10  PHE10      -0.0003
     28  CZ        35.1350  -14.7770    4.8460 C.ar   10  PHE10      -0.0000
     29  N         30.2650  -21.0430    5.0090 N.3    14  THR14      -0.1218
     30  CA        29.6350  -22.0870    5.8250 C.3    14  THR14       0.1862
     31  C         28.9260  -21.4590    7.0180 C.2    14  THR14       0.2287
     32  O         29.0320  -20.2540    7.2390 O.2    14  THR14      -0.2866
     33  CB        30.6720  -23.0780    6.3880 C.3    14  THR14       0.1770
     34  OG1       31.4460  -22.4210    7.3930 O.3    14  THR14      -0.2211
     35  CG2       31.6000  -23.5950    5.2940 C.3    14  THR14       0.0375
     36  N         29.7930  -21.9530   10.0270 N.3    16  GLY16      -0.1210
     37  CA        30.9050  -21.5220   10.8610 C.3    16  GLY16       0.1956
     38  C         31.3100  -20.0900   10.5490 C.2    16  GLY16       0.2611
     39  O         31.5360  -19.2800   11.4570 O.2    16  GLY16      -0.2717
     40  N         31.4240  -19.7840    9.2600 N.am   17  HIS17      -0.1975
     41  CA        31.7240  -18.4250    8.8060 C.3    17  HIS17       0.1656
     42  C         30.6690  -17.4070    9.2370 C.2    17  HIS17       0.2291
     43  O         30.9960  -16.3160    9.7220 O.2    17  HIS17      -0.2864
     44  CB        31.8470  -18.3770    7.2830 C.3    17  HIS17       0.0771
     45  CG        33.0350  -19.1120    6.7480 C.ar   17  HIS17       0.0820
     46  ND1       32.9740  -19.8970    5.6150 N.ar   17  HIS17      -0.2267
     47  CD2       34.3120  -19.1900    7.1940 C.ar   17  HIS17       0.1154
     48  CE1       34.1650  -20.4160    5.3780 C.ar   17  HIS17       0.1986
     49  NE2       34.9950  -20.0070    6.3230 N.ar   17  HIS17      -0.2212
     50  N         28.6220  -17.5970   11.6600 N.3    19  ASP19      -0.1225
     51  CA        28.7580  -17.4540   13.1080 C.3    19  ASP19       0.1805
     52  C         29.8120  -16.4000   13.4610 C.2    19  ASP19       0.2597
     53  O         29.5870  -15.5490   14.3240 O.2    19  ASP19      -0.2718
     54  CB        29.1080  -18.8000   13.7500 C.3    19  ASP19       0.1424
     55  CG        29.2480  -18.7120   15.2650 C.2    19  ASP19       0.3668
     56  OD1       30.3560  -18.9710   15.7840 O.co2  19  ASP19      -0.2456
     57  OD2       28.2520  -18.3860   15.9430 O.co2  19  ASP19      -0.2456
     58  N         30.9610  -16.4480   12.7910 N.am   20  ILE20      -0.1980
     59  CA        31.9900  -15.4350   13.0120 C.3    20  ILE20       0.1595
     60  C         31.4990  -14.0410   12.5990 C.2    20  ILE20       0.2287
     61  O         31.7180  -13.0590   13.3240 O.2    20  ILE20      -0.2864
     62  CB        33.2930  -15.7590   12.2610 C.3    20  ILE20       0.0276
     63  CG1       33.8260  -17.1450   12.6640 C.3    20  ILE20       0.0022
     64  CG2       34.3250  -14.6720   12.5080 C.3    20  ILE20       0.0022
     65  CD1       33.8500  -17.4090   14.1580 C.3    20  ILE20       0.0001
     66  N         39.2280  -12.9810   12.5340 N.3    87  LYS87      -0.1231
     67  CA        39.3160  -14.3220   11.9640 C.3    87  LYS87       0.1693
     68  C         38.8800  -15.3450   12.9970 C.2    87  LYS87       0.2593
     69  O         39.0030  -15.1130   14.1910 O.2    87  LYS87      -0.2718
     70  CB        40.7520  -14.6220   11.5490 C.3    87  LYS87       0.0285
     71  CG        41.4120  -13.4590   10.8360 C.3    87  LYS87       0.0035
     72  CD        42.5820  -13.8910   10.0210 C.3    87  LYS87       0.0206
     73  CE        42.1340  -14.5480    8.7300 C.3    87  LYS87       0.1093
     74  NZ        43.3190  -14.8560    7.9170 N.3    87  LYS87      -0.1314
     75  N         38.3750  -16.4830   12.5350 N.am   88  GLY88      -0.1942
     76  CA        37.9760  -17.5390   13.4440 C.3    88  GLY88       0.2014
     77  C         39.0670  -18.5830   13.5910 C.2    88  GLY88       0.2639
     78  O         39.8960  -18.7690   12.6890 O.2    88  GLY88      -0.2714
     79  N         39.0670  -19.2650   14.7290 N.am   89  LEU89      -0.1963
     80  CA        40.0080  -20.3480   14.9780 C.3    89  LEU89       0.1728
     81  C         39.2000  -21.5770   15.3340 C.2    89  LEU89       0.2616
     82  O         38.3700  -21.5190   16.2410 O.2    89  LEU89      -0.2715
     83  CB        40.9180  -20.0050   16.1630 C.3    89  LEU89       0.0311
     84  CG        41.8330  -18.7890   15.9880 C.3    89  LEU89       0.0022
     85  CD1       42.7030  -18.5650   17.2240 C.3    89  LEU89       0.0001
     86  CD2       42.6860  -18.9540   14.7320 C.3    89  LEU89       0.0001
     87  N         39.4230  -22.6820   14.6210 N.am   90  ARG90      -0.1977
     88  CA        38.8490  -23.9600   15.0340 C.3    90  ARG90       0.1597
     89  C         39.8910  -24.7920   15.7670 C.2    90  ARG90       0.2287
     90  O         39.6130  -25.3670   16.8230 O.2    90  ARG90      -0.2864
     91  CB        38.3400  -24.7560   13.8280 C.3    90  ARG90       0.0334
     92  CG        37.3340  -24.0110   12.9630 C.3    90  ARG90       0.0492
     93  CD        37.3060  -24.5650   11.5420 C.3    90  ARG90       0.2205
     94  NE        38.4920  -24.1400   10.7990 N.pl3  90  ARG90      -0.0865
     95  CZ        38.5860  -24.1170    9.4710 C.cat  90  ARG90       0.5346
     96  NH1       37.5590  -24.4870    8.7230 N.pl3  90  ARG90       0.1354
     97  NH2       39.7060  -23.7100    8.8930 N.pl3  90  ARG90       0.1354
     98  N         44.8910  -23.9140   12.7350 N.3    94  ASP94      -0.1239
     99  CA        44.4060  -22.5710   12.4250 C.3    94  ASP94       0.1674
    100  C         45.1960  -21.5920   13.2790 C.2    94  ASP94       0.2266
    101  O         45.6190  -20.5370   12.8280 O.2    94  ASP94      -0.2867
    102  CB        42.9270  -22.4150   12.7850 C.3    94  ASP94       0.1410
    103  CG        41.9840  -23.1410   11.8340 C.2    94  ASP94       0.3668
    104  OD1       40.8130  -23.3060   12.2350 O.co2  94  ASP94      -0.2456
    105  OD2       42.3670  -23.5230   10.6970 O.co2  94  ASP94      -0.2456
    106  N         47.2910  -18.6250   11.6730 N.3    98  GLU98      -0.1245
    107  CA        46.7560  -17.2860   11.8590 C.3    98  GLU98       0.1567
    108  C         47.6560  -16.4290   12.7350 C.2    98  GLU98       0.2260
    109  O         47.7430  -15.2280   12.5260 O.2    98  GLU98      -0.2867
    110  CB        45.3400  -17.3460   12.4260 C.3    98  GLU98       0.0388
    111  CG        44.3600  -18.0350   11.4880 C.3    98  GLU98       0.1160
    112  CD        43.9120  -17.1580   10.3550 C.2    98  GLU98       0.3649
    113  OE1       43.0060  -17.5910    9.6220 O.co2  98  GLU98      -0.2457
    114  OE2       44.4560  -16.0430   10.1980 O.co2  98  GLU98      -0.2457
    115  N         35.7940  -20.9510   17.3590 N.3   118  THR118     -0.1203
    116  CA        34.6850  -21.6060   16.7000 C.3   118  THR118      0.1994
    117  C         33.5930  -21.9490   17.7110 C.2   118  THR118      0.2617
    118  O         33.8720  -22.1700   18.9090 O.2   118  THR118     -0.2717
    119  CB        35.1400  -22.9140   16.0000 C.3   118  THR118      0.1784
    120  OG1       34.0320  -23.4890   15.2980 O.3   118  THR118     -0.2211
    121  CG2       35.6600  -23.9270   17.0270 C.3   118  THR118      0.0376
    122  N         32.3420  -21.9520   17.2560 N.am  119  ALA119     -0.1979
    123  CA        31.2710  -22.5680   18.0360 C.3   119  ALA119      0.1597
    124  C         31.5700  -24.0580   18.0250 C.2   119  ALA119      0.2287
    125  O         31.9840  -24.5940   16.9970 O.2   119  ALA119     -0.2864
    126  CB        29.9040  -22.3020   17.4040 C.3   119  ALA119      0.0319
    127  N         30.3540  -26.3070   15.1290 N.3   122  TYR122     -0.1241
    128  CA        30.8860  -26.1280   13.7780 C.3   122  TYR122      0.1605
    129  C         32.3970  -26.3220   13.6970 C.2   122  TYR122      0.2264
    130  O         33.0210  -25.9400   12.7160 O.2   122  TYR122     -0.2867
    131  CB        30.5330  -24.7360   13.2650 C.3   122  TYR122      0.0534
    132  CG        29.0440  -24.4960   13.1800 C.ar  122  TYR122     -0.0201
    133  CD1       28.4680  -23.3530   13.7180 C.ar  122  TYR122     -0.0009
    134  CD2       28.2120  -25.4280   12.5620 C.ar  122  TYR122     -0.0009
    135  CE1       27.0950  -23.1380   13.6320 C.ar  122  TYR122      0.0417
    136  CE2       26.8500  -25.2280   12.4750 C.ar  122  TYR122      0.0417
    137  CZ        26.2980  -24.0860   13.0100 C.ar  122  TYR122      0.1957
    138  OH        24.9430  -23.9040   12.9190 O.3   122  TYR122     -0.2866
    139  N         33.7460  -28.0830   10.6950 N.3   125  VAL125     -0.1231
    140  CA        33.2290  -27.6160    9.4060 C.3   125  VAL125      0.1692
    141  C         34.2640  -26.7790    8.6680 C.2   125  VAL125      0.2593
    142  O         34.7700  -25.7830    9.1870 O.2   125  VAL125     -0.2718
    143  CB        31.9270  -26.8020    9.5800 C.3   125  VAL125      0.0266
    144  CG1       31.4030  -26.3020    8.2300 C.3   125  VAL125      0.0020
    145  CG2       30.8680  -27.6420   10.2980 C.3   125  VAL125      0.0020
    146  N         34.5850  -27.1890    7.4510 N.am  126  SER126     -0.1938
    147  CA        35.4220  -26.3620    6.5900 C.3   126  SER126      0.2055
    148  C         34.8710  -26.4000    5.1820 C.2   126  SER126      0.2644
    149  O         34.2260  -27.3700    4.8030 O.2   126  SER126     -0.2714
    150  CB        36.8750  -26.8300    6.6170 C.3   126  SER126      0.2130
    151  OG        37.0970  -27.9630    5.8110 O.3   126  SER126     -0.2179
    152  N         35.1120  -25.3440    4.4120 N.am  127  SER127     -0.1935
    153  CA        34.6320  -25.3020    3.0360 C.3   127  SER127      0.2055
    154  C         35.1600  -26.4960    2.2510 C.2   127  SER127      0.2643
    155  O         34.4160  -27.1370    1.5020 O.2   127  SER127     -0.2714
    156  CB        35.0760  -24.0070    2.3410 C.3   127  SER127      0.2130
    157  OG        34.5640  -22.8630    2.9910 O.3   127  SER127     -0.2179
    158  N         36.4490  -26.7830    2.4110 N.am  128  SER128     -0.1949
    159  CA        37.0870  -27.8620    1.6590 C.3   128  SER128      0.1924
    160  C         36.4470  -29.2090    1.9480 C.2   128  SER128      0.2314
    161  O         36.0960  -29.9560    1.0250 O.2   128  SER128     -0.2863
    162  CB        38.5760  -27.9430    1.9850 C.3   128  SER128      0.2116
    163  OG        39.2780  -26.8700    1.3930 O.3   128  SER128     -0.2180
@<TRIPOS>BOND
     1    15    14    2
     2    21    20    2
     3    16    13    1
     4    16    17    1
     5    20    19    1
     6    14    13    1
     7    14    18   am
     8    13    12    1
     9   161   160    2
    10    11    10    2
    11    18    19    1
    12    19    22    1
    13   163   162    1
    14   155   154    2
    15    22    23    1
    16    12    10   am
    17   159   160    1
    18   159   162    1
    19   159   158    1
    20    10     9    1
    21   154   158   am
    22   154   153    1
    23   156   157    1
    24   156   153    1
    25    24    23   ar
    26    24    26   ar
    27    23    25   ar
    28   153   152    1
    29     9     8    1
    30    26    28   ar
    31     8     3   am
    32    25    27   ar
    33   152   148   am
    34   149   148    2
    35    28    27   ar
    36     3     2    1
    37     3     4    2
    38     5     2    1
    39     5     6    1
    40     2     1    1
    41    29    30    1
    42   148   147    1
    43    35    33    1
    44    48    46   ar
    45    48    49   ar
    46    46    45   ar
    47   151   150    1
    48    30    33    1
    49    30    31    1
    50     1     7    1
    51    49    47   ar
    52     6     7    1
    53    33    34    1
    54   147   150    1
    55   147   146    1
    56    45    47   ar
    57    45    44    1
    58    31    32    2
    59    44    41    1
    60   146   141   am
    61    74    73    1
    62   144   143    1
    63   141   142    2
    64   141   140    1
    65    96    95    1
    66    73    72    1
    67    41    42    1
    68    41    40    1
    69    97    95    1
    70    42    43    2
    71    40    38   am
    72   140   143    1
    73   140   139    1
    74    95    94    2
    75   143   145    1
    76   113   112   ar
    77    72    71    1
    78    36    37    1
    79   114   112   ar
    80   112   111    1
    81    38    37    1
    82    38    39    2
    83   105   103   ar
    84    94    93    1
    85    71    70    1
    86   111   110    1
    87    93    92    1
    88    70    67    1
    89    50    51    1
    90   106   107    1
    91   103   104   ar
    92   103   102    1
    93   107   110    1
    94   107   108    1
    95    67    66    1
    96    67    68    1
    97    62    64    1
    98    62    63    1
    99    62    59    1
   100    99    98    1
   101    99   102    1
   102    99   100    1
   103   136   134   ar
   104   136   137   ar
   105   109   108    2
   106    75    68   am
   107    75    76    1
   108   134   132   ar
   109    60    59    1
   110    60    61    2
   111    63    65    1
   112    78    77    2
   113   130   129    2
   114    58    59    1
   115    58    52   am
   116   101   100    2
   117   138   137    1
   118    92    91    1
   119    68    69    2
   120   137   135   ar
   121    51    52    1
   122    51    54    1
   123   132   131    1
   124   132   133   ar
   125   131   128    1
   126    76    77    1
   127    52    53    2
   128    77    79   am
   129   135   133   ar
   130   129   128    1
   131    54    55    1
   132   128   127    1
   133    91    88    1
   134    87    88    1
   135    87    81   am
   136    79    80    1
   137    86    84    1
   138    80    81    1
   139    80    83    1
   140    88    89    1
   141    55    56   ar
   142    55    57   ar
   143   120   119    1
   144    81    82    2
   145    89    90    2
   146    84    83    1
   147    84    85    1
   148   119   116    1
   149   119   121    1
   150   116   115    1
   151   116   117    1
   152   125   124    2
   153   122   117   am
   154   122   123    1
   155   126   123    1
   156   117   118    2
   157   124   123    1
