@<TRIPOS>MOLECULE
tmp/3ucjA00.pdb
 85 80 0 0 0
SMALL
GASTEIGER

@<TRIPOS>ATOM
      1  N         70.7510   44.5240  105.3320 N.3    42  CYS42      -0.1221
      2  CA        71.1980   45.9340  105.3100 C.3    42  CYS42       0.1808
      3  C         71.2840   46.4990  103.8880 C.2    42  CYS42       0.2601
      4  O         71.6320   45.7270  102.9580 O.2    42  CYS42      -0.2717
      5  CB        72.6040   46.0390  106.0220 C.3    42  CYS42       0.0970
      6  SG        72.9140   47.7770  106.2390 S.3    42  CYS42      -0.0800
      7  N         71.0380   47.8130  103.7020 N.am   43  ALA43      -0.1965
      8  CA        71.0840   48.4740  102.4710 C.3    43  ALA43       0.1728
      9  C         72.5550   48.6320  101.9530 C.2    43  ALA43       0.2616
     10  O         72.7600   48.9610  100.8420 O.2    43  ALA43      -0.2715
     11  CB        70.4130   49.8730  102.6040 C.3    43  ALA43       0.0334
     12  N         73.5270   48.3430  102.8080 N.am   44  ASP44      -0.1971
     13  CA        74.9920   48.4140  102.4800 C.3    44  ASP44       0.1709
     14  C         75.2770   47.7670  101.1110 C.2    44  ASP44       0.2293
     15  O         74.8710   46.6430  100.8590 O.2    44  ASP44      -0.2864
     16  CB        75.7130   47.6250  103.5730 C.3    44  ASP44       0.1436
     17  CG        77.2600   47.8130  103.5100 C.2    44  ASP44       0.3671
     18  OD1       77.8540   47.4660  102.4740 O.co2  44  ASP44      -0.2456
     19  OD2       77.8080   48.3950  104.4600 O.co2  44  ASP44      -0.2456
     20  N         68.7330   50.6020  106.2280 N.3    66  VAL66      -0.1245
     21  CA        69.9680   50.8570  107.0170 C.3    66  VAL66       0.1561
     22  C         69.9810   50.1590  108.3580 C.2    66  VAL66       0.2260
     23  O         69.1450   50.4060  109.2680 O.2    66  VAL66      -0.2867
     24  CB        70.1350   52.4470  107.1770 C.3    66  VAL66       0.0252
     25  CG1       71.1530   52.7340  108.3410 C.3    66  VAL66       0.0019
     26  CG2       70.4300   53.1090  105.8190 C.3    66  VAL66       0.0019
     27  N         75.4450   42.2620  109.0270 N.3    98  HIS98      -0.1241
     28  CA        76.7780   42.0710  108.4170 C.3    98  HIS98       0.1621
     29  C         77.8790   42.7770  109.2490 C.2    98  HIS98       0.2264
     30  O         77.6880   43.8840  109.8010 O.2    98  HIS98      -0.2867
     31  CB        76.8140   42.5840  106.9780 C.3    98  HIS98       0.0745
     32  CG        76.7090   44.0700  106.8700 C.ar   98  HIS98       0.0817
     33  ND1       77.7910   44.9110  106.6730 N.ar   98  HIS98      -0.2268
     34  CD2       75.6180   44.8800  106.9380 C.ar   98  HIS98       0.1154
     35  CE1       77.3610   46.1670  106.5850 C.ar   98  HIS98       0.1986
     36  NE2       76.0500   46.1700  106.7380 N.ar   98  HIS98      -0.2212
     37  N         79.2500   47.0040  109.6220 N.3   101  CYS101     -0.1221
     38  CA        77.9710   47.7030  109.3660 C.3   101  CYS101      0.1808
     39  C         78.0810   49.0350  110.0580 C.2   101  CYS101      0.2602
     40  O         78.0510   49.0880  111.2800 O.2   101  CYS101     -0.2717
     41  CB        76.8290   46.8760  109.9750 C.3   101  CYS101      0.0970
     42  SG        75.2050   47.8220  109.7180 S.3   101  CYS101     -0.0800
     43  N         78.2540   50.0630  109.2680 N.am  102  GLY102     -0.1942
     44  CA        78.2990   51.3990  109.7370 C.3   102  GLY102      0.2014
     45  C         77.0730   51.8470  110.4980 C.2   102  GLY102      0.2638
     46  O         77.1910   52.7550  111.3470 O.2   102  GLY102     -0.2714
     47  N         75.9150   51.2250  110.2640 N.am  103  ALA103     -0.1977
     48  CA        74.7510   51.6450  111.0420 C.3   103  ALA103      0.1597
     49  C         74.9300   51.1750  112.4520 C.2   103  ALA103      0.2287
     50  O         74.5370   51.8690  113.3960 O.2   103  ALA103     -0.2864
     51  CB        73.3920   51.0110  110.4200 C.3   103  ALA103      0.0319
     52  N         77.5300   53.5160  114.1130 N.3   106  ALA106     -0.1245
     53  CA        76.9030   54.7930  114.4600 C.3   106  ALA106      0.1562
     54  C         75.9790   54.6090  115.6900 C.2   106  ALA106      0.2260
     55  O         75.9630   55.4450  116.5800 O.2   106  ALA106     -0.2867
     56  CB        76.1370   55.3630  113.2490 C.3   106  ALA106      0.0290
     57  N         77.3630   57.3950  117.9950 N.3   110  TRP110     -0.1241
     58  CA        76.8230   58.7360  117.8120 C.3   110  TRP110      0.1605
     59  C         76.1480   59.2350  119.0980 C.2   110  TRP110      0.2264
     60  O         75.4640   58.4490  119.8360 O.2   110  TRP110     -0.2867
     61  CB        75.7740   58.8040  116.6860 C.3   110  TRP110      0.0550
     62  CG        76.3450   58.8370  115.2860 C.ar  110  TRP110      0.0003
     63  CD1       77.6910   58.6180  114.9060 C.ar  110  TRP110      0.0946
     64  CD2       75.6550   59.1720  114.0870 C.ar  110  TRP110      0.0152
     65  NE1       77.8110   58.7530  113.5530 N.ar  110  TRP110     -0.2442
     66  CE2       76.5960   59.1030  113.0200 C.ar  110  TRP110      0.0810
     67  CE3       74.3220   59.5280  113.8010 C.ar  110  TRP110      0.0012
     68  CZ2       76.2320   59.3920  111.6840 C.ar  110  TRP110      0.0191
     69  CZ3       73.9600   59.7880  112.5160 C.ar  110  TRP110      0.0001
     70  CH2       74.8860   59.7490  111.4640 C.ar  110  TRP110      0.0015
     71  N         68.7970   59.7770  109.4940 N.3   118  THR118     -0.1218
     72  CA        69.4430   58.5480  109.7680 C.3   118  THR118      0.1862
     73  C         69.6070   58.3520  111.2820 C.2   118  THR118      0.2287
     74  O         69.4750   57.2380  111.8060 O.2   118  THR118     -0.2866
     75  CB        70.8490   58.4780  109.0860 C.3   118  THR118      0.1770
     76  OG1       70.6960   58.7080  107.6940 O.3   118  THR118     -0.2211
     77  CG2       71.4790   57.1250  109.2860 C.3   118  THR118      0.0375
     78  N         68.2970   54.9710  113.3110 N.3   122  ILE122     -0.1245
     79  CA        69.0110   54.0000  114.0670 C.3   122  ILE122      0.1561
     80  C         68.7530   54.0390  115.5550 C.2   122  ILE122      0.2260
     81  O         69.4340   53.3290  116.3130 O.2   122  ILE122     -0.2867
     82  CB        70.6210   54.1750  113.7630 C.3   122  ILE122      0.0252
     83  CG1       71.0390   55.5430  114.3470 C.3   122  ILE122      0.0019
     84  CG2       70.8290   54.0050  112.2460 C.3   122  ILE122      0.0019
     85  CD1       72.6650   55.6790  114.3090 C.3   122  ILE122      0.0001
@<TRIPOS>BOND
     1    10     9    2
     2    15    14    2
     3    14    13    1
     4     9     8    1
     5     9    12   am
     6     8    11    1
     7     8     7    1
     8    18    17   ar
     9    13    12    1
    10    13    16    1
    11     4     3    2
    12    17    16    1
    13    17    19   ar
    14     7     3   am
    15     3     2    1
    16     2     1    1
    17     2     5    1
    18    26    24    1
    19     5     6    1
    20    20    21    1
    21    35    33   ar
    22    35    36   ar
    23    33    32   ar
    24    36    34   ar
    25    32    34   ar
    26    32    31    1
    27    31    28    1
    28    21    24    1
    29    21    22    1
    30    24    25    1
    31    76    75    1
    32    22    23    2
    33    28    27    1
    34    28    29    1
    35    75    77    1
    36    75    72    1
    37    29    30    2
    38    43    44    1
    39    43    39   am
    40    38    37    1
    41    38    41    1
    42    38    39    1
    43    71    72    1
    44    42    41    1
    45    44    45    1
    46    72    73    1
    47    39    40    2
    48    47    45   am
    49    47    48    1
    50    51    48    1
    51    45    46    2
    52    48    49    1
    53    73    74    2
    54    70    68   ar
    55    70    69   ar
    56    68    66   ar
    57    84    82    1
    58    49    50    2
    59    69    67   ar
    60    66    65   ar
    61    66    64   ar
    62    56    53    1
    63    78    79    1
    64    65    63   ar
    65    82    79    1
    66    82    83    1
    67    67    64   ar
    68    79    80    1
    69    64    62   ar
    70    52    53    1
    71    85    83    1
    72    53    54    1
    73    63    62   ar
    74    62    61    1
    75    80    81    2
    76    54    55    2
    77    61    58    1
    78    58    57    1
    79    58    59    1
    80    59    60    2
