@<TRIPOS>MOLECULE
tmp/3ucqA00.pdb
 136 130 0 0 0
SMALL
GASTEIGER

@<TRIPOS>ATOM
      1  N         37.1890   36.7290  -30.5200 N.3   226  ILE226     -0.1231
      2  CA        36.3540   36.4600  -29.3310 C.3   226  ILE226      0.1692
      3  C         37.2160   36.4560  -28.0620 C.2   226  ILE226      0.2592
      4  O         36.8430   37.0440  -27.0210 O.2   226  ILE226     -0.2718
      5  CB        35.5580   35.0970  -29.4550 C.3   226  ILE226      0.0266
      6  CG1       34.6360   35.0910  -30.7160 C.3   226  ILE226      0.0019
      7  CG2       34.7970   34.7500  -28.0680 C.3   226  ILE226      0.0020
      8  CD1       33.7320   36.3610  -30.8800 C.3   226  ILE226      0.0001
      9  N         38.3760   35.7970  -28.1450 N.am  227  PHE227     -0.1976
     10  CA        39.2220   35.6600  -26.9600 C.3   227  PHE227      0.1639
     11  C         40.6450   36.1470  -27.1820 C.2   227  PHE227      0.2290
     12  O         41.5560   35.3230  -27.0980 O.2   227  PHE227     -0.2864
     13  CB        39.3090   34.2010  -26.4930 C.3   227  PHE227      0.0560
     14  CG        38.0340   33.6300  -25.8870 C.ar  227  PHE227     -0.0200
     15  CD1       37.2120   34.4140  -25.0500 C.ar  227  PHE227     -0.0042
     16  CD2       37.7110   32.3020  -26.0980 C.ar  227  PHE227     -0.0042
     17  CE1       36.0620   33.9030  -24.4840 C.ar  227  PHE227     -0.0003
     18  CE2       36.5850   31.7350  -25.5010 C.ar  227  PHE227     -0.0003
     19  CZ        35.7250   32.5560  -24.7000 C.ar  227  PHE227     -0.0000
     20  N         37.2400   29.9000  -30.6730 N.3   253  PHE253     -0.1241
     21  CA        37.3450   30.1690  -29.2530 C.3   253  PHE253      0.1605
     22  C         38.7880   29.8860  -28.7530 C.2   253  PHE253      0.2264
     23  O         39.7680   30.4940  -29.2510 O.2   253  PHE253     -0.2867
     24  CB        36.1700   29.4750  -28.5160 C.3   253  PHE253      0.0534
     25  CG        34.7740   29.9690  -29.0170 C.ar  253  PHE253     -0.0203
     26  CD1       34.2770   31.1920  -28.5950 C.ar  253  PHE253     -0.0042
     27  CD2       34.0400   29.2200  -29.9520 C.ar  253  PHE253     -0.0042
     28  CE1       33.0200   31.6510  -29.0150 C.ar  253  PHE253     -0.0003
     29  CE2       32.8150   29.6400  -30.3990 C.ar  253  PHE253     -0.0003
     30  CZ        32.2910   30.8800  -29.9550 C.ar  253  PHE253     -0.0000
     31  N         20.2580   23.5480  -24.7220 N.3   287  ARG287     -0.1245
     32  CA        20.8270   24.8500  -24.9910 C.3   287  ARG287      0.1563
     33  C         21.8260   24.6530  -26.1490 C.2   287  ARG287      0.2260
     34  O         22.8360   23.8750  -26.0300 O.2   287  ARG287     -0.2867
     35  CB        21.5610   25.3220  -23.7200 C.3   287  ARG287      0.0307
     36  CG        22.3130   26.6220  -23.8890 C.3   287  ARG287      0.0489
     37  CD        23.0470   26.9640  -22.5490 C.3   287  ARG287      0.2205
     38  NE        23.6510   28.3320  -22.6300 N.pl3 287  ARG287     -0.0865
     39  CZ        24.8190   28.5830  -23.2190 C.cat 287  ARG287      0.5346
     40  NH1       25.5250   27.5840  -23.7180 N.pl3 287  ARG287      0.1354
     41  NH2       25.3380   29.8190  -23.2310 N.pl3 287  ARG287      0.1354
     42  N         24.6630   25.8520  -27.7550 N.3   289  ASP289     -0.1239
     43  CA        25.8090   26.7100  -27.3990 C.3   289  ASP289      0.1674
     44  C         26.4520   27.2730  -28.6680 C.2   289  ASP289      0.2266
     45  O         26.6860   26.5010  -29.6160 O.2   289  ASP289     -0.2867
     46  CB        26.8600   25.8650  -26.6490 C.3   289  ASP289      0.1410
     47  CG        28.1010   26.6870  -26.3090 C.2   289  ASP289      0.3668
     48  OD1       27.9780   27.6250  -25.4940 O.co2 289  ASP289     -0.2456
     49  OD2       29.1880   26.4230  -26.8680 O.co2 289  ASP289     -0.2456
     50  N         27.4940   30.5420  -34.6950 N.3   293  PHE293     -0.1241
     51  CA        28.8170   30.3450  -35.2390 C.3   293  PHE293      0.1605
     52  C         28.9330   29.1580  -36.2220 C.2   293  PHE293      0.2264
     53  O         29.9580   28.9950  -36.9230 O.2   293  PHE293     -0.2867
     54  CB        29.8730   30.2110  -34.1190 C.3   293  PHE293      0.0534
     55  CG        30.1040   31.4760  -33.3460 C.ar  293  PHE293     -0.0203
     56  CD1       31.1260   32.3490  -33.6920 C.ar  293  PHE293     -0.0042
     57  CD2       29.2950   31.7870  -32.2420 C.ar  293  PHE293     -0.0042
     58  CE1       31.3330   33.5470  -32.9280 C.ar  293  PHE293     -0.0003
     59  CE2       29.5030   32.9340  -31.4780 C.ar  293  PHE293     -0.0003
     60  CZ        30.4860   33.8490  -31.8390 C.ar  293  PHE293     -0.0000
     61  N         21.1830   30.0650  -27.8570 N.3   331  GLU331     -0.1245
     62  CA        22.0410   31.0980  -27.3030 C.3   331  GLU331      0.1567
     63  C         22.6910   31.8790  -28.4710 C.2   331  GLU331      0.2260
     64  O         23.6270   31.3450  -29.1250 O.2   331  GLU331     -0.2867
     65  CB        23.1770   30.4210  -26.5020 C.3   331  GLU331      0.0388
     66  CG        24.0650   31.4680  -25.8350 C.3   331  GLU331      0.1160
     67  CD        25.4270   31.6050  -26.4560 C.2   331  GLU331      0.3649
     68  OE1       25.8180   32.7770  -26.6190 O.co2 331  GLU331     -0.2457
     69  OE2       26.1260   30.5900  -26.7300 O.co2 331  GLU331     -0.2457
     70  N         24.0030   36.0220  -29.6650 N.3   333  ILE333     -0.1245
     71  CA        24.1820   37.4860  -29.3860 C.3   333  ILE333      0.1561
     72  C         24.1410   38.2860  -30.6730 C.2   333  ILE333      0.2260
     73  O         25.1670   38.4610  -31.3520 O.2   333  ILE333     -0.2867
     74  CB        25.4660   37.7620  -28.6090 C.3   333  ILE333      0.0252
     75  CG1       25.3420   37.0800  -27.2310 C.3   333  ILE333      0.0019
     76  CG2       25.6900   39.2820  -28.4410 C.3   333  ILE333      0.0019
     77  CD1       26.6110   37.0160  -26.4380 C.3   333  ILE333      0.0001
     78  N         27.0830   32.1900  -16.3600 N.3   400  HIS400     -0.1226
     79  CA        28.4950   31.7620  -16.3190 C.3   400  HIS400      0.1752
     80  C         29.4380   32.6380  -17.1230 C.2   400  HIS400      0.2596
     81  O         30.6480   32.5580  -16.9370 O.2   400  HIS400     -0.2718
     82  CB        28.6490   30.3360  -16.8210 C.3   400  HIS400      0.0759
     83  CG        28.3720   30.1570  -18.2930 C.ar  400  HIS400      0.0818
     84  ND1       27.1180   30.2970  -18.8410 N.ar  400  HIS400     -0.2268
     85  CD2       29.2000   29.8540  -19.3220 C.ar  400  HIS400      0.1154
     86  CE1       27.1710   30.0580  -20.1400 C.ar  400  HIS400      0.1986
     87  NE2       28.4250   29.7670  -20.4490 N.ar  400  HIS400     -0.2212
     88  N         28.8980   33.4180  -18.0720 N.am  401  ASP401     -0.1960
     89  CA        29.7750   34.2180  -18.9300 C.3   401  ASP401      0.1840
     90  C         29.9500   35.6420  -18.4590 C.2   401  ASP401      0.2622
     91  O         29.1660   36.1450  -17.6180 O.2   401  ASP401     -0.2715
     92  CB        29.2510   34.2310  -20.3360 C.3   401  ASP401      0.1450
     93  CG        29.8480   33.1180  -21.1870 C.2   401  ASP401      0.3671
     94  OD1       30.9300   32.5720  -20.8440 O.co2 401  ASP401     -0.2456
     95  OD2       29.2150   32.8170  -22.2030 O.co2 401  ASP401     -0.2456
     96  N         30.9650   36.3070  -19.0280 N.am  402  ASP402     -0.1971
     97  CA        31.1080   37.7240  -18.8620 C.3   402  ASP402      0.1709
     98  C         29.8940   38.4420  -19.4900 C.2   402  ASP402      0.2293
     99  O         29.1160   37.8510  -20.2300 O.2   402  ASP402     -0.2864
    100  CB        32.3640   38.1600  -19.6570 C.3   402  ASP402      0.1436
    101  CG        32.3410   37.6040  -21.1060 C.2   402  ASP402      0.3671
    102  OD1       32.1560   36.3850  -21.2470 O.co2 402  ASP402     -0.2456
    103  OD2       32.4290   38.3620  -22.0890 O.co2 402  ASP402     -0.2456
    104  N         37.2450   41.9420  -18.7400 N.3   444  PHE444     -0.1241
    105  CA        37.4550   40.6630  -19.4230 C.3   444  PHE444      0.1605
    106  C         37.7440   40.9000  -20.8880 C.2   444  PHE444      0.2264
    107  O         36.9900   41.6080  -21.5490 O.2   444  PHE444     -0.2867
    108  CB        36.1850   39.7450  -19.2580 C.3   444  PHE444      0.0534
    109  CG        36.3550   38.3550  -19.8120 C.ar  444  PHE444     -0.0203
    110  CD1       37.3240   37.4950  -19.2640 C.ar  444  PHE444     -0.0042
    111  CD2       35.5720   37.9120  -20.8980 C.ar  444  PHE444     -0.0042
    112  CE1       37.5220   36.2160  -19.7520 C.ar  444  PHE444     -0.0003
    113  CE2       35.7480   36.6120  -21.3880 C.ar  444  PHE444     -0.0003
    114  CZ        36.7100   35.7770  -20.8270 C.ar  444  PHE444     -0.0000
    115  N         34.6700   43.4910  -22.0750 N.3   454  ARG454     -0.1245
    116  CA        33.5390   42.8770  -21.3540 C.3   454  ARG454      0.1563
    117  C         33.8220   42.8840  -19.8410 C.2   454  ARG454      0.2260
    118  O         34.8840   43.3100  -19.4070 O.2   454  ARG454     -0.2867
    119  CB        33.3320   41.4700  -21.8740 C.3   454  ARG454      0.0307
    120  CG        32.9150   41.4960  -23.3670 C.3   454  ARG454      0.0489
    121  CD        34.0940   40.9630  -24.2290 C.3   454  ARG454      0.2205
    122  NE        34.1180   39.4860  -24.1340 N.pl3 454  ARG454     -0.0865
    123  CZ        34.7830   38.7470  -25.0180 C.cat 454  ARG454      0.5346
    124  NH1       35.5500   39.3500  -25.9720 N.pl3 454  ARG454      0.1354
    125  NH2       34.7290   37.4410  -24.9310 N.pl3 454  ARG454      0.1354
    126  N         36.3760   34.9490  -15.6590 N.3   525  ARG525     -0.1245
    127  CA        34.9660   34.5450  -15.5370 C.3   525  ARG525      0.1563
    128  C         34.7970   33.6130  -14.3340 C.2   525  ARG525      0.2260
    129  O         33.7020   33.5250  -13.7910 O.2   525  ARG525     -0.2867
    130  CB        34.4800   33.8090  -16.7990 C.3   525  ARG525      0.0307
    131  CG        34.2530   34.7830  -18.0090 C.3   525  ARG525      0.0489
    132  CD        33.9290   33.9930  -19.2500 C.3   525  ARG525      0.2205
    133  NE        34.9920   33.0270  -19.6470 N.pl3 525  ARG525     -0.0865
    134  CZ        34.8850   32.2050  -20.7100 C.cat 525  ARG525      0.5346
    135  NH1       33.7460   32.1820  -21.4580 N.pl3 525  ARG525      0.1354
    136  NH2       35.9050   31.4040  -21.0560 N.pl3 525  ARG525      0.1354
@<TRIPOS>BOND
     1    53    52    2
     2    52    51    1
     3    51    50    1
     4    51    54    1
     5    54    55    1
     6    56    55   ar
     7    56    58   ar
     8    55    57   ar
     9    58    60   ar
    10    57    59   ar
    11    60    59   ar
    12    73    72    2
    13     8     6    1
    14     6     5    1
    15    20    21    1
    16    72    71    1
    17     1     2    1
    18    29    30   ar
    19    29    27   ar
    20    30    28   ar
    21    27    25   ar
    22    70    71    1
    23    45    44    2
    24     5     2    1
    25     5     7    1
    26    71    74    1
    27     2     3    1
    28    21    22    1
    29    21    24    1
    30    23    22    2
    31    64    63    2
    32    25    26   ar
    33    25    24    1
    34    28    26   ar
    35    44    43    1
    36    74    76    1
    37    74    75    1
    38    63    62    1
    39     9     3   am
    40     9    10    1
    41     3     4    2
    42    61    62    1
    43    42    43    1
    44    43    46    1
    45    62    65    1
    46    75    77    1
    47    11    12    2
    48    11    10    1
    49    10    13    1
    50    49    47   ar
    51    69    67   ar
    52    46    47    1
    53    68    67   ar
    54    65    66    1
    55    13    14    1
    56    67    66    1
    57    47    48   ar
    58    33    34    2
    59    33    32    1
    60    16    14   ar
    61    16    18   ar
    62   124   123    1
    63    14    15   ar
    64    18    19   ar
    65    15    17   ar
    66   123   125    1
    67   123   122    2
    68    32    31    1
    69    32    35    1
    70    19    17   ar
    71   121   122    1
    72   121   120    1
    73    36    35    1
    74    36    37    1
    75    40    39    1
    76   120   119    1
    77    41    39    1
    78    39    38    2
    79    38    37    1
    80    95    93   ar
    81   103   101   ar
    82   115   116    1
    83   119   116    1
    84   107   106    2
    85   135   134    1
    86   113   111   ar
    87   113   114   ar
    88   116   117    1
    89   102   101   ar
    90    93    94   ar
    91    93    92    1
    92   101   100    1
    93   136   134    1
    94   111   109   ar
    95   106   105    1
    96   114   112   ar
    97   134   133    2
    98    87    86   ar
    99    87    85   ar
   100    92    89    1
   101    99    98    2
   102    86    84   ar
   103   117   118    2
   104   109   110   ar
   105   109   108    1
   106   112   110   ar
   107   100    97    1
   108   133   132    1
   109    98    97    1
   110   105   108    1
   111   105   104    1
   112    85    83   ar
   113   132   131    1
   114    96    97    1
   115    96    90   am
   116    89    90    1
   117    89    88    1
   118    84    83   ar
   119    90    91    2
   120    83    82    1
   121    88    80   am
   122   131   130    1
   123    80    81    2
   124    80    79    1
   125    82    79    1
   126   130   127    1
   127    78    79    1
   128   126   127    1
   129   127   128    1
   130   128   129    2
