@<TRIPOS>MOLECULE
tmp/3ud5A00.pdb
 208 201 0 0 0
SMALL
GASTEIGER

@<TRIPOS>ATOM
      1  N         13.9150   -5.1540    7.8060 N.3     8  GLY8       -0.1225
      2  CA        12.4960   -4.8950    7.6560 C.3     8  GLY8        0.1811
      3  C         11.9740   -5.2520    6.2600 C.2     8  GLY8        0.2280
      4  O         12.6670   -5.0800    5.2590 O.2     8  GLY8       -0.2866
      5  N          4.9390   -5.3480   13.0840 N.3    42  THR42      -0.1204
      6  CA         4.7220   -3.9950   13.5420 C.3    42  THR42       0.1979
      7  C          3.8910   -3.2020   12.5440 C.2    42  THR42       0.2460
      8  O          4.0690   -3.3330   11.3420 O.2    42  THR42      -0.2732
      9  CB         6.0650   -3.3150   13.8110 C.3    42  THR42       0.1783
     10  OG1        6.8190   -3.2250   12.6020 O.3    42  THR42      -0.2211
     11  CG2        6.8820   -4.1460   14.8020 C.3    42  THR42       0.0376
     12  N          2.9730   -2.3620   13.0390 N.am   43  PRO43      -0.2718
     13  CA         2.2140   -1.4600   12.1590 C.3    43  PRO43       0.1520
     14  C          3.1500   -0.5040   11.4370 C.2    43  PRO43       0.2440
     15  O          4.1690   -0.1130   12.0090 O.2    43  PRO43      -0.2731
     16  CB         1.3620   -0.6350   13.1270 C.3    43  PRO43       0.0310
     17  CG         1.5410   -1.2370   14.4580 C.3    43  PRO43       0.0237
     18  CD         2.7880   -2.0430   14.4600 C.3    43  PRO43       0.0939
     19  N          2.7940   -0.0810   10.2170 N.am   44  PRO44      -0.2716
     20  CA         3.6830    0.8680    9.5360 C.3    44  PRO44       0.1536
     21  C          3.6520    2.2620   10.1860 C.2    44  PRO44       0.2598
     22  O          2.6110    2.6560   10.7120 O.2    44  PRO44      -0.2715
     23  CB         3.1180    0.9240    8.1050 C.3    44  PRO44       0.0310
     24  CG         1.7700    0.1920    8.1470 C.3    44  PRO44       0.0237
     25  CD         1.4780   -0.1820    9.5610 C.3    44  PRO44       0.0939
     26  N          4.7810    2.9710   10.1790 N.am   45  LEU45      -0.1978
     27  CA         4.8030    4.3960   10.5070 C.3    45  LEU45       0.1596
     28  C          3.8820    5.1250    9.5290 C.2    45  LEU45       0.2287
     29  O          4.0180    4.9580    8.3140 O.2    45  LEU45      -0.2864
     30  CB         6.2240    4.9590   10.3710 C.3    45  LEU45       0.0297
     31  CG         7.2960    4.5450   11.3810 C.3    45  LEU45       0.0022
     32  CD1        8.6680    5.1060   11.0020 C.3    45  LEU45       0.0001
     33  CD2        6.9100    5.0070   12.7720 C.3    45  LEU45       0.0001
     34  N          4.8630   -4.4030    8.8180 N.3    53  TYR53      -0.1241
     35  CA         6.2550   -4.7420    8.5820 C.3    53  TYR53       0.1605
     36  C          6.6280   -5.9640    9.4010 C.2    53  TYR53       0.2264
     37  O          6.1820   -6.1350   10.5230 O.2    53  TYR53      -0.2867
     38  CB         7.1650   -3.6060    9.0230 C.3    53  TYR53       0.0534
     39  CG         7.4770   -2.5720    7.9890 C.ar   53  TYR53      -0.0201
     40  CD1        6.5840   -1.5440    7.7100 C.ar   53  TYR53      -0.0009
     41  CD2        8.6990   -2.5830    7.3280 C.ar   53  TYR53      -0.0009
     42  CE1        6.8890   -0.5780    6.7890 C.ar   53  TYR53       0.0417
     43  CE2        9.0180   -1.6170    6.4080 C.ar   53  TYR53       0.0417
     44  CZ         8.1100   -0.6190    6.1350 C.ar   53  TYR53       0.1957
     45  OH         8.4320    0.3330    5.2050 O.3    53  TYR53      -0.2866
     46  N          9.8700   -7.0060   11.2220 N.3    55  ASN55      -0.1240
     47  CA        11.1490   -6.5320   11.7260 C.3    55  ASN55       0.1653
     48  C         11.9330   -7.5490   12.5330 C.2    55  ASN55       0.2266
     49  O         11.3600   -8.2730   13.3470 O.2    55  ASN55      -0.2867
     50  CB        10.9190   -5.3230   12.6310 C.3    55  ASN55       0.1155
     51  CG        10.6390   -4.0420   11.8230 C.2    55  ASN55       0.2627
     52  OD1        9.5670   -3.4520   11.9210 O.2    55  ASN55      -0.2716
     53  ND2       11.5990   -3.6300   11.0320 N.am   55  ASN55      -0.0877
     54  N         28.4460   -2.0890    4.2340 N.3    70  LEU70      -0.1245
     55  CA        27.3400   -1.3580    3.6440 C.3    70  LEU70       0.1561
     56  C         27.1800   -1.6760    2.1880 C.2    70  LEU70       0.2260
     57  O         26.0600   -1.7950    1.7080 O.2    70  LEU70      -0.2867
     58  CB        27.5350    0.1560    3.8230 C.3    70  LEU70       0.0270
     59  CG        26.4540    1.0580    3.2250 C.3    70  LEU70       0.0019
     60  CD1       25.0930    0.8020    3.9050 C.3    70  LEU70       0.0001
     61  CD2       26.8570    2.5680    3.3650 C.3    70  LEU70       0.0001
     62  N         23.7860   -3.1610    0.6660 N.3    74  GLN74      -0.1245
     63  CA        23.1320   -2.5260   -0.4640 C.3    74  GLN74       0.1566
     64  C         23.0050   -3.4640   -1.6630 C.2    74  GLN74       0.2260
     65  O         22.0010   -3.4390   -2.3570 O.2    74  GLN74      -0.2867
     66  CB        23.8390   -1.2070   -0.8520 C.3    74  GLN74       0.0367
     67  CG        23.6520   -0.1450    0.2200 C.3    74  GLN74       0.0905
     68  CD        24.2640    1.1940   -0.1490 C.2    74  GLN74       0.2608
     69  OE1       25.0970    1.2790   -1.0450 O.2    74  GLN74      -0.2717
     70  NE2       23.8400    2.2420    0.5430 N.am   74  GLN74      -0.0878
     71  N         19.9950   -5.7380   -0.9270 N.3    77  GLU77      -0.1245
     72  CA        18.7380   -5.0260   -1.2020 C.3    77  GLU77       0.1567
     73  C         18.4130   -4.9720   -2.7000 C.2    77  GLU77       0.2260
     74  O         17.2620   -5.1290   -3.0980 O.2    77  GLU77      -0.2867
     75  CB        18.7800   -3.5930   -0.6430 C.3    77  GLU77       0.0388
     76  CG        18.7460   -3.4730    0.8850 C.3    77  GLU77       0.1160
     77  CD        18.9930   -2.0500    1.4200 C.2    77  GLU77       0.3649
     78  OE1       19.5800   -1.2300    0.6940 O.co2  77  GLU77      -0.2457
     79  OE2       18.6020   -1.7570    2.5770 O.co2  77  GLU77      -0.2457
     80  N         10.6630   -1.9810   -4.1320 N.3    92  ARG92      -0.1245
     81  CA        11.5650   -2.4830   -3.1210 C.3    92  ARG92       0.1563
     82  C         10.7590   -2.5920   -1.8240 C.2    92  ARG92       0.2260
     83  O         10.0570   -1.6370   -1.4340 O.2    92  ARG92      -0.2867
     84  CB        12.7840   -1.5740   -2.9330 C.3    92  ARG92       0.0307
     85  CG        13.8450   -2.1650   -1.9670 C.3    92  ARG92       0.0489
     86  CD        15.0070   -1.1990   -1.6950 C.3    92  ARG92       0.2205
     87  NE        15.0970   -0.8700   -0.2740 N.pl3  92  ARG92      -0.0865
     88  CZ        16.1100   -0.2340    0.3050 C.cat  92  ARG92       0.5346
     89  NH1       17.1580    0.1620   -0.4110 N.pl3  92  ARG92       0.1354
     90  NH2       16.0740   -0.0020    1.6130 N.pl3  92  ARG92       0.1354
     91  N         14.4180   -3.6290    3.6200 N.3    95  ASP95      -0.1225
     92  CA        15.4110   -2.7020    4.1420 C.3    95  ASP95       0.1805
     93  C         16.3890   -3.4210    5.0190 C.2    95  ASP95       0.2598
     94  O         16.0050   -4.2540    5.8420 O.2    95  ASP95      -0.2718
     95  CB        14.7580   -1.6320    5.0290 C.3    95  ASP95       0.1424
     96  CG        13.6600   -0.8960    4.3270 C.2    95  ASP95       0.3668
     97  OD1       13.8560   -0.5630    3.1280 O.co2  95  ASP95      -0.2456
     98  OD2       12.6070   -0.6740    4.9720 O.co2  95  ASP95      -0.2456
     99  N         17.6480   -3.0550    4.8780 N.am   96  LEU96      -0.1966
    100  CA        18.7080   -3.5300    5.7480 C.3    96  LEU96       0.1728
    101  C         19.4540   -2.2960    6.2700 C.2    96  LEU96       0.2616
    102  O         20.0680   -1.5630    5.4860 O.2    96  LEU96      -0.2715
    103  CB        19.6700   -4.4320    4.9660 C.3    96  LEU96       0.0311
    104  CG        19.1480   -5.7610    4.4020 C.3    96  LEU96       0.0022
    105  CD1       20.1870   -6.3980    3.4920 C.3    96  LEU96       0.0001
    106  CD2       18.7960   -6.7150    5.5580 C.3    96  LEU96       0.0001
    107  N         19.3960   -2.0630    7.5730 N.am   97  ASP97      -0.1957
    108  CA        20.0140   -0.8780    8.1790 C.3    97  ASP97       0.1840
    109  C         21.1150   -1.3300    9.1110 C.2    97  ASP97       0.2621
    110  O         20.9260   -2.2580    9.8640 O.2    97  ASP97      -0.2715
    111  CB        18.9660   -0.0870    8.9500 C.3    97  ASP97       0.1450
    112  CG        18.0550    0.7370    8.0410 C.2    97  ASP97       0.3671
    113  OD1       18.5290    1.7350    7.4660 O.co2  97  ASP97      -0.2456
    114  OD2       16.8580    0.4060    7.9250 O.co2  97  ASP97      -0.2456
    115  N         22.2840   -0.7220    9.0260 N.am   98  ILE98      -0.1977
    116  CA        23.3060   -0.9490   10.0300 C.3    98  ILE98       0.1596
    117  C         23.0060   -0.1090   11.2690 C.2    98  ILE98       0.2287
    118  O         23.0770    1.1180   11.2320 O.2    98  ILE98      -0.2864
    119  CB        24.6750   -0.6210    9.4990 C.3    98  ILE98       0.0276
    120  CG1       24.9650   -1.5090    8.3040 C.3    98  ILE98       0.0022
    121  CG2       25.7290   -0.7920   10.5660 C.3    98  ILE98       0.0022
    122  CD1       26.2210   -1.1010    7.5350 C.3    98  ILE98       0.0001
    123  N         29.0600   10.7300    4.4010 N.3   109  GLU109     -0.1231
    124  CA        27.9890   10.9330    3.4470 C.3   109  GLU109      0.1699
    125  C         27.1240    9.6660    3.3040 C.2   109  GLU109      0.2592
    126  O         25.9220    9.7310    3.0410 O.2   109  GLU109     -0.2718
    127  CB        28.6040   11.3170    2.1040 C.3   109  GLU109      0.0402
    128  CG        29.5240   12.5550    2.1610 C.3   109  GLU109      0.1161
    129  CD        31.0180   12.2110    2.3240 C.2   109  GLU109      0.3649
    130  OE1       31.3810   11.3320    3.1520 O.co2 109  GLU109     -0.2457
    131  OE2       31.8390   12.8450    1.6150 O.co2 109  GLU109     -0.2457
    132  N         27.7390    8.5100    3.4890 N.am  110  ARG110     -0.1966
    133  CA        27.0640    7.2530    3.2010 C.3   110  ARG110      0.1729
    134  C         26.4880    6.6530    4.4690 C.2   110  ARG110      0.2616
    135  O         25.4590    6.0010    4.4380 O.2   110  ARG110     -0.2715
    136  CB        28.0490    6.2610    2.5910 C.3   110  ARG110      0.0348
    137  CG        28.5070    6.5870    1.1710 C.3   110  ARG110      0.0492
    138  CD        29.2700    5.4160    0.5860 C.3   110  ARG110      0.2205
    139  NE        28.4030    4.2600    0.3160 N.pl3 110  ARG110     -0.0865
    140  CZ        28.8530    3.0300    0.1010 C.cat 110  ARG110      0.5346
    141  NH1       30.1460    2.7670    0.1910 N.pl3 110  ARG110      0.1354
    142  NH2       28.0040    2.0370   -0.1510 N.pl3 110  ARG110      0.1354
    143  N         27.1520    6.9020    5.5910 N.am  111  LEU111     -0.1963
    144  CA        26.8830    6.1400    6.7930 C.3   111  LEU111      0.1728
    145  C         26.8160    6.9960    8.0610 C.2   111  LEU111      0.2617
    146  O         27.7410    7.7450    8.3700 O.2   111  LEU111     -0.2715
    147  CB        27.9880    5.0990    6.9120 C.3   111  LEU111      0.0311
    148  CG        27.6610    3.7910    7.5710 C.3   111  LEU111      0.0022
    149  CD1       26.3470    3.2200    7.0640 C.3   111  LEU111      0.0001
    150  CD2       28.8200    2.8710    7.3250 C.3   111  LEU111      0.0001
    151  N         25.6870    6.9060    8.7580 N.am  112  THR112     -0.1937
    152  CA        25.5530    7.3790   10.1300 C.3   112  THR112      0.2028
    153  C         25.3160    6.2030   11.0660 C.2   112  THR112      0.2642
    154  O         24.2970    5.5050   10.9810 O.2   112  THR112     -0.2714
    155  CB        24.3710    8.3210   10.2710 C.3   112  THR112      0.1808
    156  OG1       24.5140    9.3850    9.3350 O.3   112  THR112     -0.2208
    157  CG2       24.3150    8.8950   11.6720 C.3   112  THR112      0.0379
    158  N         26.2770    6.0010   11.9550 N.am  113  VAL113     -0.1977
    159  CA        26.2430    4.9270   12.9260 C.3   113  VAL113      0.1596
    160  C         26.5970    5.5280   14.2840 C.2   113  VAL113      0.2287
    161  O         27.5770    6.2480   14.3810 O.2   113  VAL113     -0.2864
    162  CB        27.2570    3.8110   12.5840 C.3   113  VAL113      0.0276
    163  CG1       27.3200    2.7890   13.7440 C.3   113  VAL113      0.0022
    164  CG2       26.8800    3.1390   11.2630 C.3   113  VAL113      0.0022
    165  N         22.5790    4.2010   14.0660 N.3   115  HIS115     -0.1226
    166  CA        21.5780    4.5910   13.1100 C.3   115  HIS115      0.1752
    167  C         20.9070    5.8500   13.6170 C.2   115  HIS115      0.2596
    168  O         20.6230    5.9860   14.8300 O.2   115  HIS115     -0.2718
    169  CB        20.6060    3.4500   12.9400 C.3   115  HIS115      0.0759
    170  CG        19.4940    3.7260   12.0000 C.ar  115  HIS115      0.0818
    171  ND1       18.3660    4.4180   12.3770 N.ar  115  HIS115     -0.2268
    172  CD2       19.3060    3.3640   10.7090 C.ar  115  HIS115      0.1154
    173  CE1       17.5410    4.5000   11.3470 C.ar  115  HIS115      0.1986
    174  NE2       18.0830    3.8600   10.3270 N.ar  115  HIS115     -0.2212
    175  N         20.6620    6.7660   12.6790 N.am  116  TYR116     -0.1976
    176  CA        20.2230    8.1320   12.9930 C.3   116  TYR116      0.1639
    177  C         18.9230    8.2130   13.8040 C.2   116  TYR116      0.2290
    178  O         18.7580    9.1430   14.5950 O.2   116  TYR116     -0.2864
    179  CB        20.0960    8.9680   11.7000 C.3   116  TYR116      0.0560
    180  CG        18.7930    8.7800   10.9390 C.ar  116  TYR116     -0.0198
    181  CD1       18.5350    7.6030   10.2400 C.ar  116  TYR116     -0.0009
    182  CD2       17.8130    9.7780   10.9290 C.ar  116  TYR116     -0.0009
    183  CE1       17.3430    7.4160    9.5520 C.ar  116  TYR116      0.0417
    184  CE2       16.6080    9.6020   10.2360 C.ar  116  TYR116      0.0417
    185  CZ        16.3860    8.4140    9.5500 C.ar  116  TYR116      0.1957
    186  OH        15.2110    8.2090    8.8560 O.3   116  TYR116     -0.2866
    187  N         12.5140    4.3180   17.6470 N.3   121  ARG121     -0.1245
    188  CA        11.8120    3.2310   16.9660 C.3   121  ARG121      0.1563
    189  C         11.7720    1.9590   17.8220 C.2   121  ARG121      0.2260
    190  O         12.7750    1.2920   18.0020 O.2   121  ARG121     -0.2867
    191  CB        12.4670    2.9750   15.6030 C.3   121  ARG121      0.0307
    192  CG        12.3570    4.1880   14.6840 C.3   121  ARG121      0.0489
    193  CD        13.0800    4.0600   13.3250 C.3   121  ARG121      0.2205
    194  NE        12.9950    5.3320   12.5820 N.pl3 121  ARG121     -0.0865
    195  CZ        13.0280    5.4650   11.2550 C.cat 121  ARG121      0.5346
    196  NH1       13.1320    4.4110   10.4560 N.pl3 121  ARG121      0.1354
    197  NH2       12.9310    6.6700   10.7170 N.pl3 121  ARG121      0.1354
    198  N         10.3620   -0.6710   17.0570 N.3   123  PHE123     -0.1241
    199  CA        10.5200   -1.8270   16.1770 C.3   123  PHE123      0.1605
    200  C         11.9750   -2.0900   15.8510 C.2   123  PHE123      0.2264
    201  O         12.3030   -3.1330   15.3200 O.2   123  PHE123     -0.2867
    202  CB         9.6770   -1.6990   14.8920 C.3   123  PHE123      0.0534
    203  CG         9.9740   -0.4590   14.0640 C.ar  123  PHE123     -0.0203
    204  CD1       11.1310   -0.3790   13.3100 C.ar  123  PHE123     -0.0042
    205  CD2        9.0710    0.5840   14.0230 C.ar  123  PHE123     -0.0042
    206  CE1       11.3980    0.7420   12.5400 C.ar  123  PHE123     -0.0003
    207  CE2        9.3350    1.7260   13.2760 C.ar  123  PHE123     -0.0003
    208  CZ        10.4920    1.7940   12.5240 C.ar  123  PHE123     -0.0000
@<TRIPOS>BOND
     1    80    81    1
     2    81    84    1
     3    81    82    1
     4    74    73    2
     5    84    85    1
     6    73    72    1
     7    65    64    2
     8    85    86    1
     9    82    83    2
    10    86    87    1
    11    64    63    1
    12    72    71    1
    13    72    75    1
    14    69    68    2
    15    66    63    1
    16    66    67    1
    17    75    76    1
    18    63    62    1
    19    89    88    1
    20    87    88    2
    21   142   140    1
    22    68    67    1
    23    68    70   am
    24   140   141    1
    25   140   139    2
    26    88    90    1
    27   139   138    1
    28   138   137    1
    29    78    77   ar
    30    76    77    1
    31   137   136    1
    32    77    79   ar
    33   131   129   ar
    34    57    56    2
    35   127   128    1
    36   127   124    1
    37   128   129    1
    38    56    55    1
    39   129   130   ar
    40   136   133    1
    41   126   125    2
    42    97    96   ar
    43   133   132    1
    44   133   134    1
    45    59    61    1
    46    59    58    1
    47    59    60    1
    48   125   124    1
    49   125   132   am
    50   124   123    1
    51   105   104    1
    52    91    92    1
    53    55    58    1
    54    55    54    1
    55    92    93    1
    56    92    95    1
    57    96    98   ar
    58    96    95    1
    59   104   103    1
    60   104   106    1
    61   135   134    2
    62   134   143   am
    63    99    93   am
    64    99   100    1
    65   103   100    1
    66    93    94    2
    67    45    44    1
    68     4     3    2
    69   102   101    2
    70   143   144    1
    71   100   101    1
    72    44    43   ar
    73    44    42   ar
    74     3     2    1
    75   101   107   am
    76    43    41   ar
    77    42    40   ar
    78   144   147    1
    79   144   145    1
    80   147   148    1
    81   149   148    1
    82   150   148    1
    83    41    39   ar
    84   113   112   ar
    85   122   120    1
    86   107   108    1
    87     2     1    1
    88    40    39   ar
    89   114   112   ar
    90    39    38    1
    91   112   111    1
    92   145   146    2
    93   145   151   am
    94    23    24    1
    95    23    20    1
    96    24    25    1
    97   108   111    1
    98   108   109    1
    99   120   119    1
   100    29    28    2
   101    35    34    1
   102    35    38    1
   103    35    36    1
   104   151   152    1
   105   186   185    1
   106   115   109   am
   107   115   116    1
   108   109   110    2
   109   156   155    1
   110    36    37    2
   111   119   116    1
   112   119   121    1
   113    28    27    1
   114    20    21    1
   115    20    19    1
   116   185   183   ar
   117   185   184   ar
   118   183   181   ar
   119    25    19    1
   120   116   117    1
   121   152   155    1
   122   152   153    1
   123    26    21   am
   124    26    27    1
   125    21    22    2
   126    19    14   am
   127   184   182   ar
   128   181   180   ar
   129   155   157    1
   130   174   172   ar
   131   174   173   ar
   132    30    27    1
   133    30    31    1
   134   196   195    1
   135   172   170   ar
   136   197   195    1
   137   182   180   ar
   138   180   179    1
   139   154   153    2
   140    32    31    1
   141    53    51   am
   142   153   158   am
   143    46    47    1
   144   118   117    2
   145   195   194    2
   146   164   162    1
   147     8     7    2
   148   173   171   ar
   149    31    33    1
   150    14    15    2
   151    14    13    1
   152   179   176    1
   153    47    48    1
   154    47    50    1
   155    51    52    2
   156    51    50    1
   157   158   159    1
   158   170   171   ar
   159   170   169    1
   160    13    12    1
   161    13    16    1
   162   208   206   ar
   163   208   207   ar
   164    48    49    2
   165   206   204   ar
   166     7    12   am
   167     7     6    1
   168   194   193    1
   169   162   159    1
   170   162   163    1
   171    10     9    1
   172   175   176    1
   173   175   167   am
   174   159   160    1
   175   169   166    1
   176   176   177    1
   177    12    18    1
   178     5     6    1
   179   166   167    1
   180   166   165    1
   181    16    17    1
   182   207   205   ar
   183   204   203   ar
   184   193   192    1
   185     6     9    1
   186   167   168    2
   187   177   178    2
   188     9    11    1
   189   205   203   ar
   190   203   202    1
   191   160   161    2
   192    17    18    1
   193   192   191    1
   194   202   199    1
   195   201   200    2
   196   191   188    1
   197   200   199    1
   198   199   198    1
   199   188   187    1
   200   188   189    1
   201   189   190    2
