@<TRIPOS>MOLECULE
tmp/3ud6A00.pdb
 201 191 0 0 0
SMALL
GASTEIGER

@<TRIPOS>ATOM
      1  N        -42.4550    8.3910   -1.0460 N.3     7  TRP7       -0.1241
      2  CA       -42.3550    8.6170    0.3940 C.3     7  TRP7        0.1605
      3  C        -41.4190    9.8160    0.7060 C.2     7  TRP7        0.2264
      4  O        -41.6540   10.5850    1.6350 O.2     7  TRP7       -0.2867
      5  CB       -41.9110    7.3430    1.1020 C.3     7  TRP7        0.0550
      6  CG       -40.4020    7.1840    1.1580 C.ar    7  TRP7        0.0003
      7  CD1      -39.5670    6.6650    0.1720 C.ar    7  TRP7        0.0946
      8  CD2      -39.5520    7.5120    2.2680 C.ar    7  TRP7        0.0152
      9  NE1      -38.2420    6.6680    0.6250 N.ar    7  TRP7       -0.2442
     10  CE2      -38.2200    7.1970    1.8960 C.ar    7  TRP7        0.0810
     11  CE3      -39.7860    8.0560    3.5440 C.ar    7  TRP7        0.0012
     12  CZ2      -37.1520    7.4120    2.7400 C.ar    7  TRP7        0.0191
     13  CZ3      -38.6890    8.2700    4.3940 C.ar    7  TRP7        0.0001
     14  CH2      -37.3970    7.9460    3.9720 C.ar    7  TRP7        0.0015
     15  N        -20.6960    4.5700   14.5680 N.3    48  ILE48      -0.1245
     16  CA       -21.8630    5.3920   14.9440 C.3    48  ILE48       0.1561
     17  C        -23.0950    4.4940   15.1100 C.2    48  ILE48       0.2260
     18  O        -23.6190    3.9190   14.1410 O.2    48  ILE48      -0.2867
     19  CB       -22.1330    6.4820   13.8740 C.3    48  ILE48       0.0252
     20  CG1      -20.9240    7.4560   13.8200 C.3    48  ILE48       0.0019
     21  CG2      -23.3860    7.2970   14.2250 C.3    48  ILE48       0.0019
     22  CD1      -21.0490    8.5160   12.7140 C.3    48  ILE48       0.0001
     23  N        -27.0210    3.9090   15.7780 N.3    50  THR50      -0.1218
     24  CA       -28.2290    4.6180   15.5560 C.3    50  THR50       0.1862
     25  C        -29.4180    4.1110   16.3680 C.2    50  THR50       0.2287
     26  O        -29.7010    2.8910   16.4230 O.2    50  THR50      -0.2866
     27  CB       -28.6340    4.5020   14.0360 C.3    50  THR50       0.1770
     28  OG1      -27.4760    4.7770   13.2130 O.3    50  THR50      -0.2211
     29  CG2      -29.8020    5.4060   13.6960 C.3    50  THR50       0.0375
     30  N        -33.2740    4.0820   16.1210 N.3    52  MET52      -0.1245
     31  CA       -34.3070    4.3060   15.1460 C.3    52  MET52       0.1570
     32  C        -35.3400    3.2230   15.3570 C.2    52  MET52       0.2261
     33  O        -35.0220    2.0240   15.2220 O.2    52  MET52      -0.2867
     34  CB       -33.7270    4.2140   13.7200 C.3    52  MET52       0.0387
     35  CG       -34.6800    4.6070   12.6100 C.3    52  MET52       0.0595
     36  SD       -33.9810    4.3580   10.9010 S.3    52  MET52      -0.1393
     37  CE       -32.5750    5.3910   11.1360 C.3    52  MET52       0.0692
     38  N        -38.5860    2.9990    6.6800 N.3    56  PRO56      -0.2102
     39  CA       -39.3440    2.7370    5.4940 C.3    56  PRO56       0.1504
     40  C        -38.9430    1.4180    4.8690 C.2    56  PRO56       0.2575
     41  O        -39.6540    0.9580    3.9940 O.2    56  PRO56      -0.2718
     42  CB       -38.9890    3.9250    4.5810 C.3    56  PRO56       0.0282
     43  CG       -37.8330    4.5310    5.1680 C.3    56  PRO56       0.0208
     44  CD       -37.9210    4.3070    6.5990 C.3    56  PRO56       0.0893
     45  N        -37.8020    0.8380    5.2680 N.am   57  TRP57      -0.1977
     46  CA       -37.4380   -0.4970    4.7830 C.3    57  TRP57       0.1640
     47  C        -37.8610   -1.5940    5.7430 C.2    57  TRP57       0.2290
     48  O        -37.2530   -2.6740    5.7530 O.2    57  TRP57      -0.2864
     49  CB       -35.9420   -0.6470    4.3900 C.3    57  TRP57       0.0576
     50  CG       -34.9700   -0.2050    5.4170 C.ar   57  TRP57       0.0006
     51  CD1      -34.3940   -0.9800    6.3840 C.ar   57  TRP57       0.0946
     52  CD2      -34.4660    1.1430    5.6260 C.ar   57  TRP57       0.0152
     53  NE1      -33.5500   -0.2190    7.1440 N.ar   57  TRP57      -0.2442
     54  CE2      -33.5760    1.0820    6.7130 C.ar   57  TRP57       0.0810
     55  CE3      -34.6960    2.3870    5.0070 C.ar   57  TRP57       0.0012
     56  CZ2      -32.9120    2.2370    7.2190 C.ar   57  TRP57       0.0191
     57  CZ3      -33.9900    3.5450    5.4960 C.ar   57  TRP57       0.0001
     58  CH2      -33.1300    3.4420    6.5900 C.ar   57  TRP57       0.0015
     59  N        -26.5180    8.3320   16.6360 N.3    80  SER80      -0.1217
     60  CA       -27.4190    8.9560   15.6440 C.3    80  SER80       0.1889
     61  C        -28.8230    8.6510   16.0790 C.2    80  SER80       0.2288
     62  O        -29.2140    7.4710   16.1830 O.2    80  SER80      -0.2866
     63  CB       -27.1630    8.3940   14.2610 C.3    80  SER80       0.2089
     64  OG       -28.0740    8.9360   13.3250 O.3    80  SER80      -0.2183
     65  N        -32.7150    9.1460   15.4310 N.3    82  CYS82      -0.1235
     66  CA       -33.6660    9.4980   14.3800 C.3    82  CYS82       0.1677
     67  C        -34.8860   10.1900   14.9670 C.2    82  CYS82       0.2270
     68  O        -35.6080    9.5890   15.7590 O.2    82  CYS82      -0.2867
     69  CB       -34.0490    8.2850   13.5620 C.3    82  CYS82       0.0956
     70  SG       -35.1270    8.7140   12.1450 S.3    82  CYS82      -0.0801
     71  N        -37.2870   11.7430   12.9220 N.3    84  GLU84      -0.1245
     72  CA       -38.3630   11.7730   11.9310 C.3    84  GLU84       0.1567
     73  C        -39.5740   10.9470   12.4390 C.2    84  GLU84       0.2260
     74  O        -39.4200    9.7950   12.8850 O.2    84  GLU84      -0.2867
     75  CB       -37.8880   11.2170   10.6170 C.3    84  GLU84       0.0388
     76  CG       -38.7690   11.5900    9.3790 C.3    84  GLU84       0.1160
     77  CD       -40.1220   10.8630    9.3470 C.2    84  GLU84       0.3649
     78  OE1      -40.1780    9.6140    9.4320 O.co2  84  GLU84      -0.2457
     79  OE2      -41.1330   11.5410    9.2460 O.co2  84  GLU84      -0.2457
     80  N        -42.1780    8.0470    9.4100 N.3    87  TYR87      -0.1227
     81  CA       -41.6220    6.8390    8.8820 C.3    87  TYR87       0.1736
     82  C        -40.6940    6.1640    9.8520 C.2    87  TYR87       0.2595
     83  O        -40.4050    4.9980    9.7090 O.2    87  TYR87      -0.2718
     84  CB       -40.9370    7.0990    7.5240 C.3    87  TYR87       0.0548
     85  CG       -41.9250    7.5030    6.4490 C.ar   87  TYR87      -0.0200
     86  CD1      -42.2950    8.8740    6.2800 C.ar   87  TYR87      -0.0009
     87  CD2      -42.5660    6.5480    5.6720 C.ar   87  TYR87      -0.0009
     88  CE1      -43.2060    9.2430    5.3180 C.ar   87  TYR87       0.0417
     89  CE2      -43.4840    6.9300    4.7050 C.ar   87  TYR87       0.0417
     90  CZ       -43.8000    8.2670    4.5400 C.ar   87  TYR87       0.1957
     91  OH       -44.7440    8.6310    3.5930 O.3    87  TYR87      -0.2866
     92  N        -40.2600    6.8750   10.8720 N.am   88  ALA88      -0.1980
     93  CA       -39.3200    6.3000   11.8100 C.3    88  ALA88       0.1597
     94  C        -39.8330    6.2360   13.2440 C.2    88  ALA88       0.2287
     95  O        -39.1490    5.6990   14.1450 O.2    88  ALA88      -0.2864
     96  CB       -37.9800    7.0820   11.7270 C.3    88  ALA88       0.0319
     97  N        -25.6810   12.8890   16.6970 N.3   107  LEU107     -0.1245
     98  CA       -26.1730   13.3540   15.4000 C.3   107  LEU107      0.1561
     99  C        -27.6860   13.2770   15.3880 C.2   107  LEU107      0.2260
    100  O        -28.2600   12.2310   15.7190 O.2   107  LEU107     -0.2867
    101  CB       -25.5650   12.5100   14.2620 C.3   107  LEU107      0.0270
    102  CG       -26.3180   12.5440   12.9050 C.3   107  LEU107      0.0019
    103  CD1      -26.0180   13.8360   12.2410 C.3   107  LEU107      0.0001
    104  CD2      -25.8360   11.4180   11.9730 C.3   107  LEU107      0.0001
    105  N        -30.6790   12.6280   13.4380 N.3   109  ALA109     -0.1231
    106  CA       -30.9370   12.0190   12.1510 C.3   109  ALA109      0.1694
    107  C        -32.3620   12.3310   11.7040 C.2   109  ALA109      0.2592
    108  O        -33.3500   11.8470   12.2760 O.2   109  ALA109     -0.2718
    109  CB       -30.6750   10.5430   12.2110 C.3   109  ALA109      0.0304
    110  N        -32.4670   13.1840   10.7040 N.am  110  ASP110     -0.1960
    111  CA       -33.7710   13.6010   10.2430 C.3   110  ASP110      0.1840
    112  C        -33.5630   14.2360    8.8710 C.2   110  ASP110      0.2622
    113  O        -32.4220   14.3250    8.4010 O.2   110  ASP110     -0.2715
    114  CB       -34.3760   14.6580   11.2440 C.3   110  ASP110      0.1450
    115  CG       -35.8930   14.7160   11.1720 C.2   110  ASP110      0.3671
    116  OD1      -36.4740   14.5580   10.0600 O.co2 110  ASP110     -0.2456
    117  OD2      -36.5220   14.9500   12.2250 O.co2 110  ASP110     -0.2456
    118  N        -34.6510   14.6810    8.2420 N.am  111  PHE111     -0.1974
    119  CA       -34.5930   15.3880    6.9620 C.3   111  PHE111      0.1639
    120  C        -34.5500   16.8830    7.1920 C.2   111  PHE111      0.2290
    121  O        -35.5880   17.5400    7.3340 O.2   111  PHE111     -0.2864
    122  CB       -35.8110   14.9830    6.1060 C.3   111  PHE111      0.0560
    123  CG       -35.7660   13.5500    5.6760 C.ar  111  PHE111     -0.0200
    124  CD1      -36.3400   12.5660    6.4820 C.ar  111  PHE111     -0.0042
    125  CD2      -35.0810   13.1810    4.5160 C.ar  111  PHE111     -0.0042
    126  CE1      -36.2600   11.1840    6.1250 C.ar  111  PHE111     -0.0003
    127  CE2      -34.9740   11.8280    4.1400 C.ar  111  PHE111     -0.0003
    128  CZ       -35.5770   10.8170    4.9510 C.ar  111  PHE111     -0.0000
    129  N        -27.4220   15.7990    9.6930 N.3   130  PRO130     -0.2116
    130  CA       -26.9810   15.4510    8.3190 C.3   130  PRO130      0.1372
    131  C        -27.6300   16.4180    7.3570 C.2   130  PRO130      0.2244
    132  O        -28.7540   16.9250    7.6340 O.2   130  PRO130     -0.2868
    133  CB       -27.5900   14.0390    8.1050 C.3   130  PRO130      0.0268
    134  CG       -28.8300   14.0030    9.0740 C.3   130  PRO130      0.0207
    135  CD       -28.7320   15.1800   10.0070 C.3   130  PRO130      0.0892
    136  N        -28.6170   16.2500    3.3140 N.3   132  ILE132     -0.1245
    137  CA       -28.7360   15.2290    2.2880 C.3   132  ILE132      0.1561
    138  C        -28.7750   15.9030    0.9120 C.2   132  ILE132      0.2260
    139  O        -29.7050   16.6270    0.5810 O.2   132  ILE132     -0.2867
    140  CB       -29.9820   14.3910    2.4890 C.3   132  ILE132      0.0252
    141  CG1      -29.9590   13.7180    3.8910 C.3   132  ILE132      0.0019
    142  CG2      -30.1870   13.3490    1.3220 C.3   132  ILE132      0.0019
    143  CD1      -31.4350   13.2070    4.3180 C.3   132  ILE132      0.0001
    144  N        -22.7760   16.5460    8.7040 N.3   156  ILE156     -0.1245
    145  CA       -22.2710   15.5250    7.7960 C.3   156  ILE156      0.1561
    146  C        -23.1040   15.6270    6.4990 C.2   156  ILE156      0.2260
    147  O        -24.3330   15.6780    6.5140 O.2   156  ILE156     -0.2867
    148  CB       -22.3630   14.0860    8.4430 C.3   156  ILE156      0.0252
    149  CG1      -22.0030   12.9880    7.4090 C.3   156  ILE156      0.0019
    150  CG2      -23.7430   13.8500    8.9870 C.3   156  ILE156      0.0019
    151  CD1      -21.4580   11.7110    8.1200 C.3   156  ILE156      0.0001
    152  N        -24.5180   13.9980    3.3200 N.3   158  LYS158     -0.1245
    153  CA       -24.8110   12.6590    2.8360 C.3   158  LYS158      0.1561
    154  C        -24.8270   12.6150    1.3320 C.2   158  LYS158      0.2260
    155  O        -25.4350   13.4520    0.6990 O.2   158  LYS158     -0.2867
    156  CB       -26.1320   12.1230    3.3660 C.3   158  LYS158      0.0271
    157  CG       -26.3190   12.4630    4.8310 C.3   158  LYS158      0.0035
    158  CD       -25.3220   11.7310    5.7080 C.3   158  LYS158      0.0206
    159  CE       -25.4530   10.2270    5.5660 C.3   158  LYS158      0.1093
    160  NZ       -24.8290    9.5570    6.6850 N.3   158  LYS158     -0.1314
    161  N        -32.0900    6.8300   -1.1610 N.3   183  TRP183     -0.1241
    162  CA       -33.2050    7.4150   -0.3720 C.3   183  TRP183      0.1605
    163  C        -34.5830    7.1630   -1.0190 C.2   183  TRP183      0.2264
    164  O        -35.5190    6.8480   -0.3400 O.2   183  TRP183     -0.2867
    165  CB       -33.0260    8.9420   -0.2090 C.3   183  TRP183      0.0550
    166  CG       -31.7470    9.2910    0.4680 C.ar  183  TRP183      0.0003
    167  CD1      -30.5370    9.6060   -0.1370 C.ar  183  TRP183      0.0946
    168  CD2      -31.5050    9.3100    1.8850 C.ar  183  TRP183      0.0152
    169  NE1      -29.5920    9.8290    0.8190 N.ar  183  TRP183     -0.2442
    170  CE2      -30.1490    9.6470    2.0680 C.ar  183  TRP183      0.0810
    171  CE3      -32.2970    9.0430    3.0040 C.ar  183  TRP183      0.0012
    172  CZ2      -29.5590    9.7500    3.3420 C.ar  183  TRP183      0.0191
    173  CZ3      -31.7170    9.1390    4.2760 C.ar  183  TRP183      0.0001
    174  CH2      -30.3680    9.4890    4.4370 C.ar  183  TRP183      0.0015
    175  N        -17.6540    8.7690    6.5200 N.3   207  VAL207     -0.1245
    176  CA       -18.4230    7.7750    7.2450 C.3   207  VAL207      0.1561
    177  C        -19.1610    6.9140    6.2490 C.2   207  VAL207      0.2260
    178  O        -19.8690    7.4360    5.3910 O.2   207  VAL207     -0.2867
    179  CB       -19.4870    8.4520    8.1630 C.3   207  VAL207      0.0252
    180  CG1      -20.3860    7.3870    8.8140 C.3   207  VAL207      0.0019
    181  CG2      -18.8060    9.3080    9.2110 C.3   207  VAL207      0.0019
    182  N        -22.0750    4.2060    5.5080 N.3   209  SER209     -0.1217
    183  CA       -23.2520    3.4010    5.9640 C.3   209  SER209      0.1889
    184  C        -22.9470    1.9200    5.7460 C.2   209  SER209      0.2288
    185  O        -22.5420    1.5360    4.6330 O.2   209  SER209     -0.2866
    186  CB       -24.5400    3.7740    5.2560 C.3   209  SER209      0.2089
    187  OG       -24.7160    5.1930    5.3890 O.3   209  SER209     -0.2183
    188  N        -21.5060    3.9630   10.0970 N.3   230  SER230     -0.1217
    189  CA       -22.8140    4.1150   10.7310 C.3   230  SER230      0.1889
    190  C        -23.6380    2.9010   10.4890 C.2   230  SER230      0.2288
    191  O        -23.6830    2.3780    9.3640 O.2   230  SER230     -0.2866
    192  CB       -23.5620    5.4050   10.3530 C.3   230  SER230      0.2089
    193  OG       -23.7820    5.4560    8.9550 O.3   230  SER230     -0.2183
    194  N        -27.3550    0.7660   11.7050 N.3   232  ILE232     -0.1245
    195  CA       -28.7190    0.9480   12.2030 C.3   232  ILE232      0.1561
    196  C        -29.3460   -0.3650   12.6880 C.2   232  ILE232      0.2260
    197  O        -29.2740   -0.6760   13.8730 O.2   232  ILE232     -0.2867
    198  CB       -29.5840    1.6290   11.1190 C.3   232  ILE232      0.0252
    199  CG1      -28.8680    2.9010   10.6210 C.3   232  ILE232      0.0019
    200  CG2      -31.0490    1.9350   11.6390 C.3   232  ILE232      0.0019
    201  CD1      -29.6850    3.6570    9.5890 C.3   232  ILE232      0.0001
@<TRIPOS>BOND
     1   161   162    1
     2     1     2    1
     3   163   162    1
     4   163   164    2
     5   162   165    1
     6   165   166    1
     7   167   166   ar
     8   167   169   ar
     9     7     9   ar
    10     7     6   ar
    11     2     3    1
    12     2     5    1
    13   166   168   ar
    14   139   138    2
    15     9    10   ar
    16   155   154    2
    17     3     4    2
    18   169   170   ar
    19   138   137    1
    20     5     6    1
    21     6     8   ar
    22   142   140    1
    23   154   153    1
    24   168   170   ar
    25   168   171   ar
    26    10     8   ar
    27    10    12   ar
    28   170   172   ar
    29     8    11   ar
    30   137   140    1
    31   137   136    1
    32   140   141    1
    33    12    14   ar
    34   153   152    1
    35   153   156    1
    36   171   173   ar
    37   172   174   ar
    38   156   157    1
    39    11    13   ar
    40    91    90    1
    41   141   143    1
    42    14    13   ar
    43    41    40    2
    44   127   125   ar
    45   127   128   ar
    46   173   174   ar
    47    49    46    1
    48    49    50    1
    49   125   123   ar
    50    90    89   ar
    51    90    88   ar
    52    42    43    1
    53    42    39    1
    54   185   184    2
    55    89    87   ar
    56    46    45    1
    57    46    47    1
    58   157   158    1
    59    40    45   am
    60    40    39    1
    61   128   126   ar
    62    55    57   ar
    63    55    52   ar
    64    43    44    1
    65   186   187    1
    66   186   183    1
    67    88    86   ar
    68   178   177    2
    69    50    52   ar
    70    50    51   ar
    71    39    38    1
    72    57    58   ar
    73   182   183    1
    74   159   158    1
    75   159   160    1
    76    52    54   ar
    77    87    85   ar
    78   123   122    1
    79   123   124   ar
    80    47    48    2
    81   184   183    1
    82   122   119    1
    83   126   124   ar
    84   177   176    1
    85    86    85   ar
    86    51    53   ar
    87    85    84    1
    88   146   147    2
    89   146   145    1
    90   175   176    1
    91    58    56   ar
    92    44    38    1
    93    54    53   ar
    94    54    56   ar
    95   119   120    1
    96   119   118    1
    97   120   121    2
    98   176   179    1
    99   131   132    2
   100   131   130    1
   101   149   151    1
   102   149   148    1
   103    84    81    1
   104   145   148    1
   105   145   144    1
   106   133   130    1
   107   133   134    1
   108   179   180    1
   109   179   181    1
   110   118   112   am
   111   130   129    1
   112   113   112    2
   113   148   150    1
   114   112   111    1
   115    81    80    1
   116    81    82    1
   117   193   192    1
   118   134   135    1
   119    79    77   ar
   120    77    76    1
   121    77    78   ar
   122   191   190    2
   123    76    75    1
   124   201   199    1
   125   129   135    1
   126    83    82    2
   127    82    92   am
   128   116   115   ar
   129   188   189    1
   130   111   110    1
   131   111   114    1
   132   192   189    1
   133   190   189    1
   134    75    72    1
   135   199   198    1
   136   110   107   am
   137    92    93    1
   138    36    37    1
   139    36    35    1
   140   198   200    1
   141   198   195    1
   142   115   114    1
   143   115   117   ar
   144   107   106    1
   145   107   108    2
   146   194   195    1
   147    96    93    1
   148    93    94    1
   149    72    73    1
   150    72    71    1
   151   104   102    1
   152    70    69    1
   153   106   109    1
   154   106   105    1
   155   195   196    1
   156   103   102    1
   157    73    74    2
   158    35    34    1
   159   196   197    2
   160    22    20    1
   161   102   101    1
   162    28    27    1
   163    94    95    2
   164    64    63    1
   165    69    66    1
   166    29    27    1
   167    34    31    1
   168    20    19    1
   169    19    21    1
   170    19    16    1
   171    27    24    1
   172    18    17    2
   173    63    60    1
   174   101    98    1
   175    66    67    1
   176    66    65    1
   177    15    16    1
   178    16    17    1
   179    67    68    2
   180    31    32    1
   181    31    30    1
   182    33    32    2
   183    99    98    1
   184    99   100    2
   185    98    97    1
   186    24    23    1
   187    24    25    1
   188    60    61    1
   189    60    59    1
   190    61    62    2
   191    25    26    2
