@<TRIPOS>MOLECULE
tmp/3ud7B00.pdb
 81 76 0 0 0
SMALL
GASTEIGER

@<TRIPOS>ATOM
      1  N        -21.5990   -6.8010   65.7210 N.3     8  ASN8       -0.1240
      2  CA       -21.9050   -7.9340   64.8730 C.3     8  ASN8        0.1653
      3  C        -20.9540   -9.1160   65.0880 C.2     8  ASN8        0.2266
      4  O        -21.3590  -10.1360   65.6520 O.2     8  ASN8       -0.2867
      5  CB       -21.9980   -7.5280   63.4070 C.3     8  ASN8        0.1155
      6  CG       -22.7440   -8.5510   62.5680 C.2     8  ASN8        0.2627
      7  OD1      -23.5910   -9.2650   63.0620 O.2     8  ASN8       -0.2716
      8  ND2      -22.4310   -8.6090   61.2950 N.am    8  ASN8       -0.0877
      9  N        -20.1270   -7.2600   58.3140 N.3   102  LYS102     -0.1231
     10  CA       -20.5270   -8.6570   58.4450 C.3   102  LYS102      0.1693
     11  C        -19.7830   -9.3390   59.6050 C.2   102  LYS102      0.2592
     12  O        -18.8130   -8.7920   60.1260 O.2   102  LYS102     -0.2718
     13  CB       -20.2310   -9.3840   57.1270 C.3   102  LYS102      0.0285
     14  CG       -21.1330   -8.9500   55.9410 C.3   102  LYS102      0.0035
     15  CD       -20.5520   -9.3530   54.5930 C.3   102  LYS102      0.0206
     16  CE       -21.1500  -10.6560   54.0590 C.3   102  LYS102      0.1093
     17  NZ       -21.9950  -10.4440   52.8130 N.3   102  LYS102     -0.1314
     18  N        -20.2300  -10.5360   60.0030 N.am  103  LYS103     -0.1966
     19  CA       -19.6490  -11.2450   61.1670 C.3   103  LYS103      0.1728
     20  C        -18.1840  -11.6440   60.9900 C.2   103  LYS103      0.2616
     21  O        -17.4690  -11.8890   61.9720 O.2   103  LYS103     -0.2715
     22  CB       -20.4850  -12.4690   61.5710 C.3   103  LYS103      0.0311
     23  CG       -21.6250  -12.1510   62.5500 C.3   103  LYS103      0.0038
     24  CD       -21.6800  -13.1530   63.7310 C.3   103  LYS103      0.0206
     25  CE       -22.7450  -12.7620   64.7940 C.3   103  LYS103      0.1093
     26  NZ       -23.0460  -13.8100   65.8540 N.3   103  LYS103     -0.1314
     27  N        -17.7470  -11.6990   59.7370 N.am  104  ASN104     -0.1972
     28  CA       -16.3600  -12.0070   59.3990 C.3   104  ASN104      0.1688
     29  C        -15.5550  -10.7280   59.1870 C.2   104  ASN104      0.2292
     30  O        -14.4600  -10.7580   58.6470 O.2   104  ASN104     -0.2864
     31  CB       -16.3410  -12.8340   58.1240 C.3   104  ASN104      0.1181
     32  CG       -17.0600  -12.1360   56.9890 C.2   104  ASN104      0.2629
     33  OD1      -16.8030  -10.9630   56.6970 O.2   104  ASN104     -0.2716
     34  ND2      -17.9870  -12.8420   56.3600 N.am  104  ASN104     -0.0877
     35  N        -20.1290   -4.4850   54.6620 N.3   108  LYS108     -0.1245
     36  CA       -21.4610   -4.8150   54.1990 C.3   108  LYS108      0.1561
     37  C        -21.9450   -3.6670   53.3100 C.2   108  LYS108      0.2260
     38  O        -21.7420   -2.5060   53.6580 O.2   108  LYS108     -0.2867
     39  CB       -22.3760   -4.9800   55.3990 C.3   108  LYS108      0.0271
     40  CG       -23.7420   -5.4690   55.0470 C.3   108  LYS108      0.0035
     41  CD       -24.2220   -6.4660   56.0660 C.3   108  LYS108      0.0206
     42  CE       -25.5490   -7.0620   55.6490 C.3   108  LYS108      0.1093
     43  NZ       -25.7270   -8.4490   56.1940 N.3   108  LYS108     -0.1314
     44  N        -27.7880   -3.5060   51.4140 N.3   112  ARG112     -0.1245
     45  CA       -28.0690   -4.7250   52.1630 C.3   112  ARG112      0.1563
     46  C        -28.0760   -4.4680   53.6770 C.2   112  ARG112      0.2260
     47  O        -28.0150   -5.4140   54.4710 O.2   112  ARG112     -0.2867
     48  CB       -27.0900   -5.8390   51.7900 C.3   112  ARG112      0.0307
     49  CG       -27.4250   -6.5830   50.5020 C.3   112  ARG112      0.0489
     50  CD       -27.1000   -8.0740   50.6590 C.3   112  ARG112      0.2205
     51  NE       -25.9740   -8.3180   51.5820 N.pl3 112  ARG112     -0.0865
     52  CZ       -25.7060   -9.4910   52.1750 C.cat 112  ARG112      0.5346
     53  NH1      -26.4740  -10.5540   51.9570 N.pl3 112  ARG112      0.1354
     54  NH2      -24.6720   -9.6080   52.9990 N.pl3 112  ARG112      0.1354
     55  N        -31.9030   -2.5360   62.8700 N.3   116  GLY116     -0.1210
     56  CA       -32.0160   -3.7840   63.5990 C.3   116  GLY116      0.1956
     57  C        -31.2640   -4.9540   62.9860 C.2   116  GLY116      0.2612
     58  O        -31.6700   -6.1140   63.1320 O.2   116  GLY116     -0.2717
     59  N        -30.1840   -4.6520   62.2700 N.am  117  GLN117     -0.1965
     60  CA       -29.1400   -5.6230   62.0180 C.3   117  GLN117      0.1733
     61  C        -28.0830   -5.2910   63.0190 C.2   117  GLN117      0.2616
     62  O        -27.8430   -4.1090   63.3310 O.2   117  GLN117     -0.2715
     63  CB       -28.5280   -5.4450   60.6440 C.3   117  GLN117      0.0408
     64  CG       -29.3320   -6.0210   59.5290 C.3   117  GLN117      0.0908
     65  CD       -28.6860   -5.7450   58.1930 C.2   117  GLN117      0.2608
     66  OE1      -28.3390   -4.6020   57.8630 O.2   117  GLN117     -0.2717
     67  NE2      -28.5200   -6.7920   57.4100 N.am  117  GLN117     -0.0878
     68  N        -27.4440   -6.3350   63.5210 N.am  118  LYS118     -0.1963
     69  CA       -26.2930   -6.1860   64.3990 C.3   118  LYS118      0.1728
     70  C        -25.2400   -5.4170   63.6140 C.2   118  LYS118      0.2616
     71  O        -24.5620   -4.5530   64.1520 O.2   118  LYS118     -0.2715
     72  CB       -25.7840   -7.5700   64.8230 C.3   118  LYS118      0.0311
     73  CG       -25.4480   -7.7300   66.3120 C.3   118  LYS118      0.0038
     74  CD       -26.6780   -7.6260   67.2100 C.3   118  LYS118      0.0206
     75  CE       -26.2890   -7.4130   68.6900 C.3   118  LYS118      0.1093
     76  NZ       -27.3510   -6.7120   69.5200 N.3   118  LYS118     -0.1314
     77  N        -25.1840   -5.6830   62.3110 N.am  119  ALA119     -0.1977
     78  CA       -24.1500   -5.1440   61.4350 C.3   119  ALA119      0.1597
     79  C        -23.9890   -3.6520   61.5760 C.2   119  ALA119      0.2287
     80  O        -22.8720   -3.1500   61.5620 O.2   119  ALA119     -0.2864
     81  CB       -24.4210   -5.5020   59.9880 C.3   119  ALA119      0.0319
@<TRIPOS>BOND
     1    49    50    1
     2    49    48    1
     3    50    51    1
     4    44    45    1
     5    51    52    2
     6    48    45    1
     7    53    52    1
     8    45    46    1
     9    52    54    1
    10    17    16    1
    11    37    38    2
    12    37    36    1
    13    46    47    2
    14    16    15    1
    15    36    35    1
    16    36    39    1
    17    15    14    1
    18    40    39    1
    19    40    41    1
    20    42    41    1
    21    42    43    1
    22    14    13    1
    23    34    32   am
    24    33    32    2
    25    32    31    1
    26    13    10    1
    27    67    65   am
    28    66    65    2
    29    31    28    1
    30    65    64    1
    31     9    10    1
    32    10    11    1
    33    30    29    2
    34    29    28    1
    35    28    27    1
    36    64    63    1
    37    11    18   am
    38    11    12    2
    39    27    20   am
    40    81    78    1
    41    18    19    1
    42    63    60    1
    43    20    19    1
    44    20    21    2
    45    19    22    1
    46     8     6   am
    47    78    79    1
    48    78    77    1
    49    80    79    2
    50    22    23    1
    51    60    59    1
    52    60    61    1
    53    59    57   am
    54    77    70   am
    55    23    24    1
    56     6     7    2
    57     6     5    1
    58    55    56    1
    59    57    58    2
    60    57    56    1
    61    61    62    2
    62    61    68   am
    63     5     2    1
    64    68    69    1
    65    70    71    2
    66    70    69    1
    67    24    25    1
    68    69    72    1
    69    25    26    1
    70    72    73    1
    71     2     3    1
    72     2     1    1
    73     3     4    2
    74    73    74    1
    75    74    75    1
    76    75    76    1
