@<TRIPOS>MOLECULE
tmp/3ud8A00.pdb
 83 78 0 0 0
SMALL
GASTEIGER

@<TRIPOS>ATOM
      1  N         22.5040  -12.9960  -15.0480 N.3    10  ASN10      -0.1240
      2  CA        22.9020  -11.8130  -15.7630 C.3    10  ASN10       0.1653
      3  C         21.9760  -10.6470  -15.4070 C.2    10  ASN10       0.2266
      4  O         22.3690   -9.7300  -14.6830 O.2    10  ASN10      -0.2867
      5  CB        22.9150  -12.0990  -17.2730 C.3    10  ASN10       0.1155
      6  CG        23.6650  -11.0440  -18.0540 C.2    10  ASN10       0.2627
      7  OD1       24.2540  -10.1490  -17.4770 O.2    10  ASN10      -0.2716
      8  ND2       23.6650  -11.1600  -19.3730 N.am   10  ASN10      -0.0877
      9  N         20.8750  -12.2870  -22.3350 N.3   104  LYS104     -0.1231
     10  CA        21.3600  -10.9560  -22.1420 C.3   104  LYS104      0.1693
     11  C         20.7390  -10.2790  -20.9710 C.2   104  LYS104      0.2591
     12  O         19.8220  -10.7590  -20.3780 O.2   104  LYS104     -0.2718
     13  CB        21.0680  -10.1360  -23.3600 C.3   104  LYS104      0.0285
     14  CG        22.1080  -10.2440  -24.3610 C.3   104  LYS104      0.0035
     15  CD        21.5310  -10.3870  -25.6880 C.3   104  LYS104      0.0206
     16  CE        21.2330   -9.0510  -26.2480 C.3   104  LYS104      0.1093
     17  NZ        22.2110   -8.6870  -27.2500 N.3   104  LYS104     -0.1314
     18  N         21.2850   -9.1280  -20.6690 N.am  105  LYS105     -0.1980
     19  CA        20.9060   -8.3300  -19.5360 C.3   105  LYS105      0.1596
     20  C         19.4500   -7.9400  -19.5670 C.2   105  LYS105      0.2287
     21  O         18.8400   -7.7990  -18.5480 O.2   105  LYS105     -0.2864
     22  CB        21.7860   -7.0920  -19.4740 C.3   105  LYS105      0.0298
     23  CG        22.6300   -6.9930  -18.2610 C.3   105  LYS105      0.0038
     24  CD        21.7740   -7.0000  -17.0300 C.3   105  LYS105      0.0206
     25  CE        22.5410   -6.6410  -15.8040 C.3   105  LYS105      0.1093
     26  NZ        23.8650   -6.1860  -16.2120 N.3   105  LYS105     -0.1314
     27  N         21.1890  -14.5180  -25.9460 N.3   110  LYS110     -0.1245
     28  CA        22.5570  -14.3610  -26.4600 C.3   110  LYS110      0.1561
     29  C         22.7610  -15.4700  -27.4790 C.2   110  LYS110      0.2260
     30  O         22.3080  -16.5930  -27.2650 O.2   110  LYS110     -0.2867
     31  CB        23.6010  -14.5190  -25.3650 C.3   110  LYS110      0.0271
     32  CG        24.3940  -13.2660  -25.0930 C.3   110  LYS110      0.0035
     33  CD        25.7920  -13.6030  -24.6560 C.3   110  LYS110      0.0206
     34  CE        26.6740  -12.3810  -24.5270 C.3   110  LYS110      0.1093
     35  NZ        26.7360  -11.8600  -23.1480 N.3   110  LYS110     -0.1314
     36  N         28.1850  -15.4430  -29.5510 N.3   114  ARG114     -0.1245
     37  CA        28.4500  -14.3270  -28.6320 C.3   114  ARG114      0.1563
     38  C         28.6460  -14.7640  -27.1780 C.2   114  ARG114      0.2260
     39  O         28.9360  -13.9250  -26.3150 O.2   114  ARG114     -0.2867
     40  CB        27.4020  -13.2100  -28.7490 C.3   114  ARG114      0.0307
     41  CG        27.4460  -12.3390  -30.0380 C.3   114  ARG114      0.0489
     42  CD        28.5370  -11.2440  -30.0040 C.3   114  ARG114      0.2205
     43  NE        29.7840  -11.6870  -30.6410 N.pl3 114  ARG114     -0.0865
     44  CZ        30.2470  -11.2690  -31.8220 C.cat 114  ARG114      0.5346
     45  NH1       29.6040  -10.3500  -32.5450 N.pl3 114  ARG114      0.1354
     46  NH2       31.3810  -11.7710  -32.2820 N.pl3 114  ARG114      0.1354
     47  N         30.6740  -17.1080  -24.0920 N.3   116  HIS116     -0.1241
     48  CA        31.9180  -17.7560  -23.6780 C.3   116  HIS116      0.1621
     49  C         32.0600  -17.9070  -22.1620 C.2   116  HIS116      0.2264
     50  O         31.4620  -17.1310  -21.4100 O.2   116  HIS116     -0.2867
     51  CB        33.1330  -17.0370  -24.2820 C.3   116  HIS116      0.0745
     52  CG        33.3130  -15.6180  -23.8370 C.ar  116  HIS116      0.0817
     53  ND1       33.1940  -14.5520  -24.7040 N.ar  116  HIS116     -0.2268
     54  CD2       33.6710  -15.0920  -22.6390 C.ar  116  HIS116      0.1154
     55  CE1       33.4380  -13.4270  -24.0510 C.ar  116  HIS116      0.1986
     56  NE2       33.7340  -13.7280  -22.7980 N.ar  116  HIS116     -0.2212
     57  N         32.7360  -17.5620  -18.4420 N.3   118  GLY118     -0.1210
     58  CA        33.0480  -16.4250  -17.5890 C.3   118  GLY118      0.1956
     59  C         32.0110  -15.3190  -17.6650 C.2   118  GLY118      0.2612
     60  O         32.0480  -14.3780  -16.8590 O.2   118  GLY118     -0.2717
     61  N         31.0960  -15.4080  -18.6370 N.am  119  GLN119     -0.1965
     62  CA        30.0100  -14.4330  -18.7410 C.3   119  GLN119      0.1733
     63  C         28.9450  -14.7570  -17.7160 C.2   119  GLN119      0.2616
     64  O         28.7360  -15.9210  -17.4010 O.2   119  GLN119     -0.2715
     65  CB        29.3830  -14.4630  -20.1250 C.3   119  GLN119      0.0408
     66  CG        30.2610  -13.9620  -21.2660 C.3   119  GLN119      0.0908
     67  CD        29.5990  -14.1700  -22.6140 C.2   119  GLN119      0.2608
     68  OE1       28.7560  -15.0440  -22.7700 O.2   119  GLN119     -0.2717
     69  NE2       29.9630  -13.3600  -23.5900 N.am  119  GLN119     -0.0878
     70  N         28.2830  -13.7350  -17.1880 N.am  120  LYS120     -0.1963
     71  CA        27.0950  -13.9320  -16.3780 C.3   120  LYS120      0.1728
     72  C         25.9410  -14.5010  -17.2110 C.2   120  LYS120      0.2616
     73  O         25.0610  -15.1980  -16.6870 O.2   120  LYS120     -0.2715
     74  CB        26.6770  -12.6250  -15.7140 C.3   120  LYS120      0.0311
     75  CG        27.4580  -12.2880  -14.4340 C.3   120  LYS120      0.0038
     76  CD        26.6900  -11.2880  -13.5970 C.3   120  LYS120      0.0206
     77  CE        27.2070  -11.2650  -12.1590 C.3   120  LYS120      0.1093
     78  NZ        26.2780  -10.5360  -11.2110 N.3   120  LYS120     -0.1314
     79  N         26.0140  -14.2680  -18.5180 N.am  121  ALA121     -0.1977
     80  CA        24.9800  -14.6190  -19.4790 C.3   121  ALA121      0.1597
     81  C         24.7170  -16.1130  -19.5130 C.2   121  ALA121      0.2287
     82  O         23.5910  -16.5260  -19.8180 O.2   121  ALA121     -0.2864
     83  CB        25.3830  -14.1520  -20.8580 C.3   121  ALA121      0.0319
@<TRIPOS>BOND
     1    45    44    1
     2    46    44    1
     3    44    43    2
     4    43    42    1
     5    41    42    1
     6    41    40    1
     7    36    37    1
     8    40    37    1
     9    37    38    1
    10    29    30    2
    11    29    28    1
    12    17    16    1
    13    38    39    2
    14    28    27    1
    15    28    31    1
    16    16    15    1
    17    15    14    1
    18    31    32    1
    19    32    33    1
    20    53    55   ar
    21    53    52   ar
    22    33    34    1
    23    34    35    1
    24    14    13    1
    25    51    52    1
    26    51    48    1
    27    47    48    1
    28    55    56   ar
    29    52    54   ar
    30    48    49    1
    31    69    67   am
    32    13    10    1
    33    56    54   ar
    34    68    67    2
    35    67    66    1
    36     9    10    1
    37    49    50    2
    38    10    11    1
    39    66    65    1
    40    11    18   am
    41    11    12    2
    42    83    80    1
    43    18    19    1
    44    65    62    1
    45    82    81    2
    46    20    19    1
    47    20    21    2
    48    19    22    1
    49    81    80    1
    50    80    79    1
    51    22    23    1
    52     8     6   am
    53    62    61    1
    54    62    63    1
    55    61    59   am
    56    79    72   am
    57    57    58    1
    58    23    24    1
    59     6     7    2
    60     6     5    1
    61    63    64    2
    62    63    70   am
    63    59    58    1
    64    59    60    2
    65     5     2    1
    66    72    73    2
    67    72    71    1
    68    70    71    1
    69    24    25    1
    70    71    74    1
    71    26    25    1
    72     2     3    1
    73     2     1    1
    74    74    75    1
    75     3     4    2
    76    75    76    1
    77    76    77    1
    78    77    78    1
