@<TRIPOS>MOLECULE
tmp/3uddB00.pdb
 158 159 0 0 0
SMALL
GASTEIGER

@<TRIPOS>ATOM
      1  N        -45.9670    8.7980   32.2100 N.3    80  HIS80      -0.1226
      2  CA       -46.1380    7.6030   31.4010 C.3    80  HIS80       0.1752
      3  C        -47.4920    6.9960   31.7490 C.2    80  HIS80       0.2597
      4  O        -47.7980    6.8060   32.9320 O.2    80  HIS80      -0.2718
      5  CB       -45.0300    6.5350   31.6490 C.3    80  HIS80       0.0759
      6  CG       -45.2990    5.2690   30.8860 C.ar   80  HIS80       0.0818
      7  ND1      -44.9650    5.1460   29.5350 N.ar   80  HIS80      -0.2268
      8  CD2      -45.9250    4.1330   31.2860 C.ar   80  HIS80       0.1154
      9  CE1      -45.4000    3.9490   29.1680 C.ar   80  HIS80       0.1986
     10  NE2      -46.0040    3.3130   30.1810 N.ar   80  HIS80      -0.2212
     11  N        -48.2190    6.5960   30.7160 N.am   81  GLY81      -0.1942
     12  CA       -49.4800    5.8870   30.8880 C.3    81  GLY81       0.2014
     13  C        -49.4760    4.6800   29.9740 C.2    81  GLY81       0.2640
     14  O        -48.9960    4.7610   28.8340 O.2    81  GLY81      -0.2714
     15  N        -49.9560    3.5360   30.4880 N.am   82  SER82      -0.1936
     16  CA       -50.1170    2.2800   29.7270 C.3    82  SER82       0.2040
     17  C        -50.9050    1.2990   30.5990 C.2    82  SER82       0.2485
     18  O        -50.9200    1.5070   31.8150 O.2    82  SER82      -0.2729
     19  CB       -48.7530    1.6710   29.3430 C.3    82  SER82       0.2129
     20  OG       -48.0070    1.1520   30.4330 O.3    82  SER82      -0.2179
     21  N        -51.5200    0.2090   30.0570 N.am   83  PRO83      -0.2715
     22  CA       -52.1600   -0.7890   30.9500 C.3    83  PRO83       0.1536
     23  C        -51.1360   -1.7280   31.5990 C.2    83  PRO83       0.2598
     24  O        -51.5160   -2.7490   32.1860 O.2    83  PRO83      -0.2715
     25  CB       -53.0880   -1.5880   30.0150 C.3    83  PRO83       0.0310
     26  CG       -52.7950   -1.1330   28.6260 C.3    83  PRO83       0.0237
     27  CD       -51.6340   -0.1890   28.6390 C.3    83  PRO83       0.0939
     28  N        -49.8310   -1.3950   31.5160 N.am   84  PHE84      -0.1974
     29  CA       -48.7910   -2.2880   32.0440 C.3    84  PHE84       0.1639
     30  C        -48.0940   -1.7710   33.2940 C.2    84  PHE84       0.2290
     31  O        -47.0220   -2.2520   33.5970 O.2    84  PHE84      -0.2864
     32  CB       -47.7500   -2.5990   30.9440 C.3    84  PHE84       0.0560
     33  CG       -48.3600   -3.0700   29.6480 C.ar   84  PHE84      -0.0200
     34  CD1      -48.9200   -4.3430   29.5450 C.ar   84  PHE84      -0.0042
     35  CD2      -48.3690   -2.2470   28.5270 C.ar   84  PHE84      -0.0042
     36  CE1      -49.4840   -4.7830   28.3380 C.ar   84  PHE84      -0.0003
     37  CE2      -48.9330   -2.6810   27.3230 C.ar   84  PHE84      -0.0003
     38  CZ       -49.4900   -3.9490   27.2340 C.ar   84  PHE84      -0.0000
     39  N        -46.8270   -4.3900   35.9000 N.3    87  ALA87      -0.1231
     40  CA       -45.6620   -5.1230   35.3830 C.3    87  ALA87       0.1694
     41  C        -44.4070   -4.2150   35.4250 C.2    87  ALA87       0.2591
     42  O        -43.3290   -4.6730   35.8310 O.2    87  ALA87      -0.2718
     43  CB       -45.9290   -5.5640   33.9510 C.3    87  ALA87       0.0304
     44  N        -44.5580   -2.9210   35.0450 N.am   88  ILE88      -0.1980
     45  CA       -43.4420   -1.9430   35.0190 C.3    88  ILE88       0.1595
     46  C        -42.8150   -1.6940   36.4000 C.2    88  ILE88       0.2287
     47  O        -41.5940   -1.6610   36.5230 O.2    88  ILE88      -0.2864
     48  CB       -43.8450   -0.6240   34.2910 C.3    88  ILE88       0.0276
     49  CG1      -44.0880   -0.8670   32.7810 C.3    88  ILE88       0.0022
     50  CG2      -42.8050    0.4820   34.5120 C.3    88  ILE88       0.0022
     51  CD1      -45.0230    0.1770   32.0930 C.3    88  ILE88       0.0001
     52  N        -41.0380   -5.2630   37.1720 N.3    91  LYS91      -0.1231
     53  CA       -40.0270   -5.7320   36.2230 C.3    91  LYS91       0.1693
     54  C        -39.2010   -4.6040   35.5550 C.2    91  LYS91       0.2593
     55  O        -38.1440   -4.8780   34.9820 O.2    91  LYS91      -0.2718
     56  CB       -40.6970   -6.5990   35.1420 C.3    91  LYS91       0.0285
     57  CG       -41.4490   -7.8200   35.6670 C.3    91  LYS91       0.0035
     58  CD       -42.0940   -8.5600   34.5120 C.3    91  LYS91       0.0206
     59  CE       -42.8620   -9.7900   34.9270 C.3    91  LYS91       0.1093
     60  NZ       -43.3090  -10.5790   33.7450 N.3    91  LYS91      -0.1314
     61  N        -39.6920   -3.3650   35.6280 N.am   92  GLY92      -0.1942
     62  CA       -39.0550   -2.2100   34.9910 C.3    92  GLY92       0.2014
     63  C        -39.5740   -2.0460   33.5820 C.2    92  GLY92       0.2639
     64  O        -40.2890   -2.9280   33.0670 O.2    92  GLY92      -0.2714
     65  N        -39.2320   -0.9210   32.9400 N.am   93  PHE93      -0.1959
     66  CA       -39.6490   -0.6840   31.5450 C.3    93  PHE93       0.1771
     67  C        -38.8580   -1.6700   30.6660 C.2    93  PHE93       0.2619
     68  O        -37.6960   -1.9550   30.9510 O.2    93  PHE93      -0.2715
     69  CB       -39.3410    0.7660   31.1230 C.3    93  PHE93       0.0574
     70  CG       -40.3190    1.7850   31.6730 C.ar   93  PHE93      -0.0200
     71  CD1      -41.5660    1.9820   31.0660 C.ar   93  PHE93      -0.0042
     72  CD2      -39.9700    2.5940   32.7480 C.ar   93  PHE93      -0.0042
     73  CE1      -42.4500    2.9590   31.5450 C.ar   93  PHE93      -0.0003
     74  CE2      -40.8590    3.5730   33.2250 C.ar   93  PHE93      -0.0003
     75  CZ       -42.0980    3.7280   32.6340 C.ar   93  PHE93      -0.0000
     76  N        -39.4960   -2.1850   29.6170 N.am   94  ASP94      -0.1971
     77  CA       -38.9330   -3.1900   28.7380 C.3    94  ASP94       0.1709
     78  C        -39.2950   -2.8390   27.2940 C.2    94  ASP94       0.2293
     79  O        -40.4670   -2.9200   26.9100 O.2    94  ASP94      -0.2864
     80  CB       -39.5180   -4.5510   29.1620 C.3    94  ASP94       0.1436
     81  CG       -39.0600   -5.7710   28.4020 C.2    94  ASP94       0.3671
     82  OD1      -38.2330   -5.6270   27.4620 O.co2  94  ASP94      -0.2456
     83  OD2      -39.5190   -6.8650   28.7350 O.co2  94  ASP94      -0.2456
     84  N        -41.6660   -4.6890   24.9230 N.3    97  HIS97      -0.1226
     85  CA       -43.1010   -4.4010   25.0400 C.3    97  HIS97       0.1752
     86  C        -43.3710   -2.9930   24.4760 C.2    97  HIS97       0.2596
     87  O        -44.3960   -2.3810   24.7930 O.2    97  HIS97      -0.2718
     88  CB       -43.5640   -4.4900   26.5090 C.3    97  HIS97       0.0759
     89  CG       -43.6780   -5.8920   26.9900 C.ar   97  HIS97       0.0818
     90  ND1      -44.7650   -6.6970   26.6360 N.ar   97  HIS97      -0.2268
     91  CD2      -42.8300   -6.6100   27.7630 C.ar   97  HIS97       0.1154
     92  CE1      -44.5440   -7.8620   27.2160 C.ar   97  HIS97       0.1986
     93  NE2      -43.3950   -7.8570   27.9070 N.ar   97  HIS97      -0.2212
     94  N        -42.4630   -2.5020   23.6010 N.am   98  ALA98      -0.1966
     95  CA       -42.5890   -1.1990   22.9610 C.3    98  ALA98       0.1728
     96  C        -43.8830   -1.1420   22.1830 C.2    98  ALA98       0.2616
     97  O        -44.3890   -2.1710   21.7310 O.2    98  ALA98      -0.2715
     98  CB       -41.4270   -0.9690   22.0100 C.3    98  ALA98       0.0334
     99  N        -44.4250    0.0650   22.0440 N.am   99  TYR99      -0.1974
    100  CA       -45.6510    0.3340   21.3120 C.3    99  TYR99       0.1639
    101  C        -45.3020    0.3450   19.7900 C.2    99  TYR99       0.2290
    102  O        -44.8630    1.3690   19.2550 O.2    99  TYR99      -0.2864
    103  CB       -46.2030    1.6770   21.8300 C.3    99  TYR99       0.0560
    104  CG       -47.3410    2.3050   21.0550 C.ar   99  TYR99      -0.0198
    105  CD1      -48.2390    1.5200   20.3260 C.ar   99  TYR99      -0.0009
    106  CD2      -47.5960    3.6710   21.1460 C.ar   99  TYR99      -0.0009
    107  CE1      -49.2880    2.0980   19.6090 C.ar   99  TYR99       0.0417
    108  CE2      -48.6900    4.2500   20.4960 C.ar   99  TYR99       0.0417
    109  CZ       -49.5150    3.4610   19.7050 C.ar   99  TYR99       0.1957
    110  OH       -50.5720    4.0300   19.0440 O.3    99  TYR99      -0.2866
    111  N        -41.0860    2.4280   20.3290 N.3   107  GLY107     -0.1210
    112  CA       -40.4610    2.8920   21.5610 C.3   107  GLY107      0.1956
    113  C        -41.4490    2.9520   22.7000 C.2   107  GLY107      0.2612
    114  O        -42.5720    2.4380   22.5830 O.2   107  GLY107     -0.2717
    115  N        -40.9970    3.5240   23.8220 N.am  108  ILE108     -0.1965
    116  CA       -41.7260    3.7220   25.0830 C.3   108  ILE108      0.1727
    117  C        -41.9680    5.2180   25.1790 C.2   108  ILE108      0.2616
    118  O        -41.0270    6.0070   25.0920 O.2   108  ILE108     -0.2715
    119  CB       -40.9680    3.1670   26.3350 C.3   108  ILE108      0.0290
    120  CG1      -40.5960    1.6830   26.1120 C.3   108  ILE108      0.0022
    121  CG2      -41.8700    3.3320   27.6000 C.3   108  ILE108      0.0023
    122  CD1      -39.5300    1.1210   27.0870 C.3   108  ILE108      0.0001
    123  N        -43.2430    5.5820   25.2940 N.am  109  TYR109     -0.1974
    124  CA       -43.7460    6.9450   25.2270 C.3   109  TYR109      0.1639
    125  C        -43.9760    7.6130   26.5510 C.2   109  TYR109      0.2290
    126  O        -44.5180    7.0180   27.4850 O.2   109  TYR109     -0.2864
    127  CB       -45.0190    6.9900   24.3160 C.3   109  TYR109      0.0560
    128  CG       -44.7100    6.7290   22.8490 C.ar  109  TYR109     -0.0198
    129  CD1      -44.2250    5.4930   22.4230 C.ar  109  TYR109     -0.0009
    130  CD2      -44.9490    7.7050   21.8800 C.ar  109  TYR109     -0.0009
    131  CE1      -43.8930    5.2660   21.0840 C.ar  109  TYR109      0.0417
    132  CE2      -44.6420    7.4790   20.5310 C.ar  109  TYR109      0.0417
    133  CZ       -44.1220    6.2560   20.1390 C.ar  109  TYR109      0.1957
    134  OH       -43.7800    6.0460   18.8260 O.3   109  TYR109     -0.2866
    135  N        -53.6000    6.8940   27.5530 N.3   120  TYR120     -0.1241
    136  CA       -53.0300    5.5580   27.3160 C.3   120  TYR120      0.1605
    137  C        -53.2970    4.5220   28.4260 C.2   120  TYR120      0.2264
    138  O        -53.0330    3.3400   28.2330 O.2   120  TYR120     -0.2867
    139  CB       -51.5120    5.6780   27.1410 C.3   120  TYR120      0.0534
    140  CG       -51.0120    6.3370   25.8650 C.ar  120  TYR120     -0.0201
    141  CD1      -51.2480    5.7590   24.6130 C.ar  120  TYR120     -0.0009
    142  CD2      -50.1800    7.4530   25.9170 C.ar  120  TYR120     -0.0009
    143  CE1      -50.7210    6.3210   23.4420 C.ar  120  TYR120      0.0417
    144  CE2      -49.6330    8.0090   24.7600 C.ar  120  TYR120      0.0417
    145  CZ       -49.8840    7.4280   23.5290 C.ar  120  TYR120      0.1957
    146  OH       -49.3220    8.0000   22.4140 O.3   120  TYR120     -0.2866
    147  N        -55.4690    1.7250   27.3320 N.3   123  GLY123     -0.1210
    148  CA       -55.0270    1.2070   26.0350 C.3   123  GLY123      0.1956
    149  C        -54.7830    2.3280   25.0410 C.2   123  GLY123      0.2611
    150  O        -54.8890    3.5000   25.4090 O.2   123  GLY123     -0.2717
    151  N        -54.4510    1.9810   23.7720 N.am  124  ILE124     -0.1979
    152  CA       -54.2710    2.9490   22.6710 C.3   124  ILE124      0.1595
    153  C        -55.6220    3.5850   22.4290 C.2   124  ILE124      0.2287
    154  O        -56.6080    2.8650   22.3230 O.2   124  ILE124     -0.2864
    155  CB       -53.7180    2.2820   21.3810 C.3   124  ILE124      0.0276
    156  CG1      -52.3630    1.5740   21.6360 C.3   124  ILE124      0.0022
    157  CG2      -53.6170    3.3020   20.2090 C.3   124  ILE124      0.0022
    158  CD1      -51.2550    2.5150   22.3920 C.3   124  ILE124      0.0001
@<TRIPOS>BOND
     1   134   133    1
     2   110   109    1
     3   102   101    2
     4   107   109   ar
     5   107   105   ar
     6   109   108   ar
     7   101   100    1
     8   133   132   ar
     9   133   131   ar
    10   157   155    1
    11   105   104   ar
    12   111   112    1
    13   108   106   ar
    14   132   130   ar
    15   104   106   ar
    16   104   103    1
    17   131   129   ar
    18   100   103    1
    19   100    99    1
    20   155   156    1
    21   155   152    1
    22   112   113    1
    23   156   158    1
    24    97    96    2
    25   130   128   ar
    26    98    95    1
    27    99    96   am
    28    96    95    1
    29   154   153    2
    30   146   145    1
    31   129   128   ar
    32   153   152    1
    33   114   113    2
    34   152   151    1
    35   113   115   am
    36   128   127    1
    37    95    94    1
    38   143   145   ar
    39   143   141   ar
    40   145   144   ar
    41    94    86   am
    42   151   149   am
    43   115   116    1
    44   127   124    1
    45    86    87    2
    46    86    85    1
    47   141   140   ar
    48   144   142   ar
    49    84    85    1
    50    85    88    1
    51   149   150    2
    52   149   148    1
    53   116   117    1
    54   116   119    1
    55   118   117    2
    56   117   123   am
    57   124   123    1
    58   124   125    1
    59   140   142   ar
    60   140   139    1
    61   148   147    1
    62   120   119    1
    63   120   122    1
    64   119   121    1
    65    88    89    1
    66   125   126    2
    67    90    89   ar
    68    90    92   ar
    69    79    78    2
    70    89    91   ar
    71   139   136    1
    72    92    93   ar
    73    38    37   ar
    74    38    36   ar
    75    78    77    1
    76   136   135    1
    77   136   137    1
    78    37    35   ar
    79    82    81   ar
    80    91    93   ar
    81   138   137    2
    82    36    34   ar
    83    81    83   ar
    84    81    80    1
    85    35    33   ar
    86    26    27    1
    87    26    25    1
    88    27    21    1
    89    77    80    1
    90    77    76    1
    91    14    13    2
    92     9     7   ar
    93     9    10   ar
    94    19    16    1
    95    19    20    1
    96     7     6   ar
    97    34    33   ar
    98    76    67   am
    99    33    32    1
   100    16    15    1
   101    16    17    1
   102    13    15   am
   103    13    12    1
   104    25    22    1
   105    21    17   am
   106    21    22    1
   107    10     8   ar
   108    17    18    2
   109    67    68    2
   110    67    66    1
   111    11    12    1
   112    11     3   am
   113     6     8   ar
   114     6     5    1
   115    32    29    1
   116    22    23    1
   117    71    73   ar
   118    71    70   ar
   119    69    66    1
   120    69    70    1
   121     2     5    1
   122     2     3    1
   123     2     1    1
   124    28    23   am
   125    28    29    1
   126    66    65    1
   127    73    75   ar
   128    23    24    2
   129    70    72   ar
   130     3     4    2
   131    29    30    1
   132    51    49    1
   133    75    74   ar
   134    72    74   ar
   135    49    48    1
   136    65    63   am
   137    64    63    2
   138    30    31    2
   139    63    62    1
   140    60    59    1
   141    43    40    1
   142    48    50    1
   143    48    45    1
   144    58    59    1
   145    58    57    1
   146    55    54    2
   147    62    61    1
   148    45    44    1
   149    45    46    1
   150    44    41   am
   151    56    57    1
   152    56    53    1
   153    40    41    1
   154    40    39    1
   155    41    42    2
   156    54    61   am
   157    54    53    1
   158    53    52    1
   159    46    47    2
