@<TRIPOS>MOLECULE
tmp/3udgA01.pdb
 87 83 0 0 0
SMALL
GASTEIGER

@<TRIPOS>ATOM
      1  N         21.8250  -11.1490    5.3380 N.3    13  ALA13      -0.1231
      2  CA        22.8000  -12.1610    4.9420 C.3    13  ALA13       0.1694
      3  C         24.1430  -11.7750    5.5450 C.2    13  ALA13       0.2591
      4  O         24.9180  -12.6530    5.9670 O.2    13  ALA13      -0.2718
      5  CB        22.8950  -12.2720    3.4220 C.3    13  ALA13       0.0304
      6  N         24.3610  -10.4550    5.6290 N.am   14  ARG14      -0.1980
      7  CA        25.4700   -9.8150    6.3380 C.3    14  ARG14       0.1597
      8  C         25.0340   -8.3890    6.7300 C.2    14  ARG14       0.2287
      9  O         23.8550   -7.9860    6.5280 O.2    14  ARG14      -0.2864
     10  CB        26.6910   -9.7430    5.4270 C.3    14  ARG14       0.0334
     11  CG        26.4960   -8.8700    4.2080 C.3    14  ARG14       0.0492
     12  CD        27.1690   -9.4570    2.9790 C.3    14  ARG14       0.2205
     13  NE        27.2720   -8.4890    1.8760 N.pl3  14  ARG14      -0.0865
     14  CZ        28.3680   -7.7740    1.5680 C.cat  14  ARG14       0.5346
     15  NH1       29.5070   -7.8780    2.2710 N.pl3  14  ARG14       0.1354
     16  NH2       28.3320   -6.9380    0.5340 N.pl3  14  ARG14       0.1354
     17  N         20.9530   -7.0660    2.2740 N.3    31  THR31      -0.1218
     18  CA        20.6850   -8.2810    1.5240 C.3    31  THR31       0.1862
     19  C         19.8680   -9.1780    2.4310 C.2    31  THR31       0.2287
     20  O         20.2650   -9.5400    3.5390 O.2    31  THR31      -0.2866
     21  CB        21.9950   -8.9510    0.9910 C.3    31  THR31       0.1770
     22  OG1       22.5230   -8.1460   -0.0730 O.3    31  THR31      -0.2211
     23  CG2       21.7050  -10.3640    0.3890 C.3    31  THR31       0.0375
     24  N         15.6610  -21.2990   -2.0470 N.3    45  PRO45      -0.2116
     25  CA        16.4390  -20.2060   -1.4290 C.3    45  PRO45       0.1372
     26  C         16.3860  -18.9270   -2.2560 C.2    45  PRO45       0.2244
     27  O         16.1180  -18.9590   -3.4740 O.2    45  PRO45      -0.2868
     28  CB        17.8880  -20.7800   -1.3670 C.3    45  PRO45       0.0268
     29  CG        17.9540  -21.7220   -2.5230 C.3    45  PRO45       0.0207
     30  CD        16.5420  -22.2650   -2.7460 C.3    45  PRO45       0.0892
     31  N         17.9500  -14.5260   -2.3560 N.3    47  TYR47      -0.1241
     32  CA        18.8440  -13.4660   -1.7690 C.3    47  TYR47       0.1605
     33  C         18.4420  -12.2310   -2.4700 C.2    47  TYR47       0.2264
     34  O         18.4920  -12.2250   -3.6960 O.2    47  TYR47      -0.2867
     35  CB        20.3080  -13.7290   -2.1430 C.3    47  TYR47       0.0534
     36  CG        20.8680  -14.8790   -1.3720 C.ar   47  TYR47      -0.0201
     37  CD1       20.6710  -16.2050   -1.7850 C.ar   47  TYR47      -0.0009
     38  CD2       21.5490  -14.6430   -0.1950 C.ar   47  TYR47      -0.0009
     39  CE1       21.1490  -17.2690   -1.0070 C.ar   47  TYR47       0.0417
     40  CE2       22.0390  -15.6690    0.5690 C.ar   47  TYR47       0.0417
     41  CZ        21.8510  -16.9730    0.1610 C.ar   47  TYR47       0.1957
     42  OH        22.3650  -17.9390    0.9760 O.3    47  TYR47      -0.2866
     43  N         23.7200  -21.6820    7.0320 N.3   111  GLN111     -0.1231
     44  CA        24.9720  -21.1630    6.4640 C.3   111  GLN111      0.1698
     45  C         25.1840  -21.5000    4.9840 C.2   111  GLN111      0.2592
     46  O         24.8930  -22.6060    4.5800 O.2   111  GLN111     -0.2718
     47  CB        26.1570  -21.6400    7.2570 C.3   111  GLN111      0.0381
     48  CG        27.4790  -21.0690    6.7370 C.3   111  GLN111      0.0905
     49  CD        28.6570  -21.5930    7.5410 C.2   111  GLN111      0.2608
     50  OE1       29.2690  -22.6100    7.1630 O.2   111  GLN111     -0.2717
     51  NE2       28.9430  -20.9450    8.6930 N.am  111  GLN111     -0.0878
     52  N         25.6770  -20.5490    4.1820 N.am  112  ASP112     -0.1960
     53  CA        25.9930  -20.8090    2.7600 C.3   112  ASP112      0.1840
     54  C         27.5160  -20.8970    2.4780 C.2   112  ASP112      0.2622
     55  O         28.3410  -20.6820    3.3900 O.2   112  ASP112     -0.2715
     56  CB        25.2660  -19.8510    1.7830 C.3   112  ASP112      0.1450
     57  CG        25.5690  -18.3520    2.0160 C.2   112  ASP112      0.3671
     58  OD1       26.7540  -17.9380    2.0990 O.co2 112  ASP112     -0.2456
     59  OD2       24.5880  -17.5580    2.0660 O.co2 112  ASP112     -0.2456
     60  N         27.8730  -21.2140    1.2310 N.am  113  ALA113     -0.1963
     61  CA        29.2760  -21.3900    0.8450 C.3   113  ALA113      0.1728
     62  C         30.0480  -20.0920    1.0200 C.2   113  ALA113      0.2617
     63  O         31.0050  -20.0380    1.7930 O.2   113  ALA113     -0.2715
     64  CB        29.4010  -21.9170   -0.5870 C.3   113  ALA113      0.0334
     65  N         29.6000  -19.0370    0.3470 N.am  114  GLY114     -0.1940
     66  CA        30.2790  -17.7440    0.3970 C.3   114  GLY114      0.2014
     67  C         30.1360  -16.8670    1.6410 C.2   114  GLY114      0.2639
     68  O         30.0940  -15.6420    1.5150 O.2   114  GLY114     -0.2714
     69  N         30.0640  -17.4700    2.8320 N.am  115  GLY115     -0.1939
     70  CA        30.0940  -16.7080    4.0940 C.3   115  GLY115      0.2014
     71  C         28.7850  -16.1050    4.6250 C.2   115  GLY115      0.2639
     72  O         28.7450  -15.5560    5.7400 O.2   115  GLY115     -0.2714
     73  N         27.7080  -16.2000    3.8490 N.am  116  GLY116     -0.1954
     74  CA        26.4430  -15.6310    4.2880 C.3   116  GLY116      0.1869
     75  C         25.4920  -16.6130    4.9580 C.2   116  GLY116      0.2309
     76  O         25.6820  -17.8330    4.9270 O.2   116  GLY116     -0.2863
     77  N         21.1870  -17.4610    5.5280 N.3   118  ARG118     -0.1245
     78  CA        19.8520  -17.2440    5.0820 C.3   118  ARG118      0.1563
     79  C         18.9110  -17.8390    6.0990 C.2   118  ARG118      0.2260
     80  O         19.2660  -18.7800    6.7870 O.2   118  ARG118     -0.2867
     81  CB        19.6360  -17.7840    3.6880 C.3   118  ARG118      0.0307
     82  CG        19.7570  -19.2670    3.5510 C.3   118  ARG118      0.0489
     83  CD        19.4740  -19.6130    2.0920 C.3   118  ARG118      0.2205
     84  NE        19.5810  -21.0610    1.9200 N.pl3 118  ARG118     -0.0865
     85  CZ        20.7440  -21.6820    1.6960 C.cat 118  ARG118      0.5346
     86  NH1       21.8770  -20.9570    1.5820 N.pl3 118  ARG118      0.1354
     87  NH2       20.7760  -23.0100    1.5760 N.pl3 118  ARG118      0.1354
@<TRIPOS>BOND
     1    34    33    2
     2    27    26    2
     3    30    29    1
     4    30    24    1
     5    29    28    1
     6    33    32    1
     7    31    32    1
     8    26    25    1
     9    35    32    1
    10    35    36    1
    11    24    25    1
    12    37    36   ar
    13    37    39   ar
    14    25    28    1
    15    36    38   ar
    16    39    41   ar
    17    64    61    1
    18    38    40   ar
    19    22    21    1
    20    41    40   ar
    21    41    42    1
    22    65    66    1
    23    65    62   am
    24    23    21    1
    25    66    67    1
    26    16    14    1
    27    61    62    1
    28    61    60    1
    29    21    18    1
    30    62    63    2
    31    60    54   am
    32    68    67    2
    33    18    17    1
    34    18    19    1
    35    14    13    2
    36    14    15    1
    37    87    85    1
    38    86    85    1
    39    67    69   am
    40    85    84    2
    41    56    57    1
    42    56    53    1
    43    13    12    1
    44    84    83    1
    45    57    59   ar
    46    57    58   ar
    47    83    82    1
    48    19    20    2
    49    54    53    1
    50    54    55    2
    51    53    52    1
    52    69    70    1
    53    12    11    1
    54     5     2    1
    55    82    81    1
    56    81    78    1
    57    73    74    1
    58    73    71   am
    59    70    71    1
    60    52    45   am
    61    11    10    1
    62    74    75    1
    63    46    45    2
    64    71    72    2
    65    76    75    2
    66     2     1    1
    67     2     3    1
    68    45    44    1
    69    78    77    1
    70    78    79    1
    71    10     7    1
    72     3     6   am
    73     3     4    2
    74     6     7    1
    75    79    80    2
    76     7     8    1
    77    44    43    1
    78    44    47    1
    79     9     8    2
    80    48    47    1
    81    48    49    1
    82    50    49    2
    83    49    51   am
