@<TRIPOS>MOLECULE
tmp/3udhA00.pdb
 123 117 0 0 0
SMALL
GASTEIGER

@<TRIPOS>ATOM
      1  N         28.1480   39.4640   32.6620 N.3    32  LEU32      -0.1245
      2  CA        27.5160   38.2210   33.0870 C.3    32  LEU32       0.1561
      3  C         26.0810   38.1370   32.5550 C.2    32  LEU32       0.2260
      4  O         25.2730   39.0510   32.7790 O.2    32  LEU32      -0.2867
      5  CB        27.4890   38.1620   34.6040 C.3    32  LEU32       0.0270
      6  CG        26.8390   36.9070   35.2120 C.3    32  LEU32       0.0019
      7  CD1       27.7330   35.6650   34.9840 C.3    32  LEU32       0.0001
      8  CD2       26.5810   37.1080   36.7120 C.3    32  LEU32       0.0001
      9  N         22.6400   36.9310   33.0900 N.3    34  ASP34      -0.1239
     10  CA        21.9180   36.5530   34.2990 C.3    34  ASP34       0.1674
     11  C         20.3920   36.6110   34.1220 C.2    34  ASP34       0.2266
     12  O         19.7790   37.7030   34.0810 O.2    34  ASP34      -0.2867
     13  CB        22.3150   37.4850   35.4390 C.3    34  ASP34       0.1410
     14  CG        21.8820   36.9610   36.7970 C.2    34  ASP34       0.3668
     15  OD1       20.6770   37.1120   37.0870 O.co2  34  ASP34      -0.2456
     16  OD2       22.7310   36.4090   37.5370 O.co2  34  ASP34      -0.2456
     17  N         18.2670   35.6270   36.2570 N.3    36  GLY36      -0.1210
     18  CA        17.7050   35.6930   37.6220 C.3    36  GLY36       0.1956
     19  C         17.5470   37.1010   38.2180 C.2    36  GLY36       0.2612
     20  O         17.4230   37.2670   39.4380 O.2    36  GLY36      -0.2717
     21  N         17.7520   38.1110   37.3860 N.am   37  SER37      -0.1952
     22  CA        17.7260   39.5210   37.8010 C.3    37  SER37       0.1924
     23  C         17.3670   40.3880   36.5800 C.2    37  SER37       0.2314
     24  O         17.3210   39.8870   35.4500 O.2    37  SER37      -0.2863
     25  CB        19.0940   39.9260   38.3330 C.3    37  SER37       0.2116
     26  OG        20.0950   39.7090   37.3460 O.3    37  SER37      -0.2180
     27  N         21.7420   40.5130   47.2610 N.3    73  TYR73      -0.1227
     28  CA        21.2930   39.1420   47.0700 C.3    73  TYR73       0.1736
     29  C         21.6010   38.3170   48.3250 C.2    73  TYR73       0.2596
     30  O         22.2640   38.8020   49.2430 O.2    73  TYR73      -0.2718
     31  CB        21.9670   38.5260   45.8350 C.3    73  TYR73       0.0548
     32  CG        22.0700   39.4300   44.6080 C.ar   73  TYR73      -0.0200
     33  CD1       20.9530   39.7460   43.8290 C.ar   73  TYR73      -0.0009
     34  CD2       23.3140   39.8210   44.1430 C.ar   73  TYR73      -0.0009
     35  CE1       21.0860   40.5250   42.6510 C.ar   73  TYR73       0.0417
     36  CE2       23.4610   40.5480   42.9720 C.ar   73  TYR73       0.0417
     37  CZ        22.3530   40.9190   42.2450 C.ar   73  TYR73       0.1957
     38  OH        22.5550   41.6530   41.0800 O.3    73  TYR73      -0.2866
     39  N         21.1730   37.0570   48.3540 N.am   74  THR74      -0.1939
     40  CA        21.6270   36.1460   49.4150 C.3    74  THR74       0.2028
     41  C         23.1530   36.1600   49.4270 C.2    74  THR74       0.2642
     42  O         23.7890   36.3800   50.4590 O.2    74  THR74      -0.2714
     43  CB        21.1270   34.7000   49.1870 C.3    74  THR74       0.1808
     44  OG1       19.7110   34.7090   48.9500 O.3    74  THR74      -0.2208
     45  CG2       21.4170   33.8270   50.3990 C.3    74  THR74       0.0379
     46  N         23.7290   35.9770   48.2480 N.am   75  GLN75      -0.1976
     47  CA        25.1660   36.0170   48.0720 C.3    75  GLN75       0.1601
     48  C         25.5340   37.2080   47.1840 C.2    75  GLN75       0.2287
     49  O         25.2420   37.2090   45.9930 O.2    75  GLN75      -0.2864
     50  CB        25.6440   34.7090   47.4360 C.3    75  GLN75       0.0394
     51  CG        26.9980   34.8000   46.7160 C.3    75  GLN75       0.0908
     52  CD        27.7500   33.4880   46.7500 C.2    75  GLN75       0.2608
     53  OE1       28.0170   32.8860   45.7110 O.2    75  GLN75      -0.2717
     54  NE2       28.0440   33.0090   47.9540 N.am   75  GLN75      -0.0878
     55  N         31.2160   40.9690   47.8330 N.3   109  LYS109     -0.1231
     56  CA        31.0510   39.5620   47.5000 C.3   109  LYS109      0.1693
     57  C         30.1750   39.4200   46.2620 C.2   109  LYS109      0.2592
     58  O         29.3600   38.5050   46.1560 O.2   109  LYS109     -0.2718
     59  CB        30.4870   38.8020   48.7010 C.3   109  LYS109      0.0285
     60  CG        31.4130   38.8700   49.9240 C.3   109  LYS109      0.0035
     61  CD        30.7080   38.4110   51.1940 C.3   109  LYS109      0.0206
     62  CE        31.6290   38.4930   52.4220 C.3   109  LYS109      0.1093
     63  NZ        32.0550   39.8950   52.7620 N.3   109  LYS109     -0.1314
     64  N         30.3370   40.3820   45.3490 N.am  110  PHE110     -0.1976
     65  CA        29.6330   40.3790   44.0710 C.3   110  PHE110      0.1639
     66  C         30.5960   39.9840   42.9540 C.2   110  PHE110      0.2290
     67  O         30.4540   38.9230   42.3340 O.2   110  PHE110     -0.2864
     68  CB        29.0100   41.7570   43.8060 C.3   110  PHE110      0.0560
     69  CG        28.3320   41.8590   42.4710 C.ar  110  PHE110     -0.0200
     70  CD1       27.2530   41.0340   42.1570 C.ar  110  PHE110     -0.0042
     71  CD2       28.7840   42.7550   41.5250 C.ar  110  PHE110     -0.0042
     72  CE1       26.6180   41.1530   40.9200 C.ar  110  PHE110     -0.0003
     73  CE2       28.1770   42.8550   40.2980 C.ar  110  PHE110     -0.0003
     74  CZ        27.1330   42.0350   39.9760 C.ar  110  PHE110     -0.0000
     75  N         33.8480   38.4320   41.2330 N.3   112  ILE112     -0.1245
     76  CA        34.5150   37.1640   41.4980 C.3   112  ILE112      0.1561
     77  C         35.9270   37.1970   40.9120 C.2   112  ILE112      0.2260
     78  O         36.1020   37.3690   39.7010 O.2   112  ILE112     -0.2867
     79  CB        33.7400   35.9880   40.8800 C.3   112  ILE112      0.0252
     80  CG1       32.3040   35.9240   41.4200 C.3   112  ILE112      0.0019
     81  CG2       34.4760   34.6550   41.1520 C.3   112  ILE112      0.0019
     82  CD1       31.4690   34.7800   40.8080 C.3   112  ILE112      0.0001
     83  N         34.5190   38.8660   34.2670 N.3   117  TRP117     -0.1241
     84  CA        33.4250   39.7940   33.9870 C.3   117  TRP117      0.1605
     85  C         33.4050   41.0140   34.9290 C.2   117  TRP117      0.2264
     86  O         33.8540   40.9660   36.0990 O.2   117  TRP117     -0.2867
     87  CB        32.0450   39.0660   33.8980 C.3   117  TRP117      0.0550
     88  CG        31.6880   38.2700   35.0780 C.ar  117  TRP117      0.0003
     89  CD1       31.7490   36.9110   35.1750 C.ar  117  TRP117      0.0946
     90  CD2       31.0260   38.7160   36.2830 C.ar  117  TRP117      0.0152
     91  NE1       31.2780   36.4980   36.3780 N.ar  117  TRP117     -0.2442
     92  CE2       30.8290   37.5730   37.0860 C.ar  117  TRP117      0.0810
     93  CE3       30.6410   39.9670   36.7890 C.ar  117  TRP117      0.0012
     94  CZ2       30.2760   37.6490   38.3750 C.ar  117  TRP117      0.0191
     95  CZ3       30.0420   40.0270   38.0380 C.ar  117  TRP117      0.0001
     96  CH2       29.8980   38.8860   38.8260 C.ar  117  TRP117      0.0015
     97  N         26.7970   42.9100   34.9200 N.3   120  ILE120     -0.1245
     98  CA        25.7390   41.9180   34.9310 C.3   120  ILE120      0.1561
     99  C         24.5860   42.3760   34.0500 C.2   120  ILE120      0.2260
    100  O         24.2530   43.5680   34.0380 O.2   120  ILE120     -0.2867
    101  CB        25.2370   41.6570   36.3660 C.3   120  ILE120      0.0252
    102  CG1       24.1950   40.5340   36.3640 C.3   120  ILE120      0.0019
    103  CG2       24.6480   42.9310   37.0030 C.3   120  ILE120      0.0019
    104  CD1       23.9210   39.9970   37.7910 C.3   120  ILE120      0.0001
    105  N         17.7030   30.3650   36.2280 N.3   224  ASP224     -0.1239
    106  CA        18.7210   31.3940   36.4980 C.3   224  ASP224      0.1674
    107  C         20.1190   31.0280   35.9690 C.2   224  ASP224      0.2266
    108  O         20.8720   30.2470   36.5670 O.2   224  ASP224     -0.2867
    109  CB        18.7870   31.7350   37.9940 C.3   224  ASP224      0.1410
    110  CG        19.7790   32.8730   38.3010 C.2   224  ASP224      0.3668
    111  OD1       20.2680   33.5390   37.3580 O.co2 224  ASP224     -0.2456
    112  OD2       20.0660   33.1110   39.4970 O.co2 224  ASP224     -0.2456
    113  N         22.6580   32.7630   35.9660 N.3   226  GLY226     -0.1210
    114  CA        23.6930   33.3770   36.7950 C.3   226  GLY226      0.1956
    115  C         23.9380   32.6510   38.1000 C.2   226  GLY226      0.2612
    116  O         24.7470   33.0930   38.9320 O.2   226  GLY226     -0.2717
    117  N         23.2120   31.5480   38.2950 N.am  227  THR227     -0.1952
    118  CA        23.4570   30.6480   39.4140 C.3   227  THR227      0.1897
    119  C         24.1330   29.3790   38.9230 C.2   227  THR227      0.2313
    120  O         23.7060   28.8050   37.9330 O.2   227  THR227     -0.2863
    121  CB        22.1480   30.2960   40.1760 C.3   227  THR227      0.1794
    122  OG1       21.6650   31.4510   40.8860 O.3   227  THR227     -0.2208
    123  CG2       22.3990   29.1920   41.2050 C.3   227  THR227      0.0378
@<TRIPOS>BOND
     1     3     4    2
     2     3     2    1
     3     1     2    1
     4     2     5    1
     5     9    10    1
     6    87    84    1
     7    87    88    1
     8    84    83    1
     9    84    85    1
    10   100    99    2
    11    99    98    1
    12    12    11    2
    13    11    10    1
    14    10    13    1
    15     5     6    1
    16    97    98    1
    17    85    86    2
    18    98   101    1
    19     7     6    1
    20    88    89   ar
    21    88    90   ar
    22    89    91   ar
    23     6     8    1
    24    13    14    1
    25    24    23    2
    26   113   114    1
    27   107   106    1
    28   107   108    2
    29   105   106    1
    30    17    18    1
    31    90    93   ar
    32    90    92   ar
    33   102   101    1
    34   102   104    1
    35   101   103    1
    36    91    92   ar
    37   106   109    1
    38    23    22    1
    39    93    95   ar
    40   114   115    1
    41    14    15   ar
    42    14    16   ar
    43    92    94   ar
    44    26    25    1
    45   111   110   ar
    46    21    22    1
    47    21    19   am
    48    18    19    1
    49    22    25    1
    50   120   119    2
    51   109   110    1
    52    95    96   ar
    53   115   117   am
    54   115   116    2
    55    19    20    2
    56   117   118    1
    57   110   112   ar
    58    94    96   ar
    59   119   118    1
    60   118   121    1
    61    78    77    2
    62    74    73   ar
    63    74    72   ar
    64   121   122    1
    65   121   123    1
    66    73    71   ar
    67    82    80    1
    68    79    81    1
    69    79    80    1
    70    79    76    1
    71    77    76    1
    72    72    70   ar
    73    38    37    1
    74    75    76    1
    75    71    69   ar
    76    70    69   ar
    77    37    35   ar
    78    37    36   ar
    79    67    66    2
    80    69    68    1
    81    35    33   ar
    82    66    65    1
    83    36    34   ar
    84    68    65    1
    85    33    32   ar
    86    65    64    1
    87    34    32   ar
    88    32    31    1
    89    64    57   am
    90    53    52    2
    91    31    28    1
    92    49    48    2
    93    58    57    2
    94    57    56    1
    95    51    52    1
    96    51    50    1
    97    52    54   am
    98    28    27    1
    99    28    29    1
   100    48    47    1
   101    50    47    1
   102    56    55    1
   103    56    59    1
   104    47    46    1
   105    46    41   am
   106    29    39   am
   107    29    30    2
   108    39    40    1
   109    59    60    1
   110    44    43    1
   111    43    40    1
   112    43    45    1
   113    40    41    1
   114    41    42    2
   115    60    61    1
   116    61    62    1
   117    62    63    1
