@<TRIPOS>MOLECULE
tmp/3udiA00.pdb
 154 144 0 0 0
SMALL
GASTEIGER

@<TRIPOS>ATOM
      1  N         37.5930    6.6750    9.9510 N.3   347  GLY347     -0.1210
      2  CA        37.4950    5.3710   10.5980 C.3   347  GLY347      0.1956
      3  C         38.2560    4.3150    9.8300 C.2   347  GLY347      0.2612
      4  O         39.4580    4.4400    9.6120 O.2   347  GLY347     -0.2717
      5  N         37.5290    3.3250    9.3420 N.am  348  SER348     -0.1952
      6  CA        38.0320    2.1690    8.5940 C.3   348  SER348      0.1924
      7  C         38.2470    2.4320    7.1140 C.2   348  SER348      0.2314
      8  O         38.9750    1.6710    6.4830 O.2   348  SER348     -0.2863
      9  CB        37.1010    0.9770    8.7920 C.3   348  SER348      0.2116
     10  OG        37.6690    0.0960    9.7410 O.3   348  SER348     -0.2180
     11  N         42.0000    2.3870    5.8720 N.3   351  LYS351     -0.1245
     12  CA        42.7190    1.1110    5.7840 C.3   351  LYS351      0.1561
     13  C         43.1980    0.7330    4.3770 C.2   351  LYS351      0.2260
     14  O         44.3950    0.4840    4.2500 O.2   351  LYS351     -0.2867
     15  CB        41.9640   -0.0270    6.5020 C.3   351  LYS351      0.0271
     16  CG        41.8220    0.2340    7.9920 C.3   351  LYS351      0.0035
     17  CD        41.1450   -0.8710    8.7050 C.3   351  LYS351      0.0206
     18  CE        40.7590   -0.5080   10.1350 C.3   351  LYS351      0.1093
     19  NZ        41.8940    0.0100   10.9550 N.3   351  LYS351     -0.1314
     20  N         41.5950   -1.7180   20.6020 N.3   382  LYS382     -0.1245
     21  CA        40.7420   -2.9000   20.5790 C.3   382  LYS382      0.1561
     22  C         39.8830   -2.9730   19.3140 C.2   382  LYS382      0.2260
     23  O         39.3680   -1.9470   18.8540 O.2   382  LYS382     -0.2867
     24  CB        39.8800   -2.9760   21.8500 C.3   382  LYS382      0.0271
     25  CG        40.5670   -3.6730   23.0220 C.3   382  LYS382      0.0035
     26  CD        40.1450   -5.1470   23.1510 C.3   382  LYS382      0.0206
     27  CE        39.2550   -5.4030   24.3430 C.3   382  LYS382      0.1093
     28  NZ        39.0480   -6.8530   24.5710 N.3   382  LYS382     -0.1314
     29  N         36.6560   -4.0050   16.8140 N.3   384  SER384     -0.1217
     30  CA        35.2100   -3.7560   16.8160 C.3   384  SER384      0.1889
     31  C         34.3890   -4.6710   17.7530 C.2   384  SER384      0.2288
     32  O         33.6090   -4.1780   18.5790 O.2   384  SER384     -0.2866
     33  CB        34.6750   -3.8260   15.3860 C.3   384  SER384      0.2089
     34  OG        35.2000   -4.9240   14.6500 O.3   384  SER384     -0.2183
     35  N         39.0360   -6.6510    4.9820 N.3   399  TYR399     -0.1227
     36  CA        37.5910   -6.8200    4.9700 C.3   399  TYR399      0.1736
     37  C         36.9470   -6.6930    6.3540 C.2   399  TYR399      0.2595
     38  O         35.9770   -5.9450    6.4840 O.2   399  TYR399     -0.2718
     39  CB        37.1700   -8.1160    4.2540 C.3   399  TYR399      0.0548
     40  CG        35.6840   -8.3870    4.3350 C.ar  399  TYR399     -0.0200
     41  CD1       34.7600   -7.5000    3.7870 C.ar  399  TYR399     -0.0009
     42  CD2       35.1980   -9.5330    4.9580 C.ar  399  TYR399     -0.0009
     43  CE1       33.3910   -7.7280    3.8880 C.ar  399  TYR399      0.0417
     44  CE2       33.8280   -9.7850    5.0450 C.ar  399  TYR399      0.0417
     45  CZ        32.9270   -8.8780    4.5140 C.ar  399  TYR399      0.1957
     46  OH        31.5750   -9.1240    4.6070 O.3   399  TYR399     -0.2866
     47  N         37.4810   -7.3700    7.3800 N.am  400  LEU400     -0.1966
     48  CA        36.8970   -7.2910    8.7230 C.3   400  LEU400      0.1728
     49  C         37.3100   -6.0340    9.5030 C.2   400  LEU400      0.2616
     50  O         36.7930   -5.7750   10.6040 O.2   400  LEU400     -0.2715
     51  CB        37.1800   -8.5620    9.5380 C.3   400  LEU400      0.0311
     52  CG        36.8010   -9.9190    8.9370 C.3   400  LEU400      0.0022
     53  CD1       37.2350  -11.0260    9.8450 C.3   400  LEU400      0.0001
     54  CD2       35.3120  -10.0390    8.6960 C.3   400  LEU400      0.0001
     55  N         38.2130   -5.2350    8.8980 N.am  401  SER401     -0.1950
     56  CA        38.7850   -3.9950    9.4360 C.3   401  SER401      0.1924
     57  C         39.3690   -4.2240   10.8490 C.2   401  SER401      0.2314
     58  O         38.9330   -3.6160   11.8490 O.2   401  SER401     -0.2863
     59  CB        37.7810   -2.8480    9.3840 C.3   401  SER401      0.2116
     60  OG        37.2010   -2.7000    8.1000 O.3   401  SER401     -0.2180
     61  N         41.6630   -3.6350   13.4970 N.3   403  ASN403     -0.1240
     62  CA        42.4270   -2.4990   14.0050 C.3   403  ASN403      0.1653
     63  C         43.8560   -2.8360   14.4410 C.2   403  ASN403      0.2266
     64  O         44.7660   -2.0240   14.2310 O.2   403  ASN403     -0.2867
     65  CB        41.6620   -1.8370   15.1380 C.3   403  ASN403      0.1155
     66  CG        40.3640   -1.1840   14.7130 C.2   403  ASN403      0.2627
     67  OD1       40.1850   -0.7100   13.5750 O.2   403  ASN403     -0.2716
     68  ND2       39.4480   -1.0830   15.6580 N.am  403  ASN403     -0.0877
     69  N         44.1240    3.7520   12.4700 N.3   440  LEU440     -0.1245
     70  CA        42.7360    3.5390   12.9020 C.3   440  LEU440      0.1561
     71  C         41.7140    4.5320   12.3210 C.2   440  LEU440      0.2260
     72  O         40.5150    4.4190   12.6070 O.2   440  LEU440     -0.2867
     73  CB        42.6850    3.5270   14.4440 C.3   440  LEU440      0.0270
     74  CG        42.7560    2.1720   15.1600 C.3   440  LEU440      0.0019
     75  CD1       43.8570    1.2820   14.6150 C.3   440  LEU440      0.0001
     76  CD2       42.9250    2.3590   16.6530 C.3   440  LEU440      0.0001
     77  N         34.7590   -0.0040   -0.0030 N.3   534  LYS534     -0.1231
     78  CA        35.0660   -0.2190    1.4140 C.3   534  LYS534      0.1693
     79  C         34.0960    0.5750    2.2980 C.2   534  LYS534      0.2592
     80  O         33.8460    1.7600    2.0340 O.2   534  LYS534     -0.2718
     81  CB        36.5060    0.2710    1.7030 C.3   534  LYS534      0.0285
     82  CG        36.9830    0.0680    3.1440 C.3   534  LYS534      0.0035
     83  CD        37.4940   -1.3390    3.4190 C.3   534  LYS534      0.0206
     84  CE        37.7730   -1.4980    4.8920 C.3   534  LYS534      0.1093
     85  NZ        36.5440   -1.9090    5.6000 N.3   534  LYS534     -0.1314
     86  N         33.6000   -0.0580    3.3720 N.am  535  THR535     -0.1953
     87  CA        32.7400    0.5860    4.3730 C.3   535  THR535      0.1897
     88  C         33.6330    1.1010    5.5100 C.2   535  THR535      0.2313
     89  O         34.7490    0.6160    5.6980 O.2   535  THR535     -0.2863
     90  CB        31.7080   -0.3950    4.9640 C.3   535  THR535      0.1794
     91  OG1       32.3870   -1.5050    5.5420 O.3   535  THR535     -0.2208
     92  CG2       30.7020   -0.8510    3.9670 C.3   535  THR535      0.0378
     93  N         33.2370    2.6520    9.7960 N.3   537  THR537     -0.1203
     94  CA        32.4880    2.9720   11.0130 C.3   537  THR537      0.1994
     95  C         33.4960    3.3900   12.0940 C.2   537  THR537      0.2619
     96  O         34.4290    2.6480   12.3770 O.2   537  THR537     -0.2717
     97  CB        31.5450    1.8180   11.4370 C.3   537  THR537      0.1784
     98  OG1       30.9200    1.2560   10.2880 O.3   537  THR537     -0.2211
     99  CG2       30.4640    2.2710   12.3850 C.3   537  THR537      0.0376
    100  N         33.3340    4.5760   12.6670 N.am  538  THR538     -0.1938
    101  CA        34.2500    5.0610   13.7090 C.3   538  THR538      0.2028
    102  C         33.8090    4.5540   15.0900 C.2   538  THR538      0.2642
    103  O         32.7370    3.9510   15.2000 O.2   538  THR538     -0.2714
    104  CB        34.3470    6.6070   13.6640 C.3   538  THR538      0.1808
    105  OG1       33.0510    7.1540   13.8670 O.3   538  THR538     -0.2208
    106  CG2       34.9100    7.1210   12.3720 C.3   538  THR538      0.0379
    107  N         34.6160    4.8220   16.1420 N.am  539  ASN539     -0.1957
    108  CA        34.2710    4.4340   17.5050 C.3   539  ASN539      0.1819
    109  C         32.9040    4.9560   17.8890 C.2   539  ASN539      0.2621
    110  O         32.6060    6.1230   17.6570 O.2   539  ASN539     -0.2715
    111  CB        35.3510    4.8410   18.5100 C.3   539  ASN539      0.1195
    112  CG        36.4460    3.8110   18.5510 C.2   539  ASN539      0.2630
    113  OD1       36.3780    2.8410   19.3110 O.2   539  ASN539     -0.2716
    114  ND2       37.4080    3.9230   17.6550 N.am  539  ASN539     -0.0877
    115  N         32.0600    4.0540   18.4290 N.am  540  ASP540     -0.1957
    116  CA        30.6750    4.2940   18.8520 C.3   540  ASP540      0.1840
    117  C         29.7830    4.7950   17.7090 C.2   540  ASP540      0.2621
    118  O         28.9090    5.6250   17.9210 O.2   540  ASP540     -0.2715
    119  CB        30.5930    5.1460   20.1450 C.3   540  ASP540      0.1450
    120  CG        30.6700    4.3460   21.4520 C.2   540  ASP540      0.3671
    121  OD1       31.3160    4.8330   22.4090 O.co2 540  ASP540     -0.2456
    122  OD2       30.0790    3.2320   21.5170 O.co2 540  ASP540     -0.2456
    123  N         30.0200    4.2630   16.4880 N.am  541  ALA541     -0.1977
    124  CA        29.3150    4.5740   15.2430 C.3   541  ALA541      0.1597
    125  C         29.0140    6.0580   15.1230 C.2   541  ALA541      0.2287
    126  O         27.8840    6.4640   14.8450 O.2   541  ALA541     -0.2864
    127  CB        28.0440    3.7490   15.1370 C.3   541  ALA541      0.0319
    128  N         23.7380    1.2040   17.4990 N.3   569  ARG569     -0.1245
    129  CA        24.7160    0.1230   17.4980 C.3   569  ARG569      0.1563
    130  C         24.7740   -0.5810   16.1490 C.2   569  ARG569      0.2260
    131  O         25.8240   -0.5560   15.5000 O.2   569  ARG569     -0.2867
    132  CB        24.5380   -0.8350   18.6850 C.3   569  ARG569      0.0307
    133  CG        24.7650   -0.1700   20.0490 C.3   569  ARG569      0.0489
    134  CD        25.2750   -1.1060   21.1410 C.3   569  ARG569      0.2205
    135  NE        24.4600   -2.3130   21.3110 N.pl3 569  ARG569     -0.0865
    136  CZ        24.8550   -3.5370   20.9720 C.cat 569  ARG569      0.5346
    137  NH1       26.0590   -3.7330   20.4460 N.pl3 569  ARG569      0.1354
    138  NH2       24.0490   -4.5760   21.1560 N.pl3 569  ARG569      0.1354
    139  N         26.2090    0.7130   10.8910 N.3   572  TYR572     -0.1241
    140  CA        27.5550    0.7920   10.3190 C.3   572  TYR572      0.1605
    141  C         27.5500    1.4630    8.9180 C.2   572  TYR572      0.2264
    142  O         26.4740    1.7490    8.3790 O.2   572  TYR572     -0.2867
    143  CB        28.2000   -0.6120   10.2630 C.3   572  TYR572      0.0534
    144  CG        28.0420   -1.4560   11.5060 C.ar  572  TYR572     -0.0201
    145  CD1       28.6070   -1.0640   12.7170 C.ar  572  TYR572     -0.0009
    146  CD2       27.4020   -2.6930   11.4540 C.ar  572  TYR572     -0.0009
    147  CE1       28.4910   -1.8590   13.8590 C.ar  572  TYR572      0.0417
    148  CE2       27.2890   -3.5010   12.5850 C.ar  572  TYR572      0.0417
    149  CZ        27.8350   -3.0810   13.7860 C.ar  572  TYR572      0.1957
    150  OH        27.7270   -3.8940   14.8940 O.3   572  TYR572     -0.2866
    151  N         28.0740    0.1820    6.0220 N.3   574  GLY574     -0.1225
    152  CA        27.2980   -0.7120    5.1630 C.3   574  GLY574      0.1811
    153  C         25.7910   -0.6430    5.3360 C.2   574  GLY574      0.2280
    154  O         25.0520   -1.0980    4.4500 O.2   574  GLY574     -0.2866
@<TRIPOS>BOND
     1    77    78    1
     2    78    81    1
     3    78    79    1
     4    81    82    1
     5    80    79    2
     6    79    86   am
     7    82    83    1
     8    86    87    1
     9    83    84    1
    10    41    43   ar
    11    41    40   ar
    12    43    45   ar
    13    92    90    1
    14    14    13    2
    15    39    40    1
    16    39    36    1
    17    40    42   ar
    18    87    90    1
    19    87    88    1
    20    13    12    1
    21   154   153    2
    22    45    46    1
    23    45    44   ar
    24    84    85    1
    25    42    44   ar
    26    90    91    1
    27    36    35    1
    28    36    37    1
    29   152   153    1
    30   152   151    1
    31    88    89    2
    32    12    11    1
    33    12    15    1
    34    37    38    2
    35    37    47   am
    36     8     7    2
    37    15    16    1
    38     7     6    1
    39    47    48    1
    40    16    17    1
    41    60    59    1
    42   142   141    2
    43     6     9    1
    44     6     5    1
    45    54    52    1
    46    17    18    1
    47    48    49    1
    48    48    51    1
    49     9    10    1
    50    55    56    1
    51    55    49   am
    52   141   140    1
    53    52    51    1
    54    52    53    1
    55     5     3   am
    56    59    56    1
    57    56    57    1
    58    49    50    2
    59     4     3    2
    60    93    94    1
    61     3     2    1
    62     1     2    1
    63    18    19    1
    64   143   140    1
    65   143   144    1
    66    98    97    1
    67   140   139    1
    68    57    58    2
    69    94    97    1
    70    94    95    1
    71    97    99    1
    72   146   144   ar
    73   146   148   ar
    74   144   145   ar
    75    95    96    2
    76    95   100   am
    77    71    72    2
    78    71    70    1
    79   106   104    1
    80    69    70    1
    81   148   149   ar
    82   100   101    1
    83   145   147   ar
    84    70    73    1
    85    61    62    1
    86    67    66    2
    87   104   101    1
    88   104   105    1
    89   101   102    1
    90   149   147   ar
    91   149   150    1
    92    62    63    1
    93    62    65    1
    94    64    63    2
    95    73    74    1
    96    75    74    1
    97    34    33    1
    98    66    65    1
    99    66    68   am
   100   126   125    2
   101   102   103    2
   102   102   107   am
   103   125   124    1
   104   127   124    1
   105    74    76    1
   106   124   123    1
   107    33    30    1
   108   131   130    2
   109   107   108    1
   110   130   129    1
   111   123   117   am
   112    29    30    1
   113    30    31    1
   114   129   128    1
   115   129   132    1
   116   108   109    1
   117   108   111    1
   118   114   112   am
   119   110   109    2
   120   117   118    2
   121   117   116    1
   122    31    32    2
   123   109   115   am
   124   115   116    1
   125   111   112    1
   126   112   113    2
   127   132   133    1
   128   116   119    1
   129    23    22    2
   130    22    21    1
   131   133   134    1
   132   119   120    1
   133   137   136    1
   134    21    20    1
   135    21    24    1
   136   136   138    1
   137   136   135    2
   138   134   135    1
   139   120   122   ar
   140   120   121   ar
   141    24    25    1
   142    25    26    1
   143    26    27    1
   144    27    28    1
