@<TRIPOS>MOLECULE
tmp/3udjA00.pdb
 147 140 0 0 0
SMALL
GASTEIGER

@<TRIPOS>ATOM
      1  N         28.3320   39.9820   33.1450 N.3    32  LEU32      -0.1245
      2  CA        27.7130   38.7110   33.5840 C.3    32  LEU32       0.1561
      3  C         26.2760   38.6290   33.0810 C.2    32  LEU32       0.2260
      4  O         25.4880   39.5600   33.2560 O.2    32  LEU32      -0.2867
      5  CB        27.7170   38.6080   35.0980 C.3    32  LEU32       0.0270
      6  CG        27.1270   37.3290   35.7190 C.3    32  LEU32       0.0019
      7  CD1       28.0570   36.1140   35.5390 C.3    32  LEU32       0.0001
      8  CD2       26.8390   37.5280   37.2170 C.3    32  LEU32       0.0001
      9  N         22.8800   37.3260   33.7160 N.3    34  ASP34      -0.1239
     10  CA        22.1130   36.9460   34.9170 C.3    34  ASP34       0.1674
     11  C         20.5890   37.0140   34.7140 C.2    34  ASP34       0.2266
     12  O         19.9840   38.0900   34.7530 O.2    34  ASP34      -0.2867
     13  CB        22.4980   37.8390   36.0790 C.3    34  ASP34       0.1410
     14  CG        22.0850   37.2620   37.4340 C.2    34  ASP34       0.3668
     15  OD1       22.9170   36.5850   38.0820 O.co2  34  ASP34      -0.2456
     16  OD2       20.9090   37.3970   37.7920 O.co2  34  ASP34      -0.2456
     17  N         18.4870   35.9770   36.8780 N.3    36  GLY36      -0.1210
     18  CA        17.9420   36.0340   38.2310 C.3    36  GLY36       0.1956
     19  C         17.8310   37.4280   38.8340 C.2    36  GLY36       0.2612
     20  O         17.6320   37.5930   40.0510 O.2    36  GLY36      -0.2717
     21  N         17.9390   38.4290   37.9770 N.am   37  SER37      -0.1952
     22  CA        17.9230   39.8410   38.4000 C.3    37  SER37       0.1924
     23  C         17.6470   40.7570   37.2190 C.2    37  SER37       0.2314
     24  O         17.5500   40.2940   36.0740 O.2    37  SER37      -0.2863
     25  CB        19.2380   40.2270   39.0630 C.3    37  SER37       0.2116
     26  OG        20.2860   40.2300   38.1180 O.3    37  SER37      -0.2180
     27  N         22.2510   41.4120   47.9960 N.3    73  TYR73      -0.1227
     28  CA        21.8190   40.0270   47.9800 C.3    73  TYR73       0.1736
     29  C         22.1510   39.4150   49.3350 C.2    73  TYR73       0.2596
     30  O         22.6940   40.0880   50.2160 O.2    73  TYR73      -0.2718
     31  CB        22.5140   39.2460   46.8640 C.3    73  TYR73       0.0548
     32  CG        22.6140   39.9870   45.5440 C.ar   73  TYR73      -0.0200
     33  CD1       21.4880   40.2180   44.7620 C.ar   73  TYR73      -0.0009
     34  CD2       23.8440   40.4180   45.0640 C.ar   73  TYR73      -0.0009
     35  CE1       21.5870   40.8690   43.5410 C.ar   73  TYR73       0.0417
     36  CE2       23.9520   41.0770   43.8580 C.ar   73  TYR73       0.0417
     37  CZ        22.8270   41.2850   43.0900 C.ar   73  TYR73       0.1957
     38  OH        22.9490   41.9270   41.8750 O.3    73  TYR73      -0.2866
     39  N         21.8330   38.1370   49.4940 N.am   74  THR74      -0.1939
     40  CA        22.2360   37.4050   50.6890 C.3    74  THR74       0.2028
     41  C         23.7490   37.3790   50.7580 C.2    74  THR74       0.2642
     42  O         24.3590   37.9370   51.6770 O.2    74  THR74      -0.2714
     43  CB        21.7580   35.9460   50.6540 C.3    74  THR74       0.1808
     44  OG1       21.4650   35.5650   49.3060 O.3    74  THR74      -0.2208
     45  CG2       20.5130   35.7650   51.5190 C.3    74  THR74       0.0379
     46  N         24.3350   36.6410   49.8210 N.am   75  GLN75      -0.1963
     47  CA        25.7510   36.7790   49.4990 C.3    75  GLN75       0.1733
     48  C         25.9490   37.7180   48.3040 C.2    75  GLN75       0.2616
     49  O         25.6870   37.3550   47.1530 O.2    75  GLN75      -0.2715
     50  CB        26.3670   35.4060   49.2040 C.3    75  GLN75       0.0408
     51  CG        27.8770   35.4890   49.1280 C.3    75  GLN75       0.0908
     52  CD        28.4840   35.7100   50.4770 C.2    75  GLN75       0.2608
     53  OE1       28.3390   34.9030   51.3970 O.2    75  GLN75      -0.2717
     54  NE2       29.2360   36.7860   50.6220 N.am   75  GLN75      -0.0878
     55  N         26.4330   38.9220   48.5920 N.am   76  GLY76      -0.1955
     56  CA        26.7650   39.8880   47.5520 C.3    76  GLY76       0.1869
     57  C         26.0370   41.1980   47.7590 C.2    76  GLY76       0.2309
     58  O         24.9030   41.2240   48.2410 O.2    76  GLY76      -0.2863
     59  N         31.7350   41.7430   48.2920 N.3   109  LYS109     -0.1231
     60  CA        31.5210   40.3300   48.0310 C.3   109  LYS109      0.1693
     61  C         30.6430   40.1780   46.8020 C.2   109  LYS109      0.2592
     62  O         29.7690   39.3090   46.7440 O.2   109  LYS109     -0.2718
     63  CB        30.8780   39.6600   49.2500 C.3   109  LYS109      0.0285
     64  CG        31.8390   39.4820   50.4300 C.3   109  LYS109      0.0035
     65  CD        31.1600   39.7790   51.7630 C.3   109  LYS109      0.0206
     66  CE        32.1650   39.7820   52.9180 C.3   109  LYS109      0.1093
     67  NZ        32.4030   41.1470   53.4890 N.3   109  LYS109     -0.1314
     68  N         30.8240   41.1030   45.8640 N.am  110  PHE110     -0.1976
     69  CA        30.1070   41.0820   44.5830 C.3   110  PHE110      0.1639
     70  C         31.0510   40.6200   43.4760 C.2   110  PHE110      0.2290
     71  O         30.8850   39.5490   42.9020 O.2   110  PHE110     -0.2864
     72  CB        29.5740   42.4900   44.2530 C.3   110  PHE110      0.0560
     73  CG        28.7570   42.5480   42.9840 C.ar  110  PHE110     -0.0200
     74  CD1       27.6730   41.7030   42.8080 C.ar  110  PHE110     -0.0042
     75  CD2       29.1020   43.4160   41.9580 C.ar  110  PHE110     -0.0042
     76  CE1       26.9340   41.7320   41.6270 C.ar  110  PHE110     -0.0003
     77  CE2       28.3700   43.4460   40.7790 C.ar  110  PHE110     -0.0003
     78  CZ        27.3030   42.5850   40.6120 C.ar  110  PHE110     -0.0000
     79  N         34.1920   39.0250   41.6900 N.3   112  ILE112     -0.1245
     80  CA        34.8460   37.7440   41.9620 C.3   112  ILE112      0.1561
     81  C         36.2570   37.7450   41.3830 C.2   112  ILE112      0.2260
     82  O         36.4560   37.8330   40.1650 O.2   112  ILE112     -0.2867
     83  CB        34.0510   36.5650   41.3650 C.3   112  ILE112      0.0252
     84  CG1       32.6200   36.5520   41.9080 C.3   112  ILE112      0.0019
     85  CG2       34.7440   35.2390   41.6590 C.3   112  ILE112      0.0019
     86  CD1       31.7180   35.5290   41.2290 C.3   112  ILE112      0.0001
     87  N         34.7910   39.3920   34.6280 N.3   117  TRP117     -0.1241
     88  CA        33.6840   40.3340   34.3900 C.3   117  TRP117      0.1605
     89  C         33.6580   41.5420   35.3530 C.2   117  TRP117      0.2264
     90  O         34.1680   41.4850   36.4880 O.2   117  TRP117     -0.2867
     91  CB        32.3150   39.6050   34.3440 C.3   117  TRP117      0.0550
     92  CG        31.9530   38.7510   35.5350 C.ar  117  TRP117      0.0003
     93  CD1       32.0170   37.3870   35.6010 C.ar  117  TRP117      0.0946
     94  CD2       31.3620   39.1770   36.7840 C.ar  117  TRP117      0.0152
     95  NE1       31.5360   36.9460   36.8000 N.ar  117  TRP117     -0.2442
     96  CE2       31.1000   38.0130   37.5340 C.ar  117  TRP117      0.0810
     97  CE3       30.9910   40.4230   37.3210 C.ar  117  TRP117      0.0012
     98  CZ2       30.5550   38.0600   38.8220 C.ar  117  TRP117      0.0191
     99  CZ3       30.4260   40.4600   38.5810 C.ar  117  TRP117      0.0001
    100  CH2       30.2220   39.2910   39.3220 C.ar  117  TRP117      0.0015
    101  N         27.0270   43.4090   35.5530 N.3   120  ILE120     -0.1245
    102  CA        25.9520   42.4140   35.4820 C.3   120  ILE120      0.1561
    103  C         24.8250   42.8770   34.5300 C.2   120  ILE120      0.2260
    104  O         24.4730   44.0640   34.5040 O.2   120  ILE120     -0.2867
    105  CB        25.4050   42.1330   36.9120 C.3   120  ILE120      0.0252
    106  CG1       24.3360   41.0270   36.8790 C.3   120  ILE120      0.0019
    107  CG2       24.8930   43.4340   37.5890 C.3   120  ILE120      0.0019
    108  CD1       23.9310   40.4990   38.2650 C.3   120  ILE120      0.0001
    109  N         10.9810   37.2850   38.6930 N.3   194  TYR194     -0.1241
    110  CA        11.9370   36.2640   38.2750 C.3   194  TYR194      0.1605
    111  C         11.3500   35.4820   37.0750 C.2   194  TYR194      0.2264
    112  O         10.1860   35.6760   36.6860 O.2   194  TYR194     -0.2867
    113  CB        12.2310   35.3190   39.4350 C.3   194  TYR194      0.0534
    114  CG        12.8210   35.9670   40.6650 C.ar  194  TYR194     -0.0201
    115  CD1       14.1870   36.2870   40.7350 C.ar  194  TYR194     -0.0009
    116  CD2       12.0420   36.2080   41.7830 C.ar  194  TYR194     -0.0009
    117  CE1       14.7220   36.8370   41.8710 C.ar  194  TYR194      0.0417
    118  CE2       12.5650   36.8360   42.8970 C.ar  194  TYR194      0.0417
    119  CZ        13.9070   37.0810   42.9680 C.ar  194  TYR194      0.1957
    120  OH        14.4490   37.6130   44.1350 O.3   194  TYR194     -0.2866
    121  N         12.8920   29.1860   40.2120 N.3   222  ILE222     -0.1245
    122  CA        13.3370   30.1420   39.1920 C.3   222  ILE222      0.1561
    123  C         14.4900   29.5790   38.3470 C.2   222  ILE222      0.2260
    124  O         15.1970   28.6470   38.7810 O.2   222  ILE222     -0.2867
    125  CB        13.7980   31.5120   39.7980 C.3   222  ILE222      0.0252
    126  CG1       15.1630   31.3840   40.4950 C.3   222  ILE222      0.0019
    127  CG2       12.7520   32.1350   40.7810 C.3   222  ILE222      0.0019
    128  CD1       15.7080   32.7750   40.9700 C.3   222  ILE222      0.0001
    129  N         17.9430   30.6100   36.7270 N.3   224  ASP224     -0.1239
    130  CA        18.9560   31.6540   37.0010 C.3   224  ASP224      0.1674
    131  C         20.3550   31.2990   36.4840 C.2   224  ASP224      0.2266
    132  O         21.1240   30.6140   37.1540 O.2   224  ASP224     -0.2867
    133  CB        19.0300   31.9550   38.4970 C.3   224  ASP224      0.1410
    134  CG        20.0150   33.1000   38.8180 C.2   224  ASP224      0.3668
    135  OD1       20.3740   33.8410   37.8900 O.co2 224  ASP224     -0.2456
    136  OD2       20.4380   33.2260   39.9760 O.co2 224  ASP224     -0.2456
    137  N         22.8660   33.0710   36.5590 N.3   226  GLY226     -0.1210
    138  CA        23.8810   33.7180   37.4070 C.3   226  GLY226      0.1956
    139  C         24.1510   32.9790   38.7130 C.2   226  GLY226      0.2612
    140  O         24.8950   33.4580   39.6070 O.2   226  GLY226     -0.2717
    141  N         23.5310   31.8080   38.8400 N.am  227  THR227     -0.1952
    142  CA        23.7790   30.8910   39.9630 C.3   227  THR227      0.1897
    143  C         24.4000   29.6080   39.4260 C.2   227  THR227      0.2313
    144  O         23.9210   29.0790   38.4330 O.2   227  THR227     -0.2863
    145  CB        22.4690   30.5220   40.7080 C.3   227  THR227      0.1794
    146  OG1       21.9910   31.6510   41.4440 O.3   227  THR227     -0.2208
    147  CG2       22.7030   29.3630   41.6630 C.3   227  THR227      0.0378
@<TRIPOS>BOND
     1     3     4    2
     2     3     2    1
     3     1     2    1
     4     2     5    1
     5     9    10    1
     6    91    88    1
     7    91    92    1
     8    88    87    1
     9    88    89    1
    10   104   103    2
    11   103   102    1
    12    11    12    2
    13    11    10    1
    14    10    13    1
    15     5     6    1
    16    89    90    2
    17   102   101    1
    18   102   105    1
    19    92    93   ar
    20    92    94   ar
    21     7     6    1
    22    93    95   ar
    23     6     8    1
    24    24    23    2
    25    13    14    1
    26   131   130    1
    27   131   132    2
    28   137   138    1
    29   112   111    2
    30   129   130    1
    31    94    97   ar
    32    94    96   ar
    33    95    96   ar
    34    17    18    1
    35   106   105    1
    36   106   108    1
    37   105   107    1
    38   130   133    1
    39   111   110    1
    40    23    22    1
    41    97    99   ar
    42   138   139    1
    43    14    16   ar
    44    14    15   ar
    45    96    98   ar
    46   135   134   ar
    47    21    22    1
    48    21    19   am
    49    26    25    1
    50    18    19    1
    51   110   109    1
    52   110   113    1
    53   123   124    2
    54   123   122    1
    55    22    25    1
    56   144   143    2
    57   133   134    1
    58    99   100   ar
    59   139   141   am
    60   139   140    2
    61   134   136   ar
    62    98   100   ar
    63    19    20    2
    64   141   142    1
    65   122   125    1
    66   122   121    1
    67   143   142    1
    68   113   114    1
    69   125   126    1
    70   125   127    1
    71   142   145    1
    72    82    81    2
    73   126   128    1
    74    78    77   ar
    75    78    76   ar
    76   114   115   ar
    77   114   116   ar
    78   145   146    1
    79   145   147    1
    80   115   117   ar
    81    77    75   ar
    82    86    84    1
    83    83    85    1
    84    83    84    1
    85    83    80    1
    86    81    80    1
    87    76    74   ar
    88    79    80    1
    89   116   118   ar
    90   117   119   ar
    91    38    37    1
    92    75    73   ar
    93    74    73   ar
    94   118   119   ar
    95    71    70    2
    96   119   120    1
    97    73    72    1
    98    37    35   ar
    99    37    36   ar
   100    70    69    1
   101    35    33   ar
   102    36    34   ar
   103    72    69    1
   104    69    68    1
   105    33    32   ar
   106    34    32   ar
   107    32    31    1
   108    68    61   am
   109    62    61    2
   110    61    60    1
   111    31    28    1
   112    49    48    2
   113    56    57    1
   114    56    55    1
   115    57    58    2
   116    28    27    1
   117    28    29    1
   118    60    59    1
   119    60    63    1
   120    48    55   am
   121    48    47    1
   122    51    50    1
   123    51    52    1
   124    50    47    1
   125    63    64    1
   126    44    43    1
   127    29    39   am
   128    29    30    2
   129    39    40    1
   130    47    46    1
   131    46    41   am
   132    64    65    1
   133    52    54   am
   134    52    53    2
   135    43    40    1
   136    43    45    1
   137    40    41    1
   138    41    42    2
   139    65    66    1
   140    66    67    1
