@<TRIPOS>MOLECULE
tmp/3udkA00.pdb
 181 170 0 0 0
SMALL
GASTEIGER

@<TRIPOS>ATOM
      1  N         28.2650   40.0460   33.2540 N.3    32  LEU32      -0.1245
      2  CA        27.6760   38.7750   33.6870 C.3    32  LEU32       0.1561
      3  C         26.2350   38.6800   33.2460 C.2    32  LEU32       0.2260
      4  O         25.4640   39.6310   33.3790 O.2    32  LEU32      -0.2867
      5  CB        27.7300   38.6460   35.2130 C.3    32  LEU32       0.0270
      6  CG        27.0080   37.4530   35.8560 C.3    32  LEU32       0.0019
      7  CD1       27.7290   36.1280   35.5580 C.3    32  LEU32       0.0001
      8  CD2       26.8890   37.6730   37.3650 C.3    32  LEU32       0.0001
      9  N         22.6220   37.1560   33.7960 N.3    34  ASP34      -0.1239
     10  CA        22.0000   36.7840   35.0540 C.3    34  ASP34       0.1674
     11  C         20.4910   36.9220   34.9740 C.2    34  ASP34       0.2266
     12  O         19.9630   38.0320   35.0220 O.2    34  ASP34      -0.2867
     13  CB        22.5280   37.6580   36.1660 C.3    34  ASP34       0.1410
     14  CG        22.0060   37.2460   37.5140 C.2    34  ASP34       0.3668
     15  OD1       22.8140   36.7880   38.3520 O.co2  34  ASP34      -0.2456
     16  OD2       20.7860   37.3850   37.7360 O.co2  34  ASP34      -0.2456
     17  N         18.2760   36.1790   37.0210 N.3    36  GLY36      -0.1210
     18  CA        17.6750   36.2030   38.3490 C.3    36  GLY36       0.1956
     19  C         17.7730   37.5770   38.9870 C.2    36  GLY36       0.2612
     20  O         17.7540   37.7160   40.2140 O.2    36  GLY36      -0.2717
     21  N         17.9290   38.5870   38.1420 N.am   37  SER37      -0.1952
     22  CA        17.8940   39.9820   38.5600 C.3    37  SER37       0.1924
     23  C         17.4850   40.7910   37.3330 C.2    37  SER37       0.2314
     24  O         17.2740   40.2220   36.2600 O.2    37  SER37      -0.2863
     25  CB        19.2780   40.4260   39.0280 C.3    37  SER37       0.2116
     26  OG        20.2180   40.2900   37.9750 O.3    37  SER37      -0.2180
     27  N         22.4560   41.5880   48.1150 N.3    73  TYR73      -0.1227
     28  CA        22.1230   40.1890   47.8760 C.3    73  TYR73       0.1736
     29  C         22.2240   39.3810   49.1620 C.2    73  TYR73       0.2596
     30  O         22.4110   39.9250   50.2400 O.2    73  TYR73      -0.2718
     31  CB        23.0390   39.5960   46.8060 C.3    73  TYR73       0.0548
     32  CG        22.9440   40.3140   45.4830 C.ar   73  TYR73      -0.0200
     33  CD1       21.7150   40.5370   44.8810 C.ar   73  TYR73      -0.0009
     34  CD2       24.0770   40.8110   44.8620 C.ar   73  TYR73      -0.0009
     35  CE1       21.6230   41.2220   43.6870 C.ar   73  TYR73       0.0417
     36  CE2       23.9970   41.4930   43.6640 C.ar   73  TYR73       0.0417
     37  CZ        22.7740   41.6930   43.0770 C.ar   73  TYR73       0.1957
     38  OH        22.7010   42.3830   41.8880 O.3    73  TYR73      -0.2866
     39  N         22.0560   38.0790   49.0510 N.am   74  THR74      -0.1939
     40  CA        22.1650   37.2240   50.2090 C.3    74  THR74       0.2028
     41  C         23.6400   36.9940   50.5090 C.2    74  THR74       0.2642
     42  O         24.0870   37.1620   51.6440 O.2    74  THR74      -0.2714
     43  CB        21.4530   35.8920   49.9770 C.3    74  THR74       0.1808
     44  OG1       20.4360   35.7210   50.9690 O.3    74  THR74      -0.2208
     45  CG2       22.4360   34.7400   50.0390 C.3    74  THR74       0.0379
     46  N         24.4000   36.6620   49.4700 N.am   75  GLN75      -0.1963
     47  CA        25.8510   36.7920   49.5030 C.3    75  GLN75       0.1733
     48  C         26.3040   37.8400   48.4800 C.2    75  GLN75       0.2616
     49  O         26.1540   37.6420   47.2640 O.2    75  GLN75      -0.2715
     50  CB        26.5100   35.4420   49.2060 C.3    75  GLN75       0.0408
     51  CG        27.9910   35.4620   49.4650 C.3    75  GLN75       0.0908
     52  CD        28.3040   35.5620   50.9430 C.2    75  GLN75       0.2608
     53  OE1       27.7760   34.8290   51.8080 O.2    75  GLN75      -0.2717
     54  NE2       29.1730   36.5090   51.2960 N.am   75  GLN75      -0.0878
     55  N         26.8520   38.9500   48.9850 N.am   76  GLY76      -0.1955
     56  CA        27.3460   40.0410   48.1440 C.3    76  GLY76       0.1869
     57  C         26.5130   41.3010   48.2900 C.2    76  GLY76       0.2309
     58  O         25.3780   41.2470   48.7570 O.2    76  GLY76      -0.2863
     59  N         31.9360   42.1660   48.4260 N.3   109  LYS109     -0.1231
     60  CA        31.7980   40.7540   48.0690 C.3   109  LYS109      0.1693
     61  C         30.9660   40.5660   46.8060 C.2   109  LYS109      0.2592
     62  O         30.1990   39.6110   46.7030 O.2   109  LYS109     -0.2718
     63  CB        31.1700   39.9480   49.2210 C.3   109  LYS109      0.0285
     64  CG        32.0740   39.7570   50.4430 C.3   109  LYS109      0.0035
     65  CD        31.2710   39.4160   51.6970 C.3   109  LYS109      0.0206
     66  CE        32.1640   39.3140   52.9360 C.3   109  LYS109      0.1093
     67  NZ        32.3300   40.6210   53.6400 N.3   109  LYS109     -0.1314
     68  N         31.1610   41.4400   45.8260 N.am  110  PHE110     -0.1976
     69  CA        30.3700   41.3980   44.5990 C.3   110  PHE110      0.1639
     70  C         31.2170   40.9490   43.4150 C.2   110  PHE110      0.2290
     71  O         30.8870   39.9760   42.7300 O.2   110  PHE110     -0.2864
     72  CB        29.7600   42.7720   44.3050 C.3   110  PHE110      0.0560
     73  CG        28.9780   42.8230   43.0280 C.ar  110  PHE110     -0.0200
     74  CD1       27.8670   42.0220   42.8510 C.ar  110  PHE110     -0.0042
     75  CD2       29.3870   43.6310   41.9820 C.ar  110  PHE110     -0.0042
     76  CE1       27.1450   42.0730   41.6680 C.ar  110  PHE110     -0.0003
     77  CE2       28.6780   43.6760   40.8000 C.ar  110  PHE110     -0.0003
     78  CZ        27.5560   42.9060   40.6430 C.ar  110  PHE110     -0.0000
     79  N         34.2110   39.1240   41.6010 N.3   112  ILE112     -0.1245
     80  CA        34.9880   37.9160   41.8520 C.3   112  ILE112      0.1561
     81  C         36.3800   38.0220   41.2220 C.2   112  ILE112      0.2260
     82  O         36.5040   38.3210   40.0310 O.2   112  ILE112     -0.2867
     83  CB        34.2880   36.6830   41.2530 C.3   112  ILE112      0.0252
     84  CG1       32.9380   36.4410   41.9370 C.3   112  ILE112      0.0019
     85  CG2       35.1860   35.4550   41.3720 C.3   112  ILE112      0.0019
     86  CD1       31.9920   35.5560   41.1320 C.3   112  ILE112      0.0001
     87  N         34.7670   39.7190   34.6890 N.3   117  TRP117     -0.1241
     88  CA        33.6160   40.5480   34.3690 C.3   117  TRP117      0.1605
     89  C         33.4870   41.7220   35.3270 C.2   117  TRP117      0.2264
     90  O         33.9150   41.6600   36.4850 O.2   117  TRP117     -0.2867
     91  CB        32.3090   39.7300   34.2660 C.3   117  TRP117      0.0550
     92  CG        31.9350   38.8870   35.4740 C.ar  117  TRP117      0.0003
     93  CD1       32.0030   37.5300   35.5670 C.ar  117  TRP117      0.0946
     94  CD2       31.3140   39.3390   36.6910 C.ar  117  TRP117      0.0152
     95  NE1       31.5390   37.1120   36.7980 N.ar  117  TRP117     -0.2442
     96  CE2       31.1140   38.2040   37.5050 C.ar  117  TRP117      0.0810
     97  CE3       30.9500   40.5960   37.1860 C.ar  117  TRP117      0.0012
     98  CZ2       30.5350   38.2830   38.7710 C.ar  117  TRP117      0.0191
     99  CZ3       30.3820   40.6750   38.4480 C.ar  117  TRP117      0.0001
    100  CH2       30.1710   39.5240   39.2220 C.ar  117  TRP117      0.0015
    101  N         26.9660   43.3420   35.5970 N.3   120  ILE120     -0.1245
    102  CA        25.9170   42.3280   35.6230 C.3   120  ILE120      0.1561
    103  C         24.7850   42.7640   34.6790 C.2   120  ILE120      0.2260
    104  O         24.4460   43.9570   34.6140 O.2   120  ILE120     -0.2867
    105  CB        25.3890   42.1210   37.0790 C.3   120  ILE120      0.0252
    106  CG1       24.2640   41.0840   37.1230 C.3   120  ILE120      0.0019
    107  CG2       24.9150   43.4400   37.6970 C.3   120  ILE120      0.0019
    108  CD1       24.7260   39.6920   36.8240 C.3   120  ILE120      0.0001
    109  N         10.7290   37.1200   38.9390 N.3   194  TYR194     -0.1241
    110  CA        11.7100   36.1260   38.5190 C.3   194  TYR194      0.1605
    111  C         11.1560   35.3520   37.3260 C.2   194  TYR194      0.2264
    112  O          9.9450   35.2440   37.1360 O.2   194  TYR194     -0.2867
    113  CB        12.0150   35.1590   39.6650 C.3   194  TYR194      0.0534
    114  CG        12.6830   35.8000   40.8650 C.ar  194  TYR194     -0.0201
    115  CD1       14.0340   36.1230   40.8350 C.ar  194  TYR194     -0.0009
    116  CD2       11.9540   36.1170   42.0140 C.ar  194  TYR194     -0.0009
    117  CE1       14.6450   36.7420   41.9000 C.ar  194  TYR194      0.0417
    118  CE2       12.5550   36.7370   43.0950 C.ar  194  TYR194      0.0417
    119  CZ        13.9090   37.0470   43.0340 C.ar  194  TYR194      0.1957
    120  OH        14.5520   37.6250   44.1090 O.3   194  TYR194     -0.2866
    121  N          9.4070   29.3650   46.0870 N.3   220  LYS220     -0.1245
    122  CA         9.4110   29.6950   44.6680 C.3   220  LYS220      0.1561
    123  C         10.4490   28.8450   43.9720 C.2   220  LYS220      0.2260
    124  O         11.3980   28.3720   44.6010 O.2   220  LYS220     -0.2867
    125  CB         9.7260   31.1700   44.4380 C.3   220  LYS220      0.0271
    126  CG        11.1530   31.5450   44.7710 C.3   220  LYS220      0.0035
    127  CD        11.4310   33.0080   44.4760 C.3   220  LYS220      0.0206
    128  CE        12.8000   33.4360   45.0240 C.3   220  LYS220      0.1093
    129  NZ        12.9580   33.1930   46.4870 N.3   220  LYS220     -0.1314
    130  N         12.8640   29.1910   40.4920 N.3   222  ILE222     -0.1245
    131  CA        13.2980   30.1360   39.4810 C.3   222  ILE222      0.1561
    132  C         14.4510   29.5790   38.6580 C.2   222  ILE222      0.2260
    133  O         15.0860   28.5910   39.0300 O.2   222  ILE222     -0.2867
    134  CB        13.7250   31.4950   40.1090 C.3   222  ILE222      0.0252
    135  CG1       14.9820   31.3350   40.9670 C.3   222  ILE222      0.0019
    136  CG2       12.6040   32.0800   40.9530 C.3   222  ILE222      0.0019
    137  CD1       15.6400   32.6540   41.3060 C.3   222  ILE222      0.0001
    138  N         18.0650   30.7470   37.1460 N.3   224  ASP224     -0.1239
    139  CA        19.0490   31.7860   37.4090 C.3   224  ASP224      0.1674
    140  C         20.4140   31.4210   36.8520 C.2   224  ASP224      0.2266
    141  O         21.1720   30.6790   37.4640 O.2   224  ASP224     -0.2867
    142  CB        19.1530   32.0630   38.9080 C.3   224  ASP224      0.1410
    143  CG        20.0810   33.2230   39.2220 C.2   224  ASP224      0.3668
    144  OD1       20.5840   33.8610   38.2630 O.co2 224  ASP224     -0.2456
    145  OD2       20.3110   33.4880   40.4260 O.co2 224  ASP224     -0.2456
    146  N         22.9470   33.1110   36.7850 N.3   226  GLY226     -0.1210
    147  CA        24.0050   33.6130   37.6640 C.3   226  GLY226      0.1956
    148  C         24.1340   32.8790   38.9950 C.2   226  GLY226      0.2612
    149  O         24.8830   33.3090   39.8850 O.2   226  GLY226     -0.2717
    150  N         23.4070   31.7760   39.1380 N.am  227  THR227     -0.1952
    151  CA        23.6650   30.8300   40.2130 C.3   227  THR227      0.1897
    152  C         24.3320   29.6090   39.6170 C.2   227  THR227      0.2313
    153  O         23.8710   29.0910   38.6070 O.2   227  THR227     -0.2863
    154  CB        22.3600   30.4090   40.9290 C.3   227  THR227      0.1794
    155  OG1       21.7150   31.5720   41.4700 O.3   227  THR227     -0.2208
    156  CG2       22.6510   29.4190   42.0590 C.3   227  THR227      0.0378
    157  N         19.9020   24.7620   43.5430 N.3   231  ARG231     -0.1245
    158  CA        19.4870   25.0120   44.9170 C.3   231  ARG231      0.1563
    159  C         18.1030   24.4430   45.1390 C.2   231  ARG231      0.2260
    160  O         17.2460   24.5530   44.2770 O.2   231  ARG231     -0.2867
    161  CB        19.5130   26.5110   45.2320 C.3   231  ARG231      0.0307
    162  CG        20.9300   27.1010   45.2230 C.3   231  ARG231      0.0489
    163  CD        20.9620   28.5820   45.5750 C.3   231  ARG231      0.2205
    164  NE        21.2280   28.7980   46.9960 N.pl3 231  ARG231     -0.0865
    165  CZ        20.3540   29.3120   47.8630 C.cat 231  ARG231      0.5346
    166  NH1       20.6950   29.4450   49.1380 N.pl3 231  ARG231      0.1354
    167  NH2       19.1370   29.6880   47.4700 N.pl3 231  ARG231      0.1354
    168  N         14.9630   29.7630   50.2400 N.3   325  THR325     -0.1218
    169  CA        14.2610   30.6980   49.3750 C.3   325  THR325      0.1862
    170  C         13.7970   29.9860   48.1150 C.2   325  THR325      0.2287
    171  O         13.6430   30.6070   47.0720 O.2   325  THR325     -0.2866
    172  CB        15.1710   31.8760   48.9730 C.3   325  THR325      0.1770
    173  OG1       16.3510   31.3640   48.3440 O.3   325  THR325     -0.2211
    174  CG2       15.5680   32.7010   50.2040 C.3   325  THR325      0.0375
    175  N         16.3350   26.9540   42.9690 N.3   328  VAL328     -0.1245
    176  CA        17.0120   27.7800   41.9840 C.3   328  VAL328      0.1561
    177  C         17.6840   26.9050   40.9360 C.2   328  VAL328      0.2260
    178  O         18.6080   26.1530   41.2420 O.2   328  VAL328     -0.2867
    179  CB        18.0600   28.6920   42.6310 C.3   328  VAL328      0.0252
    180  CG1       18.8880   29.3670   41.5630 C.3   328  VAL328      0.0019
    181  CG2       17.3870   29.7240   43.5110 C.3   328  VAL328      0.0019
@<TRIPOS>BOND
     1     3     4    2
     2     3     2    1
     3     1     2    1
     4     2     5    1
     5     9    10    1
     6    91    88    1
     7    91    92    1
     8    88    87    1
     9    88    89    1
    10   104   103    2
    11   103   102    1
    12    11    12    2
    13    11    10    1
    14    10    13    1
    15     5     6    1
    16    89    90    2
    17    92    93   ar
    18    92    94   ar
    19     7     6    1
    20    93    95   ar
    21   101   102    1
    22   102   105    1
    23     6     8    1
    24    13    14    1
    25    24    23    2
    26    94    97   ar
    27    94    96   ar
    28   146   147    1
    29    95    96   ar
    30   108   106    1
    31   140   139    1
    32   140   141    2
    33    17    18    1
    34   105   106    1
    35   105   107    1
    36   112   111    2
    37   138   139    1
    38    97    99   ar
    39   111   110    1
    40    23    22    1
    41   139   142    1
    42    96    98   ar
    43    14    16   ar
    44    14    15   ar
    45   147   148    1
    46    26    25    1
    47    21    22    1
    48    21    19   am
    49   144   143   ar
    50    18    19    1
    51    99   100   ar
    52   110   109    1
    53   110   113    1
    54    22    25    1
    55   153   152    2
    56   132   133    2
    57   132   131    1
    58    98   100   ar
    59   142   143    1
    60    19    20    2
    61   148   150   am
    62   148   149    2
    63   150   151    1
    64   143   145   ar
    65   131   134    1
    66   131   130    1
    67   152   151    1
    68   113   114    1
    69    82    81    2
    70   134   136    1
    71   134   135    1
    72   151   154    1
    73    78    77   ar
    74    78    76   ar
    75    77    75   ar
    76   115   114   ar
    77   115   117   ar
    78   114   116   ar
    79   154   155    1
    80   154   156    1
    81   177   178    2
    82   177   176    1
    83   135   137    1
    84    86    84    1
    85    81    80    1
    86    83    85    1
    87    83    80    1
    88    83    84    1
    89   180   179    1
    90    79    80    1
    91    76    74   ar
    92    38    37    1
    93   117   119   ar
    94    75    73   ar
    95   176   179    1
    96   176   175    1
    97   116   118   ar
    98   179   181    1
    99    71    70    2
   100    74    73   ar
   101    73    72    1
   102   119   118   ar
   103   119   120    1
   104    37    36   ar
   105    37    35   ar
   106    70    69    1
   107   157   158    1
   108    36    34   ar
   109    35    33   ar
   110   123   124    2
   111   123   122    1
   112   160   159    2
   113    72    69    1
   114   125   122    1
   115   125   126    1
   116   127   126    1
   117   127   128    1
   118    69    68    1
   119   122   121    1
   120    34    32   ar
   121    33    32   ar
   122   158   159    1
   123   158   161    1
   124   128   129    1
   125   162   161    1
   126   162   163    1
   127    32    31    1
   128   163   164    1
   129    68    61   am
   130    62    61    2
   131    31    28    1
   132    61    60    1
   133   164   165    2
   134   171   170    2
   135    49    48    2
   136   167   165    1
   137   165   166    1
   138    28    27    1
   139    28    29    1
   140    60    59    1
   141    60    63    1
   142   170   169    1
   143    56    57    1
   144    56    55    1
   145    57    58    2
   146   173   172    1
   147    48    55   am
   148    48    47    1
   149   172   169    1
   150   172   174    1
   151    39    29   am
   152    39    40    1
   153    29    30    2
   154    50    51    1
   155    50    47    1
   156    63    64    1
   157   169   168    1
   158    51    52    1
   159    46    47    1
   160    46    41   am
   161    43    45    1
   162    43    40    1
   163    43    44    1
   164    40    41    1
   165    64    65    1
   166    41    42    2
   167    52    54   am
   168    52    53    2
   169    65    66    1
   170    66    67    1
