@<TRIPOS>MOLECULE
tmp/3udlC00.pdb
 144 140 0 0 0
SMALL
GASTEIGER

@<TRIPOS>ATOM
      1  N         99.7690   10.5630  219.6660 N.3   411  LEU411     -0.1245
      2  CA       100.2500    9.2220  219.3600 C.3   411  LEU411      0.1561
      3  C        101.2380    8.7320  220.4120 C.2   411  LEU411      0.2260
      4  O        101.2690    7.5460  220.7420 O.2   411  LEU411     -0.2867
      5  CB       100.8790    9.1700  217.9620 C.3   411  LEU411      0.0270
      6  CG       101.5120    7.8360  217.5460 C.3   411  LEU411      0.0019
      7  CD1      101.3770    7.6020  216.0480 C.3   411  LEU411      0.0001
      8  CD2      102.9740    7.7620  217.9800 C.3   411  LEU411      0.0001
      9  N         99.3740    7.6330  223.6950 N.3   414  ARG414     -0.1231
     10  CA        98.6560    6.3840  223.4730 C.3   414  ARG414      0.1694
     11  C         99.6220    5.2160  223.3330 C.2   414  ARG414      0.2591
     12  O         99.4700    4.1920  223.9970 O.2   414  ARG414     -0.2718
     13  CB        97.7730    6.4760  222.2270 C.3   414  ARG414      0.0321
     14  CG        96.7020    7.5540  222.2980 C.3   414  ARG414      0.0489
     15  CD        96.0470    7.7760  220.9410 C.3   414  ARG414      0.2205
     16  NE        95.1010    6.7160  220.5960 N.pl3 414  ARG414     -0.0865
     17  CZ        94.5600    6.5590  219.3920 C.cat 414  ARG414      0.5346
     18  NH1       94.8810    7.3850  218.4050 N.pl3 414  ARG414      0.1354
     19  NH2       93.7050    5.5710  219.1700 N.pl3 414  ARG414      0.1354
     20  N        100.6190    5.3830  222.4700 N.am  415  MET415     -0.1979
     21  CA       101.5550    4.3110  222.1540 C.3   415  MET415      0.1605
     22  C        102.4230    3.9250  223.3460 C.2   415  MET415      0.2287
     23  O        102.6410    2.7430  223.6080 O.2   415  MET415     -0.2864
     24  CB       102.4450    4.7040  220.9640 C.3   415  MET415      0.0413
     25  CG       103.4980    3.6570  220.5980 C.3   415  MET415      0.0598
     26  SD       104.4490    4.0160  219.0990 S.3   415  MET415     -0.1393
     27  CE       105.5510    5.3030  219.6830 C.3   415  MET415      0.0692
     28  N         92.1300    8.1300  216.5810 N.3   466  LEU466     -0.1231
     29  CA        92.8890    9.0640  215.7560 C.3   466  LEU466      0.1693
     30  C         93.9950    8.3300  215.0110 C.2   466  LEU466      0.2592
     31  O         94.6240    7.4250  215.5550 O.2   466  LEU466     -0.2718
     32  CB        93.4980   10.1850  216.6020 C.3   466  LEU466      0.0284
     33  CG        92.5600   11.2900  217.0860 C.3   466  LEU466      0.0019
     34  CD1       93.3570   12.4030  217.7500 C.3   466  LEU466      0.0001
     35  CD2       91.7400   11.8360  215.9310 C.3   466  LEU466      0.0001
     36  N         94.2270    8.7290  213.7660 N.am  467  HIS467     -0.1962
     37  CA        95.2720    8.1340  212.9460 C.3   467  HIS467      0.1787
     38  C         95.6760    9.1300  211.8720 C.2   467  HIS467      0.2621
     39  O         95.1080   10.2180  211.7850 O.2   467  HIS467     -0.2715
     40  CB        94.7810    6.8370  212.3040 C.3   467  HIS467      0.0785
     41  CG        93.6630    7.0340  211.3290 C.ar  467  HIS467      0.0821
     42  ND1       92.3470    7.1540  211.7200 N.ar  467  HIS467     -0.2267
     43  CD2       93.6670    7.1340  209.9800 C.ar  467  HIS467      0.1154
     44  CE1       91.5870    7.3190  210.6520 C.ar  467  HIS467      0.1986
     45  NE2       92.3630    7.3120  209.5830 N.ar  467  HIS467     -0.2212
     46  N         96.6480    8.7530  211.0470 N.am  468  SER468     -0.1936
     47  CA        97.1750    9.6590  210.0340 C.3   468  SER468      0.2055
     48  C         97.6140   10.9810  210.6650 C.2   468  SER468      0.2643
     49  O         97.1720   12.0560  210.2600 O.2   468  SER468     -0.2714
     50  CB        96.1440    9.9090  208.9310 C.3   468  SER468      0.2130
     51  OG        95.7840    8.7000  208.2850 O.3   468  SER468     -0.2179
     52  N         98.4810   10.8870  211.6670 N.am  469  TYR469     -0.1973
     53  CA        99.0700   12.0630  212.2830 C.3   469  TYR469      0.1639
     54  C         99.9750   12.7480  211.2690 C.2   469  TYR469      0.2290
     55  O        100.3740   12.1340  210.2820 O.2   469  TYR469     -0.2864
     56  CB        99.8710   11.6620  213.5180 C.3   469  TYR469      0.0560
     57  CG        99.0290   11.1090  214.6490 C.ar  469  TYR469     -0.0198
     58  CD1       98.6570    9.7670  214.6800 C.ar  469  TYR469     -0.0009
     59  CD2       98.6140   11.9270  215.6930 C.ar  469  TYR469     -0.0009
     60  CE1       97.8880    9.2610  215.7220 C.ar  469  TYR469      0.0417
     61  CE2       97.8490   11.4300  216.7350 C.ar  469  TYR469      0.0417
     62  CZ        97.4910   10.0990  216.7470 C.ar  469  TYR469      0.1957
     63  OH        96.7310    9.6150  217.7870 O.3   469  TYR469     -0.2866
     64  N        103.2300   14.3650  209.4050 N.3   471  PRO471     -0.2116
     65  CA       104.6410   13.9800  209.3000 C.3   471  PRO471      0.1372
     66  C        105.5190   14.8020  210.2360 C.2   471  PRO471      0.2244
     67  O        106.4820   14.2740  210.7890 O.2   471  PRO471     -0.2868
     68  CB       104.9850   14.2790  207.8320 C.3   471  PRO471      0.0268
     69  CG       103.8840   15.1670  207.3370 C.3   471  PRO471      0.0207
     70  CD       102.6690   14.7620  208.1050 C.3   471  PRO471      0.0892
     71  N        105.0500   13.2190  213.7730 N.3   474  ILE474     -0.1231
     72  CA       105.6480   11.8910  213.8690 C.3   474  ILE474      0.1692
     73  C        107.1760   11.9340  213.8010 C.2   474  ILE474      0.2592
     74  O        107.8570   11.1900  214.5080 O.2   474  ILE474     -0.2718
     75  CB       105.0980   10.9470  212.7890 C.3   474  ILE474      0.0266
     76  CG1      103.5880   10.7940  212.9520 C.3   474  ILE474      0.0019
     77  CG2      105.7770    9.5920  212.8720 C.3   474  ILE474      0.0020
     78  CD1      103.1710   10.3630  214.3490 C.3   474  ILE474      0.0001
     79  N        107.7130   12.8040  212.9520 N.am  475  ASN475     -0.1974
     80  CA       109.1570   12.9830  212.8870 C.3   475  ASN475      0.1688
     81  C        109.7280   13.4240  214.2310 C.2   475  ASN475      0.2292
     82  O        110.7840   12.9500  214.6490 O.2   475  ASN475     -0.2864
     83  CB       109.5470   13.9740  211.7870 C.3   475  ASN475      0.1181
     84  CG       109.3600   13.4000  210.3930 C.2   475  ASN475      0.2629
     85  OD1      109.0940   14.1320  209.4370 O.2   475  ASN475     -0.2716
     86  ND2      109.4920   12.0820  210.2720 N.am  475  ASN475     -0.0877
     87  N        108.3630   12.9080  217.2640 N.3   477  VAL477     -0.1231
     88  CA       108.2620   11.7820  218.1820 C.3   477  VAL477      0.1692
     89  C        109.3830   10.7870  217.9040 C.2   477  VAL477      0.2591
     90  O        110.0560   10.3180  218.8240 O.2   477  VAL477     -0.2718
     91  CB       106.8970   11.0770  218.0660 C.3   477  VAL477      0.0266
     92  CG1      106.9110    9.7600  218.8250 C.3   477  VAL477      0.0020
     93  CG2      105.7840   11.9830  218.5840 C.3   477  VAL477      0.0020
     94  N        109.5850   10.4800  216.6260 N.am  478  ALA478     -0.1980
     95  CA       110.6270    9.5470  216.2090 C.3   478  ALA478      0.1597
     96  C        112.0020   10.0370  216.6520 C.2   478  ALA478      0.2287
     97  O        112.7790    9.2880  217.2470 O.2   478  ALA478     -0.2864
     98  CB       110.5890    9.3500  214.6930 C.3   478  ALA478      0.0319
     99  N        112.4310    9.4730  220.2670 N.3   481  LEU481     -0.1245
    100  CA       112.6250    8.0690  220.6180 C.3   481  LEU481      0.1561
    101  C        114.0740    7.6290  220.4060 C.2   481  LEU481      0.2260
    102  O        114.6500    6.9410  221.2500 O.2   481  LEU481     -0.2867
    103  CB       111.6600    7.1740  219.8330 C.3   481  LEU481      0.0270
    104  CG       110.1700    7.4580  220.0430 C.3   481  LEU481      0.0019
    105  CD1      109.3250    6.3480  219.4400 C.3   481  LEU481      0.0001
    106  CD2      109.8620    7.6150  221.5240 C.3   481  LEU481      0.0001
    107  N        110.6180    1.1990  219.3920 N.3   488  PRO488     -0.2102
    108  CA       109.7860    1.6760  218.2800 C.3   488  PRO488      0.1504
    109  C        108.3570    1.1290  218.3070 C.2   488  PRO488      0.2575
    110  O        108.0530    0.2210  219.0800 O.2   488  PRO488     -0.2718
    111  CB       110.5190    1.1350  217.0560 C.3   488  PRO488      0.0282
    112  CG       111.1110   -0.1430  217.5420 C.3   488  PRO488      0.0208
    113  CD       111.5180    0.1110  218.9740 C.3   488  PRO488      0.0893
    114  N        107.5010    1.6880  217.4550 N.am  489  LEU489     -0.1980
    115  CA       106.0980    1.2880  217.3550 C.3   489  LEU489      0.1596
    116  C        105.8830   -0.2250  217.3800 C.2   489  LEU489      0.2287
    117  O        104.9870   -0.7160  218.0680 O.2   489  LEU489     -0.2864
    118  CB       105.4650    1.8820  216.0930 C.3   489  LEU489      0.0297
    119  CG       104.0900    1.3510  215.6770 C.3   489  LEU489      0.0022
    120  CD1      103.0420    1.6080  216.7520 C.3   489  LEU489      0.0001
    121  CD2      103.6590    1.9670  214.3540 C.3   489  LEU489      0.0001
    122  N         93.7590    0.8550  219.1400 N.3   520  TRP520     -0.1241
    123  CA        94.7110    1.2070  218.0880 C.3   520  TRP520      0.1605
    124  C         95.6920    0.0740  217.8090 C.2   520  TRP520      0.2264
    125  O         96.2140   -0.0540  216.7010 O.2   520  TRP520     -0.2867
    126  CB        95.4850    2.4800  218.4590 C.3   520  TRP520      0.0550
    127  CG        96.2780    2.3720  219.7390 C.ar  520  TRP520      0.0003
    128  CD1       95.8770    2.7520  220.9880 C.ar  520  TRP520      0.0946
    129  CD2       97.6090    1.8520  219.8870 C.ar  520  TRP520      0.0152
    130  NE1       96.8730    2.5010  221.9040 N.ar  520  TRP520     -0.2442
    131  CE2       97.9450    1.9450  221.2550 C.ar  520  TRP520      0.0810
    132  CE3       98.5450    1.3120  218.9980 C.ar  520  TRP520      0.0012
    133  CZ2       99.1770    1.5210  221.7530 C.ar  520  TRP520      0.0191
    134  CZ3       99.7690    0.8930  219.4950 C.ar  520  TRP520      0.0001
    135  CH2      100.0740    1.0010  220.8600 C.ar  520  TRP520      0.0015
    136  N         89.6820   -3.9770  214.4770 N.3   525  LYS525     -0.1245
    137  CA        89.1790   -2.9380  215.3670 C.3   525  LYS525      0.1561
    138  C         87.8350   -3.2960  215.9900 C.2   525  LYS525      0.2260
    139  O         87.0210   -3.9930  215.3830 O.2   525  LYS525     -0.2867
    140  CB        89.0550   -1.6090  214.6170 C.3   525  LYS525      0.0271
    141  CG        90.2140   -0.6490  214.8300 C.3   525  LYS525      0.0035
    142  CD        91.5250   -1.2130  214.3120 C.3   525  LYS525      0.0206
    143  CE        92.6650   -0.2300  214.5430 C.3   525  LYS525      0.1093
    144  NZ        93.9800   -0.7740  214.1060 N.3   525  LYS525     -0.1314
@<TRIPOS>BOND
     1    69    68    1
     2    69    70    1
     3    68    65    1
     4    70    64    1
     5    51    50    1
     6    50    47    1
     7    65    64    1
     8    65    66    1
     9    85    84    2
    10    45    43   ar
    11    45    44   ar
    12    43    41   ar
    13    47    48    1
    14    47    46    1
    15    66    67    2
    16    49    48    2
    17    86    84   am
    18    55    54    2
    19    84    83    1
    20    44    42   ar
    21    48    52   am
    22    46    38   am
    23    54    53    1
    24    41    42   ar
    25    41    40    1
    26    52    53    1
    27    39    38    2
    28    83    80    1
    29    38    37    1
    30    53    56    1
    31    40    37    1
    32    75    77    1
    33    75    76    1
    34    75    72    1
    35    80    79    1
    36    80    81    1
    37    37    36    1
    38    76    78    1
    39    79    73   am
    40    56    57    1
    41    36    30   am
    42    71    72    1
    43    73    72    1
    44    73    74    2
    45   144   143    1
    46    81    82    2
    47   142   143    1
    48   142   141    1
    49   121   119    1
    50   136   137    1
    51   140   141    1
    52   140   137    1
    53    57    58   ar
    54    57    59   ar
    55    58    60   ar
    56    98    95    1
    57    30    31    2
    58    30    29    1
    59   137   138    1
    60   139   138    2
    61   119   118    1
    62   119   120    1
    63    59    61   ar
    64    60    62   ar
    65    29    28    1
    66    29    32    1
    67    35    33    1
    68     7     6    1
    69   118   115    1
    70    95    94    1
    71    95    96    1
    72    32    33    1
    73    94    89   am
    74    96    97    2
    75   125   124    2
    76    61    62   ar
    77    62    63    1
    78   111   112    1
    79   111   108    1
    80    33    34    1
    81    87    88    1
    82   115   116    1
    83   115   114    1
    84   116   117    2
    85   114   109   am
    86   112   113    1
    87     6     5    1
    88     6     8    1
    89   124   123    1
    90    89    88    1
    91    89    90    2
    92     5     2    1
    93    91    88    1
    94    91    93    1
    95    91    92    1
    96   123   126    1
    97   123   122    1
    98   108   109    1
    99   108   107    1
   100   109   110    2
   101    18    17    1
   102   126   127    1
   103   113   107    1
   104   132   134   ar
   105   132   129   ar
   106    26    27    1
   107    26    25    1
   108    19    17    1
   109     2     1    1
   110     2     3    1
   111    17    16    2
   112   105   104    1
   113   134   135   ar
   114   127   129   ar
   115   127   128   ar
   116   103   104    1
   117   103   100    1
   118   129   131   ar
   119   104   106    1
   120    99   100    1
   121   101   100    1
   122   101   102    2
   123     3     4    2
   124    16    15    1
   125    25    24    1
   126   135   133   ar
   127    15    14    1
   128    24    21    1
   129   128   130   ar
   130   131   133   ar
   131   131   130   ar
   132    21    20    1
   133    21    22    1
   134    13    14    1
   135    13    10    1
   136    20    11   am
   137    11    10    1
   138    11    12    2
   139    22    23    2
   140    10     9    1
