@<TRIPOS>MOLECULE
tmp/3udnA00.pdb
 184 176 0 0 0
SMALL
GASTEIGER

@<TRIPOS>ATOM
      1  N         28.0470   39.2340   32.4140 N.3    32  LEU32      -0.1245
      2  CA        27.3960   38.0160   32.8410 C.3    32  LEU32       0.1561
      3  C         25.9910   37.9620   32.3020 C.2    32  LEU32       0.2260
      4  O         25.2280   38.9290   32.4120 O.2    32  LEU32      -0.2867
      5  CB        27.3160   37.9640   34.3750 C.3    32  LEU32       0.0270
      6  CG        26.7360   36.6610   34.9490 C.3    32  LEU32       0.0019
      7  CD1       27.6560   35.4450   34.6640 C.3    32  LEU32       0.0001
      8  CD2       26.4490   36.8070   36.4180 C.3    32  LEU32       0.0001
      9  N         22.5280   36.6020   32.8250 N.3    34  ASP34      -0.1239
     10  CA        21.8240   36.1490   34.0350 C.3    34  ASP34       0.1674
     11  C         20.3210   36.2780   33.8860 C.2    34  ASP34       0.2266
     12  O         19.7930   37.3810   33.9080 O.2    34  ASP34      -0.2867
     13  CB        22.2920   37.0510   35.1520 C.3    34  ASP34       0.1410
     14  CG        21.7470   36.6590   36.4680 C.2    34  ASP34       0.3668
     15  OD1       20.5480   36.9410   36.6860 O.co2  34  ASP34      -0.2456
     16  OD2       22.5330   36.1270   37.2870 O.co2  34  ASP34      -0.2456
     17  N         18.2390   35.4060   35.9920 N.3    36  GLY36      -0.1210
     18  CA        17.6750   35.3730   37.3660 C.3    36  GLY36       0.1956
     19  C         17.4820   36.7680   37.9250 C.2    36  GLY36       0.2612
     20  O         17.2200   36.9690   39.1360 O.2    36  GLY36      -0.2717
     21  N         17.6500   37.7430   37.0400 N.am   37  SER37      -0.1952
     22  CA        17.5970   39.1610   37.3870 C.3    37  SER37       0.1924
     23  C         17.2880   40.0120   36.1530 C.2    37  SER37       0.2314
     24  O         17.2230   39.5030   35.0430 O.2    37  SER37      -0.2863
     25  CB        18.9200   39.6140   37.9500 C.3    37  SER37       0.2116
     26  OG        19.9250   39.4760   36.9600 O.3    37  SER37      -0.2180
     27  N         18.3000   43.7020   36.0220 N.3    39  ASN39      -0.1240
     28  CA        19.1050   44.9090   35.8550 C.3    39  ASN39       0.1653
     29  C         20.2940   44.7010   34.9100 C.2    39  ASN39       0.2266
     30  O         20.8720   43.6240   34.8810 O.2    39  ASN39      -0.2867
     31  CB        19.5900   45.4260   37.1960 C.3    39  ASN39       0.1155
     32  CG        18.5190   46.1550   37.9510 C.2    39  ASN39       0.2627
     33  OD1       17.6260   45.5390   38.5400 O.2    39  ASN39      -0.2716
     34  ND2       18.6000   47.4810   37.9540 N.am   39  ASN39      -0.0877
     35  N         21.0000   46.7470   44.8630 N.3    71  VAL71      -0.1231
     36  CA        20.4850   45.4240   44.6300 C.3    71  VAL71       0.1678
     37  C         21.2490   44.4370   45.5220 C.2    71  VAL71       0.2434
     38  O         22.4360   44.1810   45.3070 O.2    71  VAL71      -0.2733
     39  CB        20.6700   45.0240   43.1450 C.3    71  VAL71       0.0265
     40  CG1       20.4150   43.5320   42.9590 C.3    71  VAL71       0.0020
     41  CG2       19.7490   45.8330   42.2580 C.3    71  VAL71       0.0020
     42  N         20.5740   43.9070   46.5590 N.am   72  PRO72      -0.2718
     43  CA        21.1910   42.8710   47.3900 C.3    72  PRO72       0.1535
     44  C         20.6450   41.4840   47.0230 C.2    72  PRO72       0.2599
     45  O         19.4250   41.2830   46.9270 O.2    72  PRO72      -0.2715
     46  CB        20.7650   43.2800   48.8130 C.3    72  PRO72       0.0310
     47  CG        19.4280   43.9600   48.6110 C.3    72  PRO72       0.0237
     48  CD        19.3000   44.3780   47.1380 C.3    72  PRO72       0.0939
     49  N         21.5350   40.5300   46.8430 N.am   73  TYR73      -0.1958
     50  CA        21.1200   39.1930   46.4450 C.3    73  TYR73       0.1784
     51  C         21.0380   38.1970   47.6000 C.2    73  TYR73       0.2589
     52  O         20.1800   37.3420   47.6020 O.2    73  TYR73      -0.3170
     53  CB        22.0570   38.6420   45.3750 C.3    73  TYR73       0.0576
     54  CG        22.0930   39.4590   44.1000 C.ar   73  TYR73      -0.0197
     55  CD1       20.9310   39.7380   43.3920 C.ar   73  TYR73      -0.0009
     56  CD2       23.2940   39.9150   43.5950 C.ar   73  TYR73      -0.0009
     57  CE1       20.9680   40.4810   42.2100 C.ar   73  TYR73       0.0417
     58  CE2       23.3460   40.6580   42.4020 C.ar   73  TYR73       0.0417
     59  CZ        22.1900   40.9320   41.7240 C.ar   73  TYR73       0.1957
     60  OH        22.2770   41.6830   40.5720 O.3    73  TYR73      -0.2866
     61  N         21.9250   38.2960   48.5690 N.2    74  THR74      -0.2271
     62  CA        22.0780   37.2020   49.5830 C.3    74  THR74       0.2146
     63  C         23.4340   36.5640   49.4960 C.2    74  THR74       0.2667
     64  O         24.1860   36.5110   50.4850 O.2    74  THR74      -0.2711
     65  CB        21.1350   36.0300   49.3530 C.3    74  THR74       0.1957
     66  OG1       20.9700   35.8550   47.9540 O.3    74  THR74      -0.1715
     67  CG2       19.7810   36.3000   49.9980 C.3    74  THR74       0.0393
     68  N         23.7290   36.0240   48.3200 N.am   75  GLN75      -0.1975
     69  CA        25.1250   35.9140   47.9490 C.3    75  GLN75       0.1601
     70  C         25.3820   37.0180   46.9480 C.2    75  GLN75       0.2287
     71  O         25.1250   36.8440   45.7490 O.2    75  GLN75      -0.2864
     72  CB        25.4860   34.5370   47.4000 C.3    75  GLN75       0.0394
     73  CG        27.0010   34.2390   47.5610 C.3    75  GLN75       0.0908
     74  CD        27.3650   32.8400   47.1500 C.2    75  GLN75       0.2608
     75  OE1       26.9790   31.8640   47.8070 O.2    75  GLN75      -0.2717
     76  NE2       28.1080   32.7240   46.0550 N.am   75  GLN75      -0.0878
     77  N         30.9600   40.7290   47.4500 N.3   109  LYS109     -0.1231
     78  CA        30.8180   39.3210   47.0940 C.3   109  LYS109      0.1693
     79  C         29.9970   39.1990   45.8270 C.2   109  LYS109      0.2592
     80  O         29.2570   38.2330   45.6340 O.2   109  LYS109     -0.2718
     81  CB        30.1600   38.5320   48.2270 C.3   109  LYS109      0.0285
     82  CG        30.9680   38.4690   49.5390 C.3   109  LYS109      0.0035
     83  CD        30.0700   37.8700   50.6070 C.3   109  LYS109      0.0206
     84  CE        30.8010   37.6340   51.9320 C.3   109  LYS109      0.1093
     85  NZ        31.8300   38.6910   52.1780 N.3   109  LYS109     -0.1314
     86  N         30.1060   40.2250   44.9900 N.am  110  PHE110     -0.1976
     87  CA        29.4240   40.2270   43.6990 C.3   110  PHE110      0.1639
     88  C         30.3770   39.7440   42.6110 C.2   110  PHE110      0.2290
     89  O         30.1310   38.7420   41.9510 O.2   110  PHE110     -0.2864
     90  CB        28.8760   41.6280   43.3740 C.3   110  PHE110      0.0560
     91  CG        28.2430   41.7030   42.0310 C.ar  110  PHE110     -0.0200
     92  CD1       27.2400   40.8040   41.6890 C.ar  110  PHE110     -0.0042
     93  CD2       28.6470   42.6520   41.1170 C.ar  110  PHE110     -0.0042
     94  CE1       26.6390   40.8530   40.4500 C.ar  110  PHE110     -0.0003
     95  CE2       28.0760   42.7060   39.8530 C.ar  110  PHE110     -0.0003
     96  CZ        27.0570   41.7990   39.5160 C.ar  110  PHE110     -0.0000
     97  N         33.6420   38.1400   40.7590 N.3   112  ILE112     -0.1245
     98  CA        34.2700   36.8690   41.0080 C.3   112  ILE112      0.1561
     99  C         35.7020   36.8900   40.4790 C.2   112  ILE112      0.2260
    100  O         35.9090   37.0640   39.2610 O.2   112  ILE112     -0.2867
    101  CB        33.4830   35.7220   40.3330 C.3   112  ILE112      0.0252
    102  CG1       32.0640   35.6480   40.8860 C.3   112  ILE112      0.0019
    103  CG2       34.1650   34.3920   40.5940 C.3   112  ILE112      0.0019
    104  CD1       31.3050   34.3850   40.3930 C.3   112  ILE112      0.0001
    105  N         34.3230   38.5650   33.9570 N.3   117  TRP117     -0.1241
    106  CA        33.2150   39.4760   33.6740 C.3   117  TRP117      0.1605
    107  C         33.1620   40.7180   34.5790 C.2   117  TRP117      0.2264
    108  O         33.6070   40.7040   35.7630 O.2   117  TRP117     -0.2867
    109  CB        31.8660   38.7550   33.5780 C.3   117  TRP117      0.0550
    110  CG        31.4690   37.9450   34.7740 C.ar  117  TRP117      0.0003
    111  CD1       31.5520   36.5910   34.9090 C.ar  117  TRP117      0.0946
    112  CD2       30.8600   38.4300   35.9830 C.ar  117  TRP117      0.0152
    113  NE1       31.0290   36.2110   36.1160 N.ar  117  TRP117     -0.2442
    114  CE2       30.6150   37.3150   36.8020 C.ar  117  TRP117      0.0810
    115  CE3       30.4820   39.7020   36.4460 C.ar  117  TRP117      0.0012
    116  CZ2       30.0320   37.4230   38.0740 C.ar  117  TRP117      0.0191
    117  CZ3       29.8770   39.7920   37.7350 C.ar  117  TRP117      0.0001
    118  CH2       29.6680   38.6570   38.5070 C.ar  117  TRP117      0.0015
    119  N         26.7130   42.5330   34.5760 N.3   120  ILE120     -0.1245
    120  CA        25.6580   41.5630   34.5900 C.3   120  ILE120      0.1561
    121  C         24.5250   42.0400   33.7050 C.2   120  ILE120      0.2260
    122  O         24.1090   43.2180   33.8020 O.2   120  ILE120     -0.2867
    123  CB        25.1390   41.3390   36.0270 C.3   120  ILE120      0.0252
    124  CG1       24.0180   40.2820   36.0640 C.3   120  ILE120      0.0019
    125  CG2       24.6570   42.7250   36.6560 C.3   120  ILE120      0.0019
    126  CD1       23.6330   39.9090   37.5190 C.3   120  ILE120      0.0001
    127  N         11.0560   42.4910   38.7970 N.3   128  ILE128     -0.1245
    128  CA        12.1250   42.3760   39.8070 C.3   128  ILE128      0.1561
    129  C         13.3100   43.3000   39.5280 C.2   128  ILE128      0.2260
    130  O         14.3790   43.1310   40.0830 O.2   128  ILE128     -0.2867
    131  CB        12.6040   40.9050   39.9950 C.3   128  ILE128      0.0252
    132  CG1       13.0540   40.3220   38.6270 C.3   128  ILE128      0.0019
    133  CG2       11.4930   40.0740   40.6770 C.3   128  ILE128      0.0019
    134  CD1       13.9320   39.1090   38.7280 C.3   128  ILE128      0.0001
    135  N         15.4210   46.7490   39.9060 N.3   130  ARG130     -0.1245
    136  CA        15.5540   47.7040   40.9910 C.3   130  ARG130      0.1563
    137  C         15.8680   49.0210   40.3520 C.2   130  ARG130      0.2260
    138  O         16.5000   49.0380   39.2530 O.2   130  ARG130     -0.2867
    139  CB        16.6910   47.3120   41.9190 C.3   130  ARG130      0.0307
    140  CG        16.3930   46.0800   42.6570 C.3   130  ARG130      0.0489
    141  CD        15.2440   46.3160   43.6210 C.3   130  ARG130      0.2205
    142  NE        15.8820   46.6040   44.9010 N.pl3 130  ARG130     -0.0865
    143  CZ        15.2970   47.1120   45.9870 C.cat 130  ARG130      0.5346
    144  NH1       13.9940   47.3980   45.9840 N.pl3 130  ARG130      0.1354
    145  NH2       16.0430   47.3330   47.0820 N.pl3 130  ARG130      0.1354
    146  N         10.5810   36.6560   37.6640 N.3   194  TYR194     -0.1241
    147  CA        11.5550   35.6350   37.2500 C.3   194  TYR194      0.1605
    148  C         10.9740   34.8130   36.0950 C.2   194  TYR194      0.2264
    149  O          9.7650   34.8720   35.8130 O.2   194  TYR194     -0.2867
    150  CB        11.8490   34.6530   38.3960 C.3   194  TYR194      0.0534
    151  CG        12.5260   35.2590   39.5780 C.ar  194  TYR194     -0.0201
    152  CD1       13.8990   35.4390   39.5880 C.ar  194  TYR194     -0.0009
    153  CD2       11.8040   35.6250   40.7220 C.ar  194  TYR194     -0.0009
    154  CE1       14.5280   35.9810   40.6730 C.ar  194  TYR194      0.0417
    155  CE2       12.4400   36.1740   41.8120 C.ar  194  TYR194      0.0417
    156  CZ        13.8010   36.3570   41.7650 C.ar  194  TYR194      0.1957
    157  OH        14.4830   36.8930   42.8370 O.3   194  TYR194     -0.2866
    158  N         12.7220   28.6030   39.2490 N.3   222  ILE222     -0.1245
    159  CA        13.1220   29.5700   38.2500 C.3   222  ILE222      0.1561
    160  C         14.2350   28.9780   37.4000 C.2   222  ILE222      0.2260
    161  O         14.9250   28.0880   37.8150 O.2   222  ILE222     -0.2867
    162  CB        13.5930   30.9320   38.8920 C.3   222  ILE222      0.0252
    163  CG1       14.8330   30.7340   39.7590 C.3   222  ILE222      0.0019
    164  CG2       12.5180   31.5050   39.8180 C.3   222  ILE222      0.0019
    165  CD1       15.5240   32.0680   40.1260 C.3   222  ILE222      0.0001
    166  N         17.7210   29.9640   35.9130 N.3   224  ASP224     -0.1239
    167  CA        18.6970   31.0420   36.0920 C.3   224  ASP224      0.1674
    168  C         20.0710   30.7010   35.5470 C.2   224  ASP224      0.2266
    169  O         20.7740   29.8660   36.1010 O.2   224  ASP224     -0.2867
    170  CB        18.8080   31.4430   37.5580 C.3   224  ASP224      0.1410
    171  CG        19.6790   32.6820   37.7410 C.2   224  ASP224      0.3668
    172  OD1       20.0300   33.3310   36.7200 O.co2 224  ASP224     -0.2456
    173  OD2       20.0400   32.9950   38.8690 O.co2 224  ASP224     -0.2456
    174  N         22.5560   32.5250   35.5860 N.3   226  GLY226     -0.1210
    175  CA        23.5760   33.1710   36.4070 C.3   226  GLY226      0.1956
    176  C         23.7860   32.4720   37.7340 C.2   226  GLY226      0.2612
    177  O         24.4780   32.9860   38.6010 O.2   226  GLY226     -0.2717
    178  N         23.1560   31.3020   37.8950 N.am  227  THR227     -0.1952
    179  CA        23.3530   30.4390   39.0670 C.3   227  THR227      0.1897
    180  C         24.0430   29.1900   38.5700 C.2   227  THR227      0.2313
    181  O         23.6010   28.5820   37.6010 O.2   227  THR227     -0.2863
    182  CB        22.0140   30.0230   39.7700 C.3   227  THR227      0.1794
    183  OG1       21.4300   31.1630   40.4170 O.3   227  THR227     -0.2208
    184  CG2       22.2700   28.9140   40.8140 C.3   227  THR227      0.0378
@<TRIPOS>BOND
     1     3     4    2
     2     3     2    1
     3     1     2    1
     4     9    10    1
     5     2     5    1
     6   109   106    1
     7   109   110    1
     8   106   105    1
     9   106   107    1
    10   121   122    2
    11   121   120    1
    12    11    12    2
    13    11    10    1
    14    10    13    1
    15     5     6    1
    16   119   120    1
    17   107   108    2
    18   120   123    1
    19     7     6    1
    20   110   111   ar
    21   110   112   ar
    22    30    29    2
    23   111   113   ar
    24    29    28    1
    25     6     8    1
    26    24    23    2
    27    13    14    1
    28   168   167    1
    29   168   169    2
    30   174   175    1
    31   149   148    2
    32    28    27    1
    33    28    31    1
    34   166   167    1
    35   112   115   ar
    36   112   114   ar
    37    17    18    1
    38   123   124    1
    39   123   125    1
    40   124   126    1
    41   167   170    1
    42   148   147    1
    43   113   114   ar
    44    23    22    1
    45   175   176    1
    46   115   117   ar
    47    14    15   ar
    48    14    16   ar
    49   172   171   ar
    50   114   116   ar
    51    26    25    1
    52    21    22    1
    53    21    19   am
    54    31    32    1
    55   147   146    1
    56   147   150    1
    57    18    19    1
    58    22    25    1
    59   160   161    2
    60   160   159    1
    61   170   171    1
    62   181   180    2
    63   176   178   am
    64   176   177    2
    65   117   118   ar
    66   171   173   ar
    67   178   179    1
    68    19    20    2
    69    32    34   am
    70    32    33    2
    71   116   118   ar
    72   159   162    1
    73   159   158    1
    74   150   151    1
    75   180   179    1
    76   132   134    1
    77   132   131    1
    78   127   128    1
    79   162   163    1
    80   162   164    1
    81   179   182    1
    82   138   137    2
    83   100    99    2
    84    96    95   ar
    85    96    94   ar
    86   129   128    1
    87   129   130    2
    88   151   152   ar
    89   151   153   ar
    90   152   154   ar
    91   163   165    1
    92   182   183    1
    93   182   184    1
    94   128   131    1
    95    95    93   ar
    96   135   136    1
    97   131   133    1
    98   101   103    1
    99   101   102    1
   100   101    98    1
   101   137   136    1
   102   104   102    1
   103    94    92   ar
   104    99    98    1
   105    60    59    1
   106   154   156   ar
   107   153   155   ar
   108    97    98    1
   109   136   139    1
   110    93    91   ar
   111    92    91   ar
   112    59    57   ar
   113    59    58   ar
   114   156   155   ar
   115   156   157    1
   116   139   140    1
   117    89    88    2
   118    91    90    1
   119    57    55   ar
   120    41    39    1
   121    58    56   ar
   122    88    87    1
   123   140   141    1
   124    40    39    1
   125    39    36    1
   126    90    87    1
   127    55    54   ar
   128    56    54   ar
   129   141   142    1
   130    87    86    1
   131    54    53    1
   132    36    35    1
   133    36    37    1
   134   142   143    2
   135    86    79   am
   136    38    37    2
   137    53    50    1
   138    37    42   am
   139    80    79    2
   140    71    70    2
   141    79    78    1
   142   144   143    1
   143   143   145    1
   144    76    74   am
   145    50    49    1
   146    50    51    1
   147    42    48    1
   148    42    43    1
   149    49    44   am
   150    45    44    2
   151    70    69    1
   152    44    43    1
   153    78    77    1
   154    78    81    1
   155    48    47    1
   156    74    73    1
   157    74    75    2
   158    43    46    1
   159    72    73    1
   160    72    69    1
   161    51    52    1
   162    51    61    2
   163    52    66    1
   164    69    68    1
   165    66    65    1
   166    81    82    1
   167    68    63   am
   168    61    62    1
   169    47    46    1
   170    65    62    1
   171    65    67    1
   172    63    62    1
   173    63    64    2
   174    82    83    1
   175    83    84    1
   176    84    85    1
