@<TRIPOS>MOLECULE
tmp/3udnA01.pdb
 106 101 0 0 0
SMALL
GASTEIGER

@<TRIPOS>ATOM
      1  N         31.7470   27.1380   36.3100 N.3    13  GLY13      -0.1210
      2  CA        31.2530   27.4740   37.6570 C.3    13  GLY13       0.1956
      3  C         31.2810   28.9440   38.0550 C.2    13  GLY13       0.2612
      4  O         30.9550   29.2920   39.1820 O.2    13  GLY13      -0.2717
      5  N         31.6240   29.8230   37.1220 N.am   14  GLN14      -0.1965
      6  CA        31.8470   31.2450   37.4540 C.3    14  GLN14       0.1733
      7  C         31.0060   32.2090   36.5950 C.2    14  GLN14       0.2617
      8  O         31.1170   33.4240   36.7350 O.2    14  GLN14      -0.2715
      9  CB        33.3360   31.5870   37.3090 C.3    14  GLN14       0.0408
     10  CG        34.2230   30.8250   38.3800 C.3    14  GLN14       0.0908
     11  CD        35.6160   31.4490   38.5690 C.2    14  GLN14       0.2608
     12  OE1       36.2210   31.9320   37.6100 O.2    14  GLN14      -0.2717
     13  NE2       36.1330   31.4170   39.8100 N.am   14  GLN14      -0.0878
     14  N         30.1760   31.6490   35.7090 N.am   15  GLY15      -0.1940
     15  CA        29.2740   32.4410   34.8920 C.3    15  GLY15       0.2014
     16  C         29.6700   32.4820   33.4380 C.2    15  GLY15       0.2638
     17  O         30.8440   32.5830   33.1070 O.2    15  GLY15      -0.2714
     18  N         28.6890   32.4250   32.5590 N.am   16  TYR16      -0.1973
     19  CA        28.8980   32.6940   31.1210 C.3    16  TYR16       0.1639
     20  C         28.6170   34.1470   30.8260 C.2    16  TYR16       0.2290
     21  O         27.6060   34.6940   31.2520 O.2    16  TYR16      -0.2864
     22  CB        27.9690   31.8550   30.2510 C.3    16  TYR16       0.0560
     23  CG        28.1460   30.3560   30.3750 C.ar   16  TYR16      -0.0198
     24  CD1       27.7220   29.6630   31.5110 C.ar   16  TYR16      -0.0009
     25  CD2       28.6940   29.6380   29.3430 C.ar   16  TYR16      -0.0009
     26  CE1       27.8660   28.2830   31.5940 C.ar   16  TYR16       0.0417
     27  CE2       28.8500   28.2290   29.4100 C.ar   16  TYR16       0.0417
     28  CZ        28.4160   27.5690   30.5220 C.ar   16  TYR16       0.1957
     29  OH        28.5890   26.1950   30.5620 O.3    16  TYR16      -0.2866
     30  N         28.0470   39.2340   32.4140 N.3    32  LEU32      -0.1245
     31  CA        27.3960   38.0160   32.8410 C.3    32  LEU32       0.1561
     32  C         25.9910   37.9620   32.3020 C.2    32  LEU32       0.2260
     33  O         25.2280   38.9290   32.4120 O.2    32  LEU32      -0.2867
     34  CB        27.3160   37.9640   34.3750 C.3    32  LEU32       0.0270
     35  CG        26.7360   36.6610   34.9490 C.3    32  LEU32       0.0019
     36  CD1       27.6560   35.4450   34.6640 C.3    32  LEU32       0.0001
     37  CD2       26.4490   36.8070   36.4180 C.3    32  LEU32       0.0001
     38  N         23.7290   36.0240   48.3200 N.3    75  GLN75      -0.1245
     39  CA        25.1250   35.9140   47.9490 C.3    75  GLN75       0.1566
     40  C         25.3820   37.0180   46.9480 C.2    75  GLN75       0.2260
     41  O         25.1250   36.8440   45.7490 O.2    75  GLN75      -0.2867
     42  CB        25.4860   34.5370   47.4000 C.3    75  GLN75       0.0367
     43  CG        27.0010   34.2390   47.5610 C.3    75  GLN75       0.0905
     44  CD        27.3650   32.8400   47.1500 C.2    75  GLN75       0.2608
     45  OE1       26.9790   31.8640   47.8070 O.2    75  GLN75      -0.2717
     46  NE2       28.1080   32.7240   46.0550 N.am   75  GLN75      -0.0878
     47  N         33.6420   38.1400   40.7590 N.3   112  ILE112     -0.1245
     48  CA        34.2700   36.8690   41.0080 C.3   112  ILE112      0.1561
     49  C         35.7020   36.8900   40.4790 C.2   112  ILE112      0.2260
     50  O         35.9090   37.0640   39.2610 O.2   112  ILE112     -0.2867
     51  CB        33.4830   35.7220   40.3330 C.3   112  ILE112      0.0252
     52  CG1       32.0640   35.6480   40.8860 C.3   112  ILE112      0.0019
     53  CG2       34.1650   34.3920   40.5940 C.3   112  ILE112      0.0019
     54  CD1       31.3050   34.3850   40.3930 C.3   112  ILE112      0.0001
     55  N         34.3230   38.5650   33.9570 N.3   117  TRP117     -0.1241
     56  CA        33.2150   39.4760   33.6740 C.3   117  TRP117      0.1605
     57  C         33.1620   40.7180   34.5790 C.2   117  TRP117      0.2264
     58  O         33.6070   40.7040   35.7630 O.2   117  TRP117     -0.2867
     59  CB        31.8660   38.7550   33.5780 C.3   117  TRP117      0.0550
     60  CG        31.4690   37.9450   34.7740 C.ar  117  TRP117      0.0003
     61  CD1       31.5520   36.5910   34.9090 C.ar  117  TRP117      0.0946
     62  CD2       30.8600   38.4300   35.9830 C.ar  117  TRP117      0.0152
     63  NE1       31.0290   36.2110   36.1160 N.ar  117  TRP117     -0.2442
     64  CE2       30.6150   37.3150   36.8020 C.ar  117  TRP117      0.0810
     65  CE3       30.4820   39.7020   36.4460 C.ar  117  TRP117      0.0012
     66  CZ2       30.0320   37.4230   38.0740 C.ar  117  TRP117      0.0191
     67  CZ3       29.8770   39.7920   37.7350 C.ar  117  TRP117      0.0001
     68  CH2       29.6680   38.6570   38.5070 C.ar  117  TRP117      0.0015
     69  N         20.4580   31.3540   34.4690 N.3   225  SER225     -0.1202
     70  CA        21.7450   31.0590   33.8400 C.3   225  SER225      0.2020
     71  C         22.8700   31.5940   34.7000 C.2   225  SER225      0.2619
     72  O         24.0120   31.2180   34.5240 O.2   225  SER225     -0.2717
     73  CB        21.7850   31.6940   32.4700 C.3   225  SER225      0.2103
     74  OG        21.6610   33.1070   32.5540 O.3   225  SER225     -0.2182
     75  N         22.5560   32.5250   35.5860 N.am  226  GLY226     -0.1942
     76  CA        23.5760   33.1710   36.4070 C.3   226  GLY226      0.2014
     77  C         23.7860   32.4720   37.7340 C.2   226  GLY226      0.2640
     78  O         24.4780   32.9860   38.6010 O.2   226  GLY226     -0.2714
     79  N         23.1560   31.3020   37.8950 N.am  227  THR227     -0.1936
     80  CA        23.3530   30.4390   39.0670 C.3   227  THR227      0.2028
     81  C         24.0430   29.1900   38.5700 C.2   227  THR227      0.2642
     82  O         23.6010   28.5820   37.6010 O.2   227  THR227     -0.2714
     83  CB        22.0140   30.0230   39.7700 C.3   227  THR227      0.1808
     84  OG1       21.4300   31.1630   40.4170 O.3   227  THR227     -0.2208
     85  CG2       22.2700   28.9140   40.8140 C.3   227  THR227      0.0379
     86  N         25.1370   28.8260   39.2120 N.am  228  THR228     -0.1950
     87  CA        25.9400   27.7140   38.7610 C.3   228  THR228      0.1897
     88  C         25.2330   26.3620   38.9640 C.2   228  THR228      0.2313
     89  O         25.1920   25.4970   38.0620 O.2   228  THR228     -0.2863
     90  CB        27.2880   27.6900   39.5300 C.3   228  THR228      0.1794
     91  OG1       28.1610   28.6050   38.8990 O.3   228  THR228     -0.2208
     92  CG2       27.9540   26.2830   39.4830 C.3   228  THR228      0.0378
     93  N         23.0600   26.7120   35.6100 N.3   331  ALA331     -0.1245
     94  CA        23.8450   26.2230   34.4860 C.3   331  ALA331      0.1562
     95  C         23.8990   24.7230   34.4510 C.2   331  ALA331      0.2260
     96  O         23.8960   24.1440   33.3590 O.2   331  ALA331     -0.2867
     97  CB        25.2560   26.7820   34.5260 C.3   331  ALA331      0.0290
     98  N         22.9910   23.3090   30.9590 N.3   335  GLU335     -0.1245
     99  CA        24.0980   22.8030   30.1630 C.3   335  GLU335      0.1567
    100  C         23.7300   21.4380   29.5710 C.2   335  GLU335      0.2260
    101  O         24.5110   20.8650   28.8430 O.2   335  GLU335     -0.2867
    102  CB        25.3740   22.6740   30.9970 C.3   335  GLU335      0.0388
    103  CG        26.1110   23.9740   31.2430 C.3   335  GLU335      0.1160
    104  CD        27.1900   23.8250   32.3390 C.2   335  GLU335      0.3649
    105  OE1       27.8270   24.8630   32.7120 O.co2 335  GLU335     -0.2457
    106  OE2       27.3700   22.6600   32.8090 O.co2 335  GLU335     -0.2457
@<TRIPOS>BOND
     1   101   100    2
     2    25    27   ar
     3    25    23   ar
     4    27    28   ar
     5   100    99    1
     6    99    98    1
     7    99   102    1
     8    22    23    1
     9    22    19    1
    10    23    24   ar
    11    28    29    1
    12    28    26   ar
    13    20    19    1
    14    20    21    2
    15   102   103    1
    16    19    18    1
    17   103   104    1
    18    24    26   ar
    19    32    33    2
    20    32    31    1
    21   104   105   ar
    22   104   106   ar
    23    30    31    1
    24    73    74    1
    25    73    70    1
    26    18    16   am
    27    31    34    1
    28    17    16    2
    29    96    95    2
    30    16    15    1
    31    59    56    1
    32    59    60    1
    33    56    55    1
    34    56    57    1
    35    70    69    1
    36    70    71    1
    37    34    35    1
    38    95    94    1
    39    94    97    1
    40    94    93    1
    41    72    71    2
    42    57    58    2
    43    36    35    1
    44    71    75   am
    45    60    61   ar
    46    60    62   ar
    47    15    14    1
    48    61    63   ar
    49    35    37    1
    50    75    76    1
    51    14     7   am
    52    62    65   ar
    53    62    64   ar
    54    63    64   ar
    55     1     2    1
    56    76    77    1
    57    65    67   ar
    58     7     8    2
    59     7     6    1
    60    64    66   ar
    61     5     6    1
    62     5     3   am
    63     9     6    1
    64     9    10    1
    65    82    81    2
    66    12    11    2
    67     2     3    1
    68    77    79   am
    69    77    78    2
    70    67    68   ar
    71    79    80    1
    72     3     4    2
    73    89    88    2
    74    66    68   ar
    75    10    11    1
    76    11    13   am
    77    81    80    1
    78    81    86   am
    79    87    88    1
    80    87    86    1
    81    87    90    1
    82    91    90    1
    83    80    83    1
    84    50    49    2
    85    92    90    1
    86    83    84    1
    87    83    85    1
    88    51    53    1
    89    51    52    1
    90    51    48    1
    91    54    52    1
    92    49    48    1
    93    47    48    1
    94    41    40    2
    95    46    44   am
    96    40    39    1
    97    44    43    1
    98    44    45    2
    99    42    43    1
   100    42    39    1
   101    39    38    1
