@<TRIPOS>MOLECULE
tmp/3udqA00.pdb
 210 198 0 0 0
SMALL
GASTEIGER

@<TRIPOS>ATOM
      1  N         28.1700   40.2040   32.9290 N.3    32  LEU32      -0.1245
      2  CA        27.5630   38.9440   33.3520 C.3    32  LEU32       0.1561
      3  C         26.1090   38.8820   32.8970 C.2    32  LEU32       0.2260
      4  O         25.3350   39.7750   33.2100 O.2    32  LEU32      -0.2867
      5  CB        27.6620   38.7930   34.8900 C.3    32  LEU32       0.0270
      6  CG        26.8920   37.6320   35.5220 C.3    32  LEU32       0.0019
      7  CD1       27.5780   36.3030   35.2840 C.3    32  LEU32       0.0001
      8  CD2       26.7110   37.8740   36.9550 C.3    32  LEU32       0.0001
      9  N         22.6480   37.7280   33.3810 N.3    34  ASP34      -0.1239
     10  CA        21.8990   37.2670   34.5420 C.3    34  ASP34       0.1674
     11  C         20.3970   37.3380   34.3570 C.2    34  ASP34       0.2266
     12  O         19.8720   38.4390   34.1370 O.2    34  ASP34      -0.2867
     13  CB        22.3340   38.0860   35.7570 C.3    34  ASP34       0.1410
     14  CG        21.9270   37.4970   37.0790 C.2    34  ASP34       0.3668
     15  OD1       22.7840   36.8680   37.7350 O.co2  34  ASP34      -0.2456
     16  OD2       20.7650   37.7090   37.4870 O.co2  34  ASP34      -0.2456
     17  N         18.1590   36.4260   36.7800 N.3    36  GLY36      -0.1210
     18  CA        17.5530   36.5130   38.1110 C.3    36  GLY36       0.1956
     19  C         17.6390   37.8950   38.7340 C.2    36  GLY36       0.2612
     20  O         17.6370   38.0360   39.9580 O.2    36  GLY36      -0.2717
     21  N         17.7370   38.9270   37.8730 N.am   37  SER37      -0.1952
     22  CA        17.7950   40.3610   38.1730 C.3    37  SER37       0.1924
     23  C         17.3510   41.1710   36.9160 C.2    37  SER37       0.2314
     24  O         17.3310   40.6340   35.7970 O.2    37  SER37      -0.2863
     25  CB        19.1800   40.7760   38.6640 C.3    37  SER37       0.2116
     26  OG        20.2230   40.3340   37.8090 O.3    37  SER37      -0.2180
     27  N         21.4470   47.7480   45.7020 N.3    71  VAL71      -0.1231
     28  CA        20.9630   46.3880   45.4670 C.3    71  VAL71       0.1678
     29  C         21.6890   45.2760   46.2590 C.2    71  VAL71       0.2434
     30  O         22.7520   44.7980   45.8350 O.2    71  VAL71      -0.2733
     31  CB        20.7100   46.0230   43.9780 C.3    71  VAL71       0.0265
     32  CG1       19.9190   44.7260   43.8530 C.3    71  VAL71       0.0020
     33  CG2       19.9820   47.1440   43.2520 C.3    71  VAL71       0.0020
     34  N         21.0610   44.8100   47.3730 N.am   72  PRO72      -0.2718
     35  CA        21.6530   43.7220   48.1600 C.3    72  PRO72       0.1535
     36  C         21.0250   42.3610   47.8780 C.2    72  PRO72       0.2599
     37  O         19.8380   42.1600   48.1340 O.2    72  PRO72      -0.2715
     38  CB        21.3530   44.1470   49.6010 C.3    72  PRO72       0.0310
     39  CG        20.1030   45.0780   49.4940 C.3    72  PRO72       0.0237
     40  CD        19.8260   45.3110   48.0170 C.3    72  PRO72       0.0939
     41  N         21.8100   41.4130   47.3760 N.am   73  TYR73      -0.1960
     42  CA        21.3200   40.0410   47.1850 C.3    73  TYR73       0.1771
     43  C         21.6740   39.2660   48.4380 C.2    73  TYR73       0.2620
     44  O         22.4080   39.7640   49.2980 O.2    73  TYR73      -0.2715
     45  CB        21.9740   39.3580   45.9710 C.3    73  TYR73       0.0574
     46  CG        21.9630   40.2000   44.7220 C.ar   73  TYR73      -0.0198
     47  CD1       20.7630   40.6160   44.1490 C.ar   73  TYR73      -0.0009
     48  CD2       23.1520   40.5950   44.1140 C.ar   73  TYR73      -0.0009
     49  CE1       20.7480   41.3890   42.9930 C.ar   73  TYR73       0.0417
     50  CE2       23.1490   41.3750   42.9580 C.ar   73  TYR73       0.0417
     51  CZ        21.9420   41.7570   42.3940 C.ar   73  TYR73       0.1957
     52  OH        21.9190   42.5430   41.2730 O.3    73  TYR73      -0.2866
     53  N         21.2050   38.0200   48.5200 N.am   74  THR74      -0.1937
     54  CA        21.5300   37.1390   49.6310 C.3    74  THR74       0.2028
     55  C         23.0580   36.8510   49.6820 C.2    74  THR74       0.2642
     56  O         23.6210   36.7500   50.7650 O.2    74  THR74      -0.2714
     57  CB        20.5180   35.9970   49.7020 C.3    74  THR74       0.1808
     58  OG1       20.3710   35.5760   51.0570 O.3    74  THR74      -0.2208
     59  CG2       20.8350   34.8470   48.7600 C.3    74  THR74       0.0379
     60  N         23.7200   36.8220   48.5010 N.am   75  GLN75      -0.1976
     61  CA        25.1700   36.6910   48.3030 C.3    75  GLN75       0.1601
     62  C         25.6340   37.8240   47.3430 C.2    75  GLN75       0.2287
     63  O         25.6560   37.6440   46.1220 O.2    75  GLN75      -0.2864
     64  CB        25.5620   35.3030   47.7490 C.3    75  GLN75       0.0394
     65  CG        25.6520   34.1940   48.7950 C.3    75  GLN75       0.0908
     66  CD        26.6260   33.0990   48.3880 C.2    75  GLN75       0.2608
     67  OE1       26.2720   32.1280   47.7000 O.2    75  GLN75      -0.2717
     68  NE2       27.8770   33.2210   48.8240 N.am   75  GLN75      -0.0878
     69  N         31.2230   41.8790   48.1610 N.3   109  LYS109     -0.1231
     70  CA        31.2010   40.4410   47.8060 C.3   109  LYS109      0.1693
     71  C         30.4170   40.1420   46.5010 C.2   109  LYS109      0.2592
     72  O         29.8750   39.0350   46.3140 O.2   109  LYS109     -0.2718
     73  CB        30.7180   39.5720   48.9930 C.3   109  LYS109      0.0285
     74  CG        31.6930   39.5470   50.1710 C.3   109  LYS109      0.0035
     75  CD        31.0270   39.0840   51.4720 C.3   109  LYS109      0.0206
     76  CE        31.7960   39.5080   52.7080 C.3   109  LYS109      0.1093
     77  NZ        31.6680   40.9700   52.9830 N.3   109  LYS109     -0.1314
     78  N         30.3890   41.1540   45.5930 N.am  110  PHE110     -0.1976
     79  CA        29.6950   41.1270   44.3050 C.3   110  PHE110      0.1639
     80  C         30.6010   40.6640   43.1620 C.2   110  PHE110      0.2290
     81  O         30.3210   39.6330   42.5410 O.2   110  PHE110     -0.2864
     82  CB        29.0380   42.4940   44.0020 C.3   110  PHE110      0.0560
     83  CG        28.3170   42.5630   42.6760 C.ar  110  PHE110     -0.0200
     84  CD1       27.2270   41.7340   42.4110 C.ar  110  PHE110     -0.0042
     85  CD2       28.7250   43.4520   41.6920 C.ar  110  PHE110     -0.0042
     86  CE1       26.5790   41.7800   41.1810 C.ar  110  PHE110     -0.0003
     87  CE2       28.0620   43.5040   40.4630 C.ar  110  PHE110     -0.0003
     88  CZ        27.0010   42.6630   40.2150 C.ar  110  PHE110     -0.0000
     89  N         33.8250   39.0330   41.2670 N.3   112  ILE112     -0.1245
     90  CA        34.5650   37.7910   41.5300 C.3   112  ILE112      0.1561
     91  C         36.0120   37.9010   41.0140 C.2   112  ILE112      0.2260
     92  O         36.2210   38.3450   39.8820 O.2   112  ILE112     -0.2867
     93  CB        33.7880   36.5580   40.9430 C.3   112  ILE112      0.0252
     94  CG1       32.4180   36.3610   41.6140 C.3   112  ILE112      0.0019
     95  CG2       34.5980   35.2590   41.0040 C.3   112  ILE112      0.0019
     96  CD1       31.4360   35.6360   40.7690 C.3   112  ILE112      0.0001
     97  N         34.4120   39.7670   34.5140 N.3   117  TRP117     -0.1241
     98  CA        33.2320   40.6070   34.2890 C.3   117  TRP117      0.1605
     99  C         33.1930   41.8350   35.1720 C.2   117  TRP117      0.2264
    100  O         33.4880   41.7620   36.3680 O.2   117  TRP117     -0.2867
    101  CB        31.8690   39.8500   34.2000 C.3   117  TRP117      0.0550
    102  CG        31.4770   39.0060   35.3850 C.ar  117  TRP117      0.0003
    103  CD1       31.5700   37.6470   35.4870 C.ar  117  TRP117      0.0946
    104  CD2       30.8310   39.4550   36.5880 C.ar  117  TRP117      0.0152
    105  NE1       31.0780   37.2290   36.7060 N.ar  117  TRP117     -0.2442
    106  CE2       30.6000   38.3160   37.3930 C.ar  117  TRP117      0.0810
    107  CE3       30.4320   40.7090   37.0710 C.ar  117  TRP117      0.0012
    108  CZ2       30.0110   38.4010   38.6620 C.ar  117  TRP117      0.0191
    109  CZ3       29.8260   40.7830   38.3190 C.ar  117  TRP117      0.0001
    110  CH2       29.6270   39.6380   39.0980 C.ar  117  TRP117      0.0015
    111  N         26.7710   43.5080   35.3520 N.3   120  ILE120     -0.1245
    112  CA        25.6460   42.5870   35.2850 C.3   120  ILE120      0.1561
    113  C         24.5790   43.0500   34.2790 C.2   120  ILE120      0.2260
    114  O         24.2500   44.2300   34.2350 O.2   120  ILE120     -0.2867
    115  CB        25.0900   42.3680   36.7370 C.3   120  ILE120      0.0252
    116  CG1       23.9180   41.3630   36.7750 C.3   120  ILE120      0.0019
    117  CG2       24.7600   43.6870   37.4600 C.3   120  ILE120      0.0019
    118  CD1       23.7340   40.7270   38.0220 C.3   120  ILE120      0.0001
    119  N         11.0470   43.4290   39.3720 N.3   128  ILE128     -0.1245
    120  CA        12.1830   43.2070   40.2970 C.3   128  ILE128      0.1561
    121  C         13.3560   44.1960   40.1150 C.2   128  ILE128      0.2260
    122  O         14.3720   44.0820   40.8000 O.2   128  ILE128     -0.2867
    123  CB        12.6400   41.7260   40.4390 C.3   128  ILE128      0.0252
    124  CG1       13.0790   41.1150   39.1030 C.3   128  ILE128      0.0019
    125  CG2       11.5750   40.8880   41.1290 C.3   128  ILE128      0.0019
    126  CD1       13.9690   39.8710   39.2250 C.3   128  ILE128      0.0001
    127  N         15.4110   47.6970   40.4520 N.3   130  ARG130     -0.1245
    128  CA        15.5560   48.6030   41.5960 C.3   130  ARG130      0.1563
    129  C         15.9280   50.0230   41.1210 C.2   130  ARG130      0.2260
    130  O         16.5630   50.1320   40.0640 O.2   130  ARG130     -0.2867
    131  CB        16.5740   48.0440   42.6140 C.3   130  ARG130      0.0307
    132  CG        16.3050   46.6000   43.0270 C.3   130  ARG130      0.0489
    133  CD        15.1240   46.4490   43.9840 C.3   130  ARG130      0.2205
    134  NE        15.1640   45.1600   44.6830 N.pl3 130  ARG130     -0.0865
    135  CZ        15.9800   44.8710   45.7010 C.cat 130  ARG130      0.5346
    136  NH1       15.9470   43.6710   46.2650 N.pl3 130  ARG130      0.1354
    137  NH2       16.8370   45.7800   46.1580 N.pl3 130  ARG130      0.1354
    138  N         10.5440   37.4120   37.9730 N.3   194  TYR194     -0.1241
    139  CA        11.6880   36.5330   37.7850 C.3   194  TYR194      0.1605
    140  C         11.2240   35.6880   36.6100 C.2   194  TYR194      0.2264
    141  O         10.0700   35.8030   36.1850 O.2   194  TYR194     -0.2867
    142  CB        11.8120   35.5830   38.9990 C.3   194  TYR194      0.0534
    143  CG        12.5400   36.1290   40.2030 C.ar  194  TYR194     -0.0201
    144  CD1       13.9230   36.3290   40.1790 C.ar  194  TYR194     -0.0009
    145  CD2       11.8580   36.4170   41.3890 C.ar  194  TYR194     -0.0009
    146  CE1       14.6050   36.8150   41.2950 C.ar  194  TYR194      0.0417
    147  CE2       12.5310   36.9160   42.5090 C.ar  194  TYR194      0.0417
    148  CZ        13.9060   37.0970   42.4590 C.ar  194  TYR194      0.1957
    149  OH        14.5970   37.5410   43.5560 O.3   194  TYR194     -0.2866
    150  N          9.4500   29.8010   45.5110 N.3   220  LYS220     -0.1245
    151  CA         9.4110   30.0400   44.0720 C.3   220  LYS220      0.1561
    152  C         10.3820   29.1370   43.3410 C.2   220  LYS220      0.2260
    153  O         11.2880   28.5520   43.9510 O.2   220  LYS220     -0.2867
    154  CB         9.5960   31.5420   43.6990 C.3   220  LYS220      0.0271
    155  CG        10.9780   32.1500   43.9470 C.3   220  LYS220      0.0035
    156  CD        10.9750   33.6950   44.0560 C.3   220  LYS220      0.0206
    157  CE        11.4400   34.1190   45.4400 C.3   220  LYS220      0.1093
    158  NZ        11.6580   35.5880   45.5650 N.3   220  LYS220     -0.1314
    159  N         12.8140   29.4710   40.0060 N.3   222  ILE222     -0.1245
    160  CA        13.2540   30.4040   38.9820 C.3   222  ILE222      0.1561
    161  C         14.3460   29.8190   38.0470 C.2   222  ILE222      0.2260
    162  O         15.0170   28.8480   38.4110 O.2   222  ILE222     -0.2867
    163  CB        13.5970   31.8230   39.5680 C.3   222  ILE222      0.0252
    164  CG1       14.9690   31.8900   40.2190 C.3   222  ILE222      0.0019
    165  CG2       12.4810   32.4100   40.4870 C.3   222  ILE222      0.0019
    166  CD1       15.5020   33.2020   40.1890 C.3   222  ILE222      0.0001
    167  N         17.7360   30.9650   36.5130 N.3   224  ASP224     -0.1239
    168  CA        18.7470   32.0010   36.7090 C.3   224  ASP224      0.1674
    169  C         20.0700   31.5780   36.1630 C.2   224  ASP224      0.2266
    170  O         20.6220   30.5880   36.6350 O.2   224  ASP224     -0.2867
    171  CB        18.8800   32.3850   38.2010 C.3   224  ASP224      0.1410
    172  CG        19.7700   33.5850   38.4510 C.2   224  ASP224      0.3668
    173  OD1       19.9050   34.4250   37.5390 O.co2 224  ASP224     -0.2456
    174  OD2       20.3750   33.6530   39.5290 O.co2 224  ASP224     -0.2456
    175  N         22.8130   33.4930   36.2740 N.3   226  GLY226     -0.1210
    176  CA        23.8460   34.0470   37.1370 C.3   226  GLY226      0.1956
    177  C         24.0500   33.2320   38.3960 C.2   226  GLY226      0.2612
    178  O         24.6290   33.7350   39.3790 O.2   226  GLY226     -0.2717
    179  N         23.4950   31.9780   38.3930 N.am  227  THR227     -0.1952
    180  CA        23.6220   30.9950   39.4590 C.3   227  THR227      0.1897
    181  C         24.2500   29.7610   38.8580 C.2   227  THR227      0.2313
    182  O         23.7780   29.2580   37.8350 O.2   227  THR227     -0.2863
    183  CB        22.3000   30.7130   40.1660 C.3   227  THR227      0.1794
    184  OG1       21.7190   31.9510   40.5670 O.3   227  THR227     -0.2208
    185  CG2       22.4790   29.8390   41.4030 C.3   227  THR227      0.0378
    186  N         19.9010   25.0030   42.9380 N.3   231  ARG231     -0.1245
    187  CA        19.5980   25.2520   44.3450 C.3   231  ARG231      0.1563
    188  C         18.1570   24.8440   44.5710 C.2   231  ARG231      0.2260
    189  O         17.2890   25.2570   43.8140 O.2   231  ARG231     -0.2867
    190  CB        19.8680   26.7160   44.7340 C.3   231  ARG231      0.0307
    191  CG        21.2840   27.1460   44.3590 C.3   231  ARG231      0.0489
    192  CD        21.6560   28.5450   44.7880 C.3   231  ARG231      0.2205
    193  NE        21.3650   28.7900   46.2010 N.pl3 231  ARG231     -0.0865
    194  CZ        20.6100   29.7900   46.6340 C.cat 231  ARG231      0.5346
    195  NH1       20.3880   29.9440   47.9320 N.pl3 231  ARG231      0.1354
    196  NH2       20.0810   30.6530   45.7740 N.pl3 231  ARG231      0.1354
    197  N         15.3930   30.9820   49.2170 N.3   325  THR325     -0.1218
    198  CA        14.6800   31.7860   48.2280 C.3   325  THR325      0.1862
    199  C         13.9920   30.8780   47.1290 C.2   325  THR325      0.2287
    200  O         13.5840   31.3880   46.0870 O.2   325  THR325     -0.2866
    201  CB        15.6250   32.8750   47.6700 C.3   325  THR325      0.1770
    202  OG1       16.7550   32.2590   47.0400 O.3   325  THR325     -0.2211
    203  CG2       16.1270   33.8070   48.7450 C.3   325  THR325      0.0375
    204  N         16.3090   27.0970   42.2970 N.3   328  VAL328     -0.1245
    205  CA        16.9980   27.9200   41.3120 C.3   328  VAL328      0.1561
    206  C         17.5890   26.9790   40.2360 C.2   328  VAL328      0.2260
    207  O         18.3630   26.0820   40.5770 O.2   328  VAL328     -0.2867
    208  CB        18.0750   28.8250   41.9480 C.3   328  VAL328      0.0252
    209  CG1       18.7180   29.7160   40.9010 C.3   328  VAL328      0.0019
    210  CG2       17.4910   29.6640   43.0790 C.3   328  VAL328      0.0019
@<TRIPOS>BOND
     1     3     4    2
     2     3     2    1
     3     1     2    1
     4     2     5    1
     5     9    10    1
     6    12    11    2
     7   101    98    1
     8   101   102    1
     9   114   113    2
    10   113   112    1
    11    98    97    1
    12    98    99    1
    13    11    10    1
    14    10    13    1
    15     5     6    1
    16    99   100    2
    17     7     6    1
    18   112   111    1
    19   112   115    1
    20   102   103   ar
    21   102   104   ar
    22   103   105   ar
    23     6     8    1
    24    13    14    1
    25    24    23    2
    26   169   170    2
    27   169   168    1
    28   141   140    2
    29   175   176    1
    30   167   168    1
    31   104   107   ar
    32   104   106   ar
    33   140   139    1
    34   105   106   ar
    35   168   171    1
    36   115   116    1
    37   115   117    1
    38   116   118    1
    39    17    18    1
    40    23    22    1
    41   107   109   ar
    42    14    16   ar
    43    14    15   ar
    44   176   177    1
    45   106   108   ar
    46   173   172   ar
    47   139   138    1
    48   139   142    1
    49    26    25    1
    50   182   181    2
    51    21    22    1
    52    21    19   am
    53   161   162    2
    54   161   160    1
    55    18    19    1
    56    22    25    1
    57   171   172    1
    58   109   110   ar
    59   179   177   am
    60   179   180    1
    61   177   178    2
    62   172   174   ar
    63   108   110   ar
    64    19    20    2
    65   181   180    1
    66   160   163    1
    67   160   159    1
    68   142   143    1
    69   124   126    1
    70   124   123    1
    71   119   120    1
    72   180   183    1
    73   163   164    1
    74   163   165    1
    75    92    91    2
    76   130   129    2
    77   121   120    1
    78   121   122    2
    79   183   184    1
    80   183   185    1
    81   144   143   ar
    82   144   146   ar
    83   166   164    1
    84   143   145   ar
    85    88    87   ar
    86    88    86   ar
    87   206   207    2
    88   206   205    1
    89   120   123    1
    90   123   125    1
    91   127   128    1
    92    87    85   ar
    93    96    94    1
    94   209   208    1
    95    93    95    1
    96    93    90    1
    97    93    94    1
    98    91    90    1
    99   129   128    1
   100    86    84   ar
   101    89    90    1
   102    52    51    1
   103   146   148   ar
   104   205   208    1
   105   205   204    1
   106   145   147   ar
   107   128   131    1
   108    85    83   ar
   109   208   210    1
   110    51    50   ar
   111    51    49   ar
   112    84    83   ar
   113   148   147   ar
   114   148   149    1
   115    81    80    2
   116   131   132    1
   117    83    82    1
   118   186   187    1
   119    50    48   ar
   120    49    47   ar
   121   132   133    1
   122    80    79    1
   123    33    31    1
   124   152   153    2
   125   152   151    1
   126   154   155    1
   127   154   151    1
   128   189   188    2
   129    32    31    1
   130   155   156    1
   131    31    28    1
   132   133   134    1
   133    82    79    1
   134   156   157    1
   135   151   150    1
   136    48    46   ar
   137    47    46   ar
   138    79    78    1
   139   187   188    1
   140   187   190    1
   141   191   190    1
   142   191   192    1
   143   134   135    2
   144    46    45    1
   145   192   193    1
   146   157   158    1
   147    28    27    1
   148    28    29    1
   149    78    71   am
   150   135   137    1
   151   135   136    1
   152   196   194    1
   153    30    29    2
   154    45    42    1
   155   200   199    2
   156    63    62    2
   157   193   194    2
   158    29    34   am
   159    72    71    2
   160    71    70    1
   161   194   195    1
   162   202   201    1
   163   199   198    1
   164    42    41    1
   165    42    43    1
   166    62    61    1
   167    34    40    1
   168    34    35    1
   169    41    36   am
   170   201   198    1
   171   201   203    1
   172    67    66    2
   173    64    61    1
   174    64    65    1
   175    70    69    1
   176    70    73    1
   177    36    37    2
   178    36    35    1
   179    40    39    1
   180    35    38    1
   181   198   197    1
   182    61    60    1
   183    66    65    1
   184    66    68   am
   185    43    53   am
   186    43    44    2
   187    60    55   am
   188    53    54    1
   189    59    57    1
   190    73    74    1
   191    39    38    1
   192    54    55    1
   193    54    57    1
   194    55    56    2
   195    57    58    1
   196    74    75    1
   197    75    76    1
   198    76    77    1
