@<TRIPOS>MOLECULE
tmp/3udrA00.pdb
 177 166 0 0 0
SMALL
GASTEIGER

@<TRIPOS>ATOM
      1  N         27.9940   39.4690   32.6950 N.3    32  LEU32      -0.1245
      2  CA        27.3560   38.2200   33.0910 C.3    32  LEU32       0.1561
      3  C         25.9150   38.1360   32.5700 C.2    32  LEU32       0.2260
      4  O         25.1290   39.0550   32.7530 O.2    32  LEU32      -0.2867
      5  CB        27.3780   38.0800   34.6200 C.3    32  LEU32       0.0270
      6  CG        26.7080   36.8200   35.1900 C.3    32  LEU32       0.0019
      7  CD1       27.5300   35.5350   34.9290 C.3    32  LEU32       0.0001
      8  CD2       26.4720   37.0200   36.6950 C.3    32  LEU32       0.0001
      9  N         22.4780   36.8500   33.1140 N.3    34  ASP34      -0.1239
     10  CA        21.7340   36.4330   34.3230 C.3    34  ASP34       0.1674
     11  C         20.2200   36.5140   34.1400 C.2    34  ASP34       0.2266
     12  O         19.6260   37.5980   34.0420 O.2    34  ASP34      -0.2867
     13  CB        22.2050   37.2900   35.5120 C.3    34  ASP34       0.1410
     14  CG        21.6940   36.7850   36.8390 C.2    34  ASP34       0.3668
     15  OD1       20.5020   37.0310   37.1220 O.co2  34  ASP34      -0.2456
     16  OD2       22.4980   36.2410   37.6220 O.co2  34  ASP34      -0.2456
     17  N         18.1550   35.4890   36.2810 N.3    36  GLY36      -0.1210
     18  CA        17.6150   35.5730   37.6470 C.3    36  GLY36       0.1956
     19  C         17.4490   36.9810   38.2060 C.2    36  GLY36       0.2612
     20  O         17.3350   37.1700   39.4360 O.2    36  GLY36      -0.2717
     21  N         17.5200   37.9750   37.3230 N.am   37  SER37      -0.1952
     22  CA        17.4730   39.3950   37.7240 C.3    37  SER37       0.1924
     23  C         17.1950   40.2470   36.4830 C.2    37  SER37       0.2314
     24  O         17.1020   39.7180   35.3690 O.2    37  SER37      -0.2863
     25  CB        18.7950   39.8200   38.3400 C.3    37  SER37       0.2116
     26  OG        19.8380   39.6300   37.4000 O.3    37  SER37      -0.2180
     27  N         21.3140   40.6170   46.8280 N.3    73  TYR73      -0.1227
     28  CA        20.8510   39.2630   46.5210 C.3    73  TYR73       0.1736
     29  C         20.8940   38.4310   47.7840 C.2    73  TYR73       0.2596
     30  O         21.3540   38.8930   48.8230 O.2    73  TYR73      -0.2718
     31  CB        21.7100   38.6270   45.4400 C.3    73  TYR73       0.0548
     32  CG        21.9190   39.4980   44.2180 C.ar   73  TYR73      -0.0200
     33  CD1       20.8600   39.8350   43.3860 C.ar   73  TYR73      -0.0009
     34  CD2       23.1970   39.9100   43.8590 C.ar   73  TYR73      -0.0009
     35  CE1       21.0570   40.6210   42.2470 C.ar   73  TYR73       0.0417
     36  CE2       23.4110   40.6620   42.7010 C.ar   73  TYR73       0.0417
     37  CZ        22.3420   41.0260   41.9150 C.ar   73  TYR73       0.1957
     38  OH        22.5640   41.7850   40.7870 O.3    73  TYR73      -0.2866
     39  N         20.4180   37.1970   47.6980 N.am   74  THR74      -0.1939
     40  CA        20.5740   36.2840   48.8100 C.3    74  THR74       0.2028
     41  C         22.0430   36.1560   49.1620 C.2    74  THR74       0.2642
     42  O         22.3850   36.1600   50.3290 O.2    74  THR74      -0.2714
     43  CB        19.9360   34.8950   48.5370 C.3    74  THR74       0.1808
     44  OG1       18.5200   35.0630   48.3980 O.3    74  THR74      -0.2208
     45  CG2       20.1880   33.9600   49.7200 C.3    74  THR74       0.0379
     46  N         22.9060   36.1940   48.1450 N.am   75  GLN75      -0.1976
     47  CA        24.3480   36.2270   48.3220 C.3    75  GLN75       0.1601
     48  C         25.0020   37.2550   47.3860 C.2    75  GLN75       0.2287
     49  O         24.9970   37.0830   46.1680 O.2    75  GLN75      -0.2864
     50  CB        24.9570   34.8560   48.0340 C.3    75  GLN75       0.0394
     51  CG        26.4660   34.7750   48.2610 C.3    75  GLN75       0.0908
     52  CD        26.8580   34.9880   49.7160 C.2    75  GLN75       0.2608
     53  OE1       26.1740   34.5260   50.6310 O.2    75  GLN75      -0.2717
     54  NE2       27.9600   35.6980   49.9330 N.am   75  GLN75      -0.0878
     55  N         30.8460   40.8360   47.8040 N.3   109  LYS109     -0.1231
     56  CA        30.6180   39.4230   47.4920 C.3   109  LYS109      0.1693
     57  C         29.8290   39.2670   46.2030 C.2   109  LYS109      0.2592
     58  O         29.0880   38.2970   46.0150 O.2   109  LYS109     -0.2718
     59  CB        29.9180   38.7460   48.6730 C.3   109  LYS109      0.0285
     60  CG        30.8150   38.7050   49.9130 C.3   109  LYS109      0.0035
     61  CD        30.1280   38.0550   51.1100 C.3   109  LYS109      0.0206
     62  CE        31.0760   38.0030   52.3140 C.3   109  LYS109      0.1093
     63  NZ        31.6550   39.3480   52.6400 N.3   109  LYS109     -0.1314
     64  N         30.0960   40.1850   45.2720 N.am  110  PHE110     -0.1976
     65  CA        29.4110   40.2430   43.9780 C.3   110  PHE110      0.1639
     66  C         30.3870   39.8710   42.8730 C.2   110  PHE110      0.2290
     67  O         30.2880   38.7860   42.2860 O.2   110  PHE110     -0.2864
     68  CB        28.8560   41.6490   43.7380 C.3   110  PHE110      0.0560
     69  CG        28.2070   41.8150   42.4030 C.ar  110  PHE110     -0.0200
     70  CD1       27.1310   41.0130   42.0400 C.ar  110  PHE110     -0.0042
     71  CD2       28.6960   42.7360   41.4870 C.ar  110  PHE110     -0.0042
     72  CE1       26.5680   41.1090   40.7720 C.ar  110  PHE110     -0.0003
     73  CE2       28.0840   42.8890   40.2540 C.ar  110  PHE110     -0.0003
     74  CZ        27.0280   42.0720   39.8900 C.ar  110  PHE110     -0.0000
     75  N         33.6190   38.3550   41.1310 N.3   112  ILE112     -0.1245
     76  CA        34.3070   37.0880   41.3870 C.3   112  ILE112      0.1561
     77  C         35.7310   37.1820   40.8310 C.2   112  ILE112      0.2260
     78  O         35.9290   37.4390   39.6380 O.2   112  ILE112     -0.2867
     79  CB        33.5730   35.8770   40.7280 C.3   112  ILE112      0.0252
     80  CG1       32.1540   35.7410   41.3000 C.3   112  ILE112      0.0019
     81  CG2       34.3730   34.5540   40.9290 C.3   112  ILE112      0.0019
     82  CD1       31.3280   34.5800   40.7090 C.3   112  ILE112      0.0001
     83  N         34.3760   38.8800   34.2420 N.3   117  TRP117     -0.1241
     84  CA        33.2700   39.7800   33.9480 C.3   117  TRP117      0.1605
     85  C         33.2160   40.9690   34.9240 C.2   117  TRP117      0.2264
     86  O         33.7220   40.9040   36.0520 O.2   117  TRP117     -0.2867
     87  CB        31.9210   39.0360   33.8530 C.3   117  TRP117      0.0550
     88  CG        31.5420   38.2040   35.0440 C.ar  117  TRP117      0.0003
     89  CD1       31.6270   36.8530   35.1430 C.ar  117  TRP117      0.0946
     90  CD2       30.8710   38.6470   36.2380 C.ar  117  TRP117      0.0152
     91  NE1       31.0740   36.4240   36.3180 N.ar  117  TRP117     -0.2442
     92  CE2       30.6600   37.5130   37.0360 C.ar  117  TRP117      0.0810
     93  CE3       30.4700   39.8960   36.7270 C.ar  117  TRP117      0.0012
     94  CZ2       30.0950   37.5880   38.3080 C.ar  117  TRP117      0.0191
     95  CZ3       29.8930   39.9690   37.9990 C.ar  117  TRP117      0.0001
     96  CH2       29.6730   38.8180   38.7510 C.ar  117  TRP117      0.0015
     97  N         26.6180   42.7720   34.9070 N.3   120  ILE120     -0.1245
     98  CA        25.5670   41.7770   34.8720 C.3   120  ILE120      0.1561
     99  C         24.4390   42.2400   33.9650 C.2   120  ILE120      0.2260
    100  O         24.0370   43.3860   34.0220 O.2   120  ILE120     -0.2867
    101  CB        25.0530   41.5050   36.3170 C.3   120  ILE120      0.0252
    102  CG1       23.9860   40.4270   36.3290 C.3   120  ILE120      0.0019
    103  CG2       24.5590   42.7940   37.0160 C.3   120  ILE120      0.0019
    104  CD1       23.7080   39.9060   37.7310 C.3   120  ILE120      0.0001
    105  N         10.5900   36.7490   38.0550 N.3   194  TYR194     -0.1241
    106  CA        11.5110   35.7350   37.5910 C.3   194  TYR194      0.1605
    107  C         10.9400   34.9660   36.3730 C.2   194  TYR194      0.2264
    108  O          9.7650   35.0810   36.0180 O.2   194  TYR194     -0.2867
    109  CB        11.8700   34.7750   38.7320 C.3   194  TYR194      0.0534
    110  CG        12.4980   35.4510   39.9410 C.ar  194  TYR194     -0.0201
    111  CD1       13.8310   35.8620   39.9150 C.ar  194  TYR194     -0.0009
    112  CD2       11.7830   35.6420   41.1140 C.ar  194  TYR194     -0.0009
    113  CE1       14.4000   36.5090   40.9760 C.ar  194  TYR194      0.0417
    114  CE2       12.3570   36.2920   42.2030 C.ar  194  TYR194      0.0417
    115  CZ        13.6840   36.7010   42.1230 C.ar  194  TYR194      0.1957
    116  OH        14.3170   37.3160   43.1920 O.3   194  TYR194     -0.2866
    117  N          9.4550   29.0620   45.2900 N.3   220  LYS220     -0.1245
    118  CA         9.3130   29.2720   43.8450 C.3   220  LYS220      0.1561
    119  C         10.2810   28.3300   43.1530 C.2   220  LYS220      0.2260
    120  O         11.2120   27.8470   43.7710 O.2   220  LYS220     -0.2867
    121  CB         9.6580   30.7180   43.4630 C.3   220  LYS220      0.0271
    122  CG        11.1080   31.1310   43.7810 C.3   220  LYS220      0.0035
    123  CD        11.3430   32.6500   43.7540 C.3   220  LYS220      0.0206
    124  CE        12.6410   33.0330   44.4780 C.3   220  LYS220      0.1093
    125  NZ        12.6340   32.8120   45.9620 N.3   220  LYS220     -0.1314
    126  N         12.7120   28.7180   39.6430 N.3   222  ILE222     -0.1245
    127  CA        13.1090   29.6820   38.6290 C.3   222  ILE222      0.1561
    128  C         14.2880   29.1560   37.8090 C.2   222  ILE222      0.2260
    129  O         14.9860   28.2120   38.2200 O.2   222  ILE222     -0.2867
    130  CB        13.4470   31.0920   39.2480 C.3   222  ILE222      0.0252
    131  CG1       14.7710   31.0680   40.0320 C.3   222  ILE222      0.0019
    132  CG2       12.2990   31.5800   40.1480 C.3   222  ILE222      0.0019
    133  CD1       15.3540   32.4820   40.3110 C.3   222  ILE222      0.0001
    134  N         17.6930   30.2780   36.2810 N.3   224  ASP224     -0.1239
    135  CA        18.6540   31.3490   36.4950 C.3   224  ASP224      0.1674
    136  C         20.0400   30.9630   36.0000 C.2   224  ASP224      0.2266
    137  O         20.7980   30.2850   36.6970 O.2   224  ASP224     -0.2867
    138  CB        18.6840   31.7250   37.9820 C.3   224  ASP224      0.1410
    139  CG        19.6620   32.8650   38.2950 C.2   224  ASP224      0.3668
    140  OD1       20.1490   33.5210   37.3470 O.co2 224  ASP224     -0.2456
    141  OD2       19.9590   33.0710   39.5010 O.co2 224  ASP224     -0.2456
    142  N         22.5480   32.7300   35.9040 N.3   226  GLY226     -0.1210
    143  CA        23.5540   33.3450   36.7430 C.3   226  GLY226      0.1956
    144  C         23.7270   32.6570   38.0860 C.2   226  GLY226      0.2612
    145  O         24.5540   33.0790   38.9020 O.2   226  GLY226     -0.2717
    146  N         22.9760   31.5770   38.3090 N.am  227  THR227     -0.1952
    147  CA        23.2300   30.6880   39.4490 C.3   227  THR227      0.1897
    148  C         23.9420   29.4590   38.9380 C.2   227  THR227      0.2313
    149  O         23.5370   28.8610   37.9410 O.2   227  THR227     -0.2863
    150  CB        21.9270   30.2680   40.2020 C.3   227  THR227      0.1794
    151  OG1       21.3640   31.4010   40.9100 O.3   227  THR227     -0.2208
    152  CG2       22.2190   29.1900   41.2010 C.3   227  THR227      0.0378
    153  N         19.9630   24.2700   42.7000 N.3   231  ARG231     -0.1245
    154  CA        19.6670   24.5640   44.1100 C.3   231  ARG231      0.1563
    155  C         18.2470   24.1120   44.4020 C.2   231  ARG231      0.2260
    156  O         17.3170   24.3980   43.6410 O.2   231  ARG231     -0.2867
    157  CB        19.8370   26.0750   44.4130 C.3   231  ARG231      0.0307
    158  CG        21.2000   26.6450   44.0080 C.3   231  ARG231      0.0489
    159  CD        21.4450   28.0260   44.5770 C.3   231  ARG231      0.2205
    160  NE        21.3440   28.0330   46.0290 N.pl3 231  ARG231     -0.0865
    161  CZ        20.6660   28.9410   46.7380 C.cat 231  ARG231      0.5346
    162  NH1       20.6220   28.8570   48.0630 N.pl3 231  ARG231      0.1354
    163  NH2       20.0660   29.9620   46.1400 N.pl3 231  ARG231      0.1354
    164  N         15.3920   29.6590   49.3390 N.3   325  THR325     -0.1218
    165  CA        14.6550   30.5870   48.4980 C.3   325  THR325      0.1862
    166  C         14.1810   29.9180   47.2080 C.2   325  THR325      0.2287
    167  O         14.1010   30.5540   46.1670 O.2   325  THR325     -0.2866
    168  CB        15.4860   31.8450   48.1980 C.3   325  THR325      0.1770
    169  OG1       16.6430   31.5010   47.4280 O.3   325  THR325     -0.2211
    170  CG2       15.9380   32.4830   49.5070 C.3   325  THR325      0.0375
    171  N         16.2990   26.5610   42.2270 N.3   328  VAL328     -0.1245
    172  CA        16.9590   27.3810   41.2190 C.3   328  VAL328      0.1561
    173  C         17.5810   26.4570   40.1690 C.2   328  VAL328      0.2260
    174  O         18.5300   25.7110   40.4460 O.2   328  VAL328     -0.2867
    175  CB        18.0500   28.3070   41.8020 C.3   328  VAL328      0.0252
    176  CG1       18.5420   29.2850   40.7200 C.3   328  VAL328      0.0019
    177  CG2       17.5340   29.1330   43.0170 C.3   328  VAL328      0.0019
@<TRIPOS>BOND
     1     3     4    2
     2     3     2    1
     3     1     2    1
     4     2     5    1
     5     9    10    1
     6    87    84    1
     7    87    88    1
     8    84    83    1
     9    84    85    1
    10    99   100    2
    11    99    98    1
    12    12    11    2
    13    11    10    1
    14    10    13    1
    15     5     6    1
    16    98    97    1
    17    98   101    1
    18    85    86    2
    19     7     6    1
    20    88    89   ar
    21    88    90   ar
    22    89    91   ar
    23     6     8    1
    24    24    23    2
    25    13    14    1
    26   142   143    1
    27   136   135    1
    28   136   137    2
    29   108   107    2
    30    90    93   ar
    31    90    92   ar
    32    17    18    1
    33   134   135    1
    34   101   102    1
    35   101   103    1
    36    91    92   ar
    37   102   104    1
    38   107   106    1
    39    23    22    1
    40   135   138    1
    41    93    95   ar
    42   143   144    1
    43    14    15   ar
    44    14    16   ar
    45    92    94   ar
    46    21    22    1
    47    21    19   am
    48   140   139   ar
    49    26    25    1
    50   106   105    1
    51   106   109    1
    52    18    19    1
    53    22    25    1
    54   128   129    2
    55   128   127    1
    56   149   148    2
    57   138   139    1
    58    95    96   ar
    59   144   146   am
    60   144   145    2
    61    19    20    2
    62   139   141   ar
    63    94    96   ar
    64   146   147    1
    65   127   130    1
    66   127   126    1
    67   109   110    1
    68   148   147    1
    69   130   131    1
    70   130   132    1
    71   147   150    1
    72    78    77    2
    73    74    73   ar
    74    74    72   ar
    75   111   110   ar
    76   111   113   ar
    77   110   112   ar
    78   131   133    1
    79   173   174    2
    80   173   172    1
    81   150   151    1
    82   150   152    1
    83    73    71   ar
    84    82    80    1
    85   176   175    1
    86    79    81    1
    87    79    80    1
    88    79    76    1
    89    72    70   ar
    90    38    37    1
    91    77    76    1
    92   113   115   ar
    93   112   114   ar
    94    75    76    1
    95   172   175    1
    96   172   171    1
    97    71    69   ar
    98   175   177    1
    99    37    35   ar
   100    37    36   ar
   101    70    69   ar
   102   115   114   ar
   103   115   116    1
   104    35    33   ar
   105    67    66    2
   106    69    68    1
   107   153   154    1
   108    36    34   ar
   109    66    65    1
   110   119   120    2
   111   119   118    1
   112    33    32   ar
   113   121   122    1
   114   121   118    1
   115   156   155    2
   116    68    65    1
   117   123   122    1
   118   123   124    1
   119   118   117    1
   120    34    32   ar
   121    65    64    1
   122   158   157    1
   123   158   159    1
   124   154   155    1
   125   154   157    1
   126    32    31    1
   127   124   125    1
   128   159   160    1
   129    64    57   am
   130    31    28    1
   131    58    57    2
   132   160   161    2
   133   163   161    1
   134   167   166    2
   135    49    48    2
   136    57    56    1
   137    28    27    1
   138    28    29    1
   139   161   162    1
   140   166   165    1
   141    48    47    1
   142   169   168    1
   143    56    55    1
   144    56    59    1
   145    39    29   am
   146    39    40    1
   147    29    30    2
   148    50    51    1
   149    50    47    1
   150    46    47    1
   151    46    41   am
   152   168   165    1
   153   168   170    1
   154    51    52    1
   155    44    43    1
   156   165   164    1
   157    43    40    1
   158    43    45    1
   159    59    60    1
   160    40    41    1
   161    41    42    2
   162    52    54   am
   163    52    53    2
   164    60    61    1
   165    61    62    1
   166    62    63    1
