@<TRIPOS>MOLECULE
tmp/3udtA00.pdb
 175 162 0 0 0
SMALL
GASTEIGER

@<TRIPOS>ATOM
      1  N        -36.1580   -0.2230  -11.3780 N.3    15  GLY15      -0.1210
      2  CA       -36.0240    0.3770  -10.0670 C.3    15  GLY15       0.1956
      3  C        -36.0780   -0.7400   -9.0590 C.2    15  GLY15       0.2612
      4  O        -35.6590   -1.8510   -9.3570 O.2    15  GLY15      -0.2717
      5  N        -36.6040   -0.4700   -7.8740 N.am   16  GLY16      -0.1942
      6  CA       -36.7330   -1.5260   -6.8880 C.3    16  GLY16       0.2014
      7  C        -37.7880   -2.5550   -7.2750 C.2    16  GLY16       0.2638
      8  O        -37.6530   -3.7360   -6.9360 O.2    16  GLY16      -0.2714
      9  N        -38.8090   -2.1120   -8.0210 N.am   17  ALA17      -0.1977
     10  CA       -40.0610   -2.8660   -8.1920 C.3    17  ALA17       0.1597
     11  C        -40.4580   -3.3280   -9.6090 C.2    17  ALA17       0.2287
     12  O        -41.1180   -4.3500   -9.7570 O.2    17  ALA17      -0.2864
     13  CB       -41.2120   -2.0940   -7.5640 C.3    17  ALA17       0.0319
     14  N        -39.7820   -9.9200   -5.5070 N.3    41  ARG41      -0.1245
     15  CA       -38.6230  -10.0090   -4.6370 C.3    41  ARG41       0.1563
     16  C        -38.7080  -11.3580   -3.9240 C.2    41  ARG41       0.2260
     17  O        -39.7310  -12.0410   -4.0170 O.2    41  ARG41      -0.2867
     18  CB       -38.6240   -8.8530   -3.6280 C.3    41  ARG41       0.0307
     19  CG       -38.5900   -7.4390   -4.2490 C.3    41  ARG41       0.0489
     20  CD       -39.9980   -6.8500   -4.4970 C.3    41  ARG41       0.2205
     21  NE       -40.1070   -5.3770   -4.4110 N.pl3  41  ARG41      -0.0865
     22  CZ       -39.0990   -4.5020   -4.2790 C.cat  41  ARG41       0.5346
     23  NH1      -37.8280   -4.8990   -4.2240 N.pl3  41  ARG41       0.1354
     24  NH2      -39.3670   -3.2000   -4.2120 N.pl3  41  ARG41       0.1354
     25  N        -26.7730   -7.3750   -8.2980 N.3   112  TRP112     -0.1227
     26  CA       -27.5100   -7.3310   -7.0310 C.3   112  TRP112      0.1737
     27  C        -29.0140   -7.1040   -7.2560 C.2   112  TRP112      0.2595
     28  O        -29.8320   -7.3220   -6.3600 O.2   112  TRP112     -0.2718
     29  CB       -26.9380   -6.2170   -6.1490 C.3   112  TRP112      0.0564
     30  CG       -27.1780   -4.8630   -6.7420 C.ar  112  TRP112      0.0003
     31  CD1      -26.4260   -4.2310   -7.7000 C.ar  112  TRP112      0.0946
     32  CD2      -28.2780   -3.9890   -6.4500 C.ar  112  TRP112      0.0152
     33  NE1      -26.9880   -3.0140   -8.0080 N.ar  112  TRP112     -0.2442
     34  CE2      -28.1220   -2.8390   -7.2540 C.ar  112  TRP112      0.0810
     35  CE3      -29.3770   -4.0680   -5.5810 C.ar  112  TRP112      0.0012
     36  CZ2      -29.0230   -1.7700   -7.2130 C.ar  112  TRP112      0.0191
     37  CZ3      -30.2670   -3.0080   -5.5380 C.ar  112  TRP112      0.0001
     38  CH2      -30.0850   -1.8710   -6.3490 C.ar  112  TRP112      0.0015
     39  N        -29.3650   -6.6470   -8.4530 N.am  113  ARG113     -0.1980
     40  CA       -30.7560   -6.4970   -8.8320 C.3   113  ARG113      0.1597
     41  C        -31.2970   -7.8650   -9.2170 C.2   113  ARG113      0.2287
     42  O        -32.4910   -8.1310   -9.0790 O.2   113  ARG113     -0.2864
     43  CB       -30.8870   -5.5320  -10.0130 C.3   113  ARG113      0.0334
     44  CG       -30.7230   -4.0580   -9.6740 C.3   113  ARG113      0.0492
     45  CD       -32.0250   -3.4560   -9.1920 C.3   113  ARG113      0.2205
     46  NE       -32.0070   -1.9920   -9.1420 N.pl3 113  ARG113     -0.0865
     47  CZ       -32.6040   -1.2650   -8.1960 C.cat 113  ARG113      0.5346
     48  NH1      -33.2610   -1.8560   -7.2050 N.pl3 113  ARG113      0.1354
     49  NH2      -32.5450    0.0570   -8.2410 N.pl3 113  ARG113      0.1354
     50  N        -34.5470   11.9160  -10.3880 N.3   143  LYS143     -0.1245
     51  CA       -35.1760   11.4040   -9.1770 C.3   143  LYS143      0.1561
     52  C        -34.8440   12.3760   -8.0580 C.2   143  LYS143      0.2260
     53  O        -33.7690   12.2840   -7.4680 O.2   143  LYS143     -0.2867
     54  CB       -34.6830    9.9980   -8.8230 C.3   143  LYS143      0.0271
     55  CG       -35.6390    9.2150   -7.9390 C.3   143  LYS143      0.0035
     56  CD       -34.9190    8.0470   -7.3270 C.3   143  LYS143      0.0206
     57  CE       -35.8620    7.1450   -6.5820 C.3   143  LYS143      0.1093
     58  NZ       -35.2970    5.7780   -6.4230 N.3   143  LYS143     -0.1314
     59  N        -36.2950   13.0240   -4.9650 N.3   145  LYS145     -0.1245
     60  CA       -36.4050   12.6310   -3.5610 C.3   145  LYS145      0.1561
     61  C        -37.1370   13.6980   -2.7590 C.2   145  LYS145      0.2260
     62  O        -37.7700   14.5830   -3.3420 O.2   145  LYS145     -0.2867
     63  CB       -35.0310   12.3290   -2.9710 C.3   145  LYS145      0.0271
     64  CG       -34.2850   11.2880   -3.7660 C.3   145  LYS145      0.0035
     65  CD       -35.0920    9.9970   -3.8520 C.3   145  LYS145      0.0206
     66  CE       -35.2610    9.3520   -2.4930 C.3   145  LYS145      0.1093
     67  NZ       -35.8530    8.0050   -2.6290 N.3   145  LYS145     -0.1314
     68  N        -33.0200   14.6260    4.5450 N.3   167  ARG167     -0.1245
     69  CA       -33.0080   13.1680    4.7010 C.3   167  ARG167      0.1563
     70  C        -32.1090   12.5130    3.6780 C.2   167  ARG167      0.2260
     71  O        -31.5640   11.4510    3.9210 O.2   167  ARG167     -0.2867
     72  CB       -34.4080   12.6110    4.5330 C.3   167  ARG167      0.0307
     73  CG       -34.4580   11.2530    3.8970 C.3   167  ARG167      0.0489
     74  CD       -34.1800   10.1410    4.8880 C.3   167  ARG167      0.2205
     75  NE       -34.9730    8.9610    4.5760 N.pl3 167  ARG167     -0.0865
     76  CZ       -35.7780    8.3720    5.4490 C.cat 167  ARG167      0.5346
     77  NH1      -35.8680    8.8450    6.6840 N.pl3 167  ARG167      0.1354
     78  NH2      -36.4830    7.3030    5.0980 N.pl3 167  ARG167      0.1354
     79  N        -28.8900   10.2510    4.4110 N.3   171  HIS171     -0.1241
     80  CA       -28.9550    8.9000    3.8950 C.3   171  HIS171      0.1621
     81  C        -27.6940    8.5620    3.1500 C.2   171  HIS171      0.2264
     82  O        -27.2500    7.4190    3.1570 O.2   171  HIS171     -0.2867
     83  CB       -30.1590    8.7130    2.9900 C.3   171  HIS171      0.0745
     84  CG       -30.7160    7.3270    3.0230 C.ar  171  HIS171      0.0817
     85  ND1      -31.7710    6.9290    2.2310 N.ar  171  HIS171     -0.2268
     86  CD2      -30.3670    6.2480    3.7660 C.ar  171  HIS171      0.1154
     87  CE1      -32.0420    5.6590    2.4780 C.ar  171  HIS171      0.1986
     88  NE2      -31.2120    5.2260    3.4130 N.ar  171  HIS171     -0.2212
     89  N        -25.7150    5.0140    3.1370 N.3   175  LYS175     -0.1245
     90  CA       -25.5020    4.3080    1.8940 C.3   175  LYS175      0.1561
     91  C        -24.0260    3.9880    1.7420 C.2   175  LYS175      0.2260
     92  O        -23.6360    2.8530    1.5320 O.2   175  LYS175     -0.2867
     93  CB       -25.9990    5.1490    0.7170 C.3   175  LYS175      0.0271
     94  CG       -27.5020    5.3360    0.6900 C.3   175  LYS175      0.0035
     95  CD       -27.9620    5.8930   -0.6450 C.3   175  LYS175      0.0206
     96  CE       -29.4290    6.3230   -0.5950 C.3   175  LYS175      0.1093
     97  NZ       -30.3130    5.2650   -0.0630 N.3   175  LYS175     -0.1314
     98  N        -28.3560    7.2910   -8.4890 N.3   213  ASN213     -0.1240
     99  CA       -29.5810    6.8320   -9.1540 C.3   213  ASN213      0.1653
    100  C        -30.6110    7.9500   -9.3460 C.2   213  ASN213      0.2266
    101  O        -31.8140    7.6920   -9.5380 O.2   213  ASN213     -0.2867
    102  CB       -30.1870    5.5940   -8.4710 C.3   213  ASN213      0.1155
    103  CG       -30.7770    5.8870   -7.0910 C.2   213  ASN213      0.2627
    104  OD1      -30.5620    6.9440   -6.5020 O.2   213  ASN213     -0.2716
    105  ND2      -31.5200    4.9220   -6.5690 N.am  213  ASN213     -0.0877
    106  N        -29.4450    1.1660  -12.0290 N.3   230  GLU230     -0.1245
    107  CA       -28.7120    1.3160  -10.7770 C.3   230  GLU230      0.1567
    108  C        -28.0250    2.6810  -10.6280 C.2   230  GLU230      0.2260
    109  O        -28.1250    3.5570  -11.5110 O.2   230  GLU230     -0.2867
    110  CB       -27.6580    0.2090  -10.6590 C.3   230  GLU230      0.0388
    111  CG       -26.4950    0.3820  -11.6370 C.3   230  GLU230      0.1160
    112  CD       -25.4840   -0.7400  -11.5700 C.2   230  GLU230      0.3649
    113  OE1      -25.2370   -1.2670  -10.4640 O.co2 230  GLU230     -0.2457
    114  OE2      -24.9380   -1.0950  -12.6370 O.co2 230  GLU230     -0.2457
    115  N        -45.0080    9.3220    0.4760 N.3   325  ALA325     -0.1245
    116  CA       -44.0590    8.2780    0.1390 C.3   325  ALA325      0.1562
    117  C        -43.8960    8.1780   -1.3830 C.2   325  ALA325      0.2260
    118  O        -42.7570    8.1460   -1.8910 O.2   325  ALA325     -0.2867
    119  CB       -44.5170    6.9600    0.7080 C.3   325  ALA325      0.0290
    120  N        -40.5360    9.3820   -4.0880 N.3   329  ASP329     -0.1239
    121  CA       -39.7640    8.3530   -4.7610 C.3   329  ASP329      0.1674
    122  C        -40.1830    8.1940   -6.2190 C.2   329  ASP329      0.2266
    123  O        -39.8260    7.2090   -6.8750 O.2   329  ASP329     -0.2867
    124  CB       -39.8930    7.0230   -4.0240 C.3   329  ASP329      0.1410
    125  CG       -38.8650    6.0190   -4.4760 C.2   329  ASP329      0.3668
    126  OD1      -37.6560    6.3090   -4.3500 O.co2 329  ASP329     -0.2456
    127  OD2      -39.2640    4.9530   -4.9820 O.co2 329  ASP329     -0.2456
    128  N        -43.2090    6.3590  -12.3030 N.3   357  ASP357     -0.1239
    129  CA       -43.0810    5.6140  -11.0620 C.3   357  ASP357      0.1674
    130  C        -43.8670    6.2550   -9.9440 C.2   357  ASP357      0.2266
    131  O        -43.3120    6.6130   -8.9020 O.2   357  ASP357     -0.2867
    132  CB       -41.6230    5.4680  -10.6520 C.3   357  ASP357      0.1410
    133  CG       -41.4550    4.5300   -9.4840 C.2   357  ASP357      0.3668
    134  OD1      -42.4100    3.7520   -9.2420 O.co2 357  ASP357     -0.2456
    135  OD2      -40.3850    4.5660   -8.8220 O.co2 357  ASP357     -0.2456
    136  N        -47.4810    2.5700   -2.2020 N.3   361  LYS361     -0.1245
    137  CA       -46.5660    1.9810   -1.2170 C.3   361  LYS361      0.1561
    138  C        -47.3380    1.0570   -0.2640 C.2   361  LYS361      0.2260
    139  O        -48.4020    1.4250    0.2600 O.2   361  LYS361     -0.2867
    140  CB       -45.7650    3.0660   -0.4520 C.3   361  LYS361      0.0271
    141  CG       -44.9900    4.0830   -1.3290 C.3   361  LYS361      0.0035
    142  CD       -43.7840    3.4640   -2.0540 C.3   361  LYS361      0.0206
    143  CE       -43.2180    4.3970   -3.1550 C.3   361  LYS361      0.1093
    144  NZ       -41.9910    3.8990   -3.8820 N.3   361  LYS361     -0.1314
    145  N        -45.2230   -1.3780    5.0080 N.3   365  ARG365     -0.1245
    146  CA       -43.9180   -0.7490    4.8980 C.3   365  ARG365      0.1563
    147  C        -43.7570    0.3850    5.8840 C.2   365  ARG365      0.2260
    148  O        -42.6890    0.9780    5.9670 O.2   365  ARG365     -0.2867
    149  CB       -43.6900   -0.2330    3.4860 C.3   365  ARG365      0.0307
    150  CG       -42.2480   -0.1870    3.1250 C.3   365  ARG365      0.0489
    151  CD       -42.0530    0.2150    1.6870 C.3   365  ARG365      0.2205
    152  NE       -42.2940   -0.8810    0.7510 N.pl3 365  ARG365     -0.0865
    153  CZ       -41.9780   -0.8170   -0.5390 C.cat 365  ARG365      0.5346
    154  NH1      -41.4070    0.2790   -1.0260 N.pl3 365  ARG365      0.1354
    155  NH2      -42.2250   -1.8400   -1.3390 N.pl3 365  ARG365      0.1354
    156  N        -40.1590    1.5690    7.2720 N.3   369  TYR369     -0.1241
    157  CA       -39.9410    3.0130    7.1410 C.3   369  TYR369      0.1605
    158  C        -39.4250    3.5650    8.4740 C.2   369  TYR369      0.2264
    159  O        -38.4120    4.2640    8.5050 O.2   369  TYR369     -0.2867
    160  CB       -41.2310    3.7410    6.7510 C.3   369  TYR369      0.0534
    161  CG       -41.5980    3.7150    5.2830 C.ar  369  TYR369     -0.0201
    162  CD1      -42.9190    3.8740    4.8810 C.ar  369  TYR369     -0.0009
    163  CD2      -40.6330    3.5560    4.2950 C.ar  369  TYR369     -0.0009
    164  CE1      -43.2720    3.8740    3.5450 C.ar  369  TYR369      0.0417
    165  CE2      -40.9770    3.5550    2.9490 C.ar  369  TYR369      0.0417
    166  CZ       -42.3020    3.7170    2.5830 C.ar  369  TYR369      0.1957
    167  OH       -42.6710    3.7100    1.2530 O.3   369  TYR369     -0.2866
    168  N        -35.8210    2.1360    9.3300 N.3   372  LEU372     -0.1245
    169  CA       -34.8030    2.7840    8.5130 C.3   372  LEU372      0.1561
    170  C        -34.5510    4.2360    8.9310 C.2   372  LEU372      0.2260
    171  O        -33.4110    4.6820    9.0080 O.2   372  LEU372     -0.2867
    172  CB       -35.2090    2.7300    7.0360 C.3   372  LEU372      0.0270
    173  CG       -34.3840    3.6020    6.0970 C.3   372  LEU372      0.0019
    174  CD1      -32.9400    3.1370    6.0280 C.3   372  LEU372      0.0001
    175  CD2      -35.0300    3.5880    4.7360 C.3   372  LEU372      0.0001
@<TRIPOS>BOND
     1   114   112   ar
     2   128   129    1
     3   106   107    1
     4   111   112    1
     5   111   110    1
     6   112   113   ar
     7   109   108    2
     8     1     2    1
     9   129   132    1
    10   129   130    1
    11   107   110    1
    12   107   108    1
    13   132   133    1
    14    50    51    1
    15     2     3    1
    16    43    44    1
    17    43    40    1
    18   130   131    2
    19    12    11    2
    20    44    45    1
    21    11    10    1
    22   101   100    2
    23   133   134   ar
    24   133   135   ar
    25     4     3    2
    26   100    99    1
    27    41    42    2
    28    41    40    1
    29    45    46    1
    30    51    54    1
    31    51    52    1
    32    99    98    1
    33    99   102    1
    34    46    47    2
    35     3     5   am
    36    40    39    1
    37    54    55    1
    38   102   103    1
    39    39    27   am
    40    25    26    1
    41    49    47    1
    42    47    48    1
    43    10     9    1
    44    10    13    1
    45    52    53    2
    46     9     7   am
    47    33    31   ar
    48    33    34   ar
    49    55    56    1
    50     5     6    1
    51    31    30   ar
    52    56    57    1
    53     7     8    2
    54     7     6    1
    55    27    26    1
    56    27    28    2
    57    34    36   ar
    58    34    32   ar
    59    36    38   ar
    60   103   105   am
    61   103   104    2
    62    26    29    1
    63   123   122    2
    64    30    32   ar
    65    30    29    1
    66    57    58    1
    67    32    35   ar
    68    38    37   ar
    69   122   121    1
    70    35    37   ar
    71    14    15    1
    72   127   125   ar
    73    59    60    1
    74   121   120    1
    75   121   124    1
    76    15    16    1
    77    15    18    1
    78    20    21    1
    79    20    19    1
    80   125   126   ar
    81   125   124    1
    82    21    22    2
    83    22    23    1
    84    22    24    1
    85    19    18    1
    86    17    16    2
    87   144   143    1
    88    65    64    1
    89    65    66    1
    90    64    63    1
    91    60    63    1
    92    60    61    1
    93    62    61    2
    94   143   142    1
    95    67    66    1
    96   136   137    1
    97   142   141    1
    98   118   117    2
    99   117   116    1
   100   155   153    1
   101   141   140    1
   102   137   140    1
   103   137   138    1
   104   154   153    1
   105    95    96    1
   106    95    94    1
   107    96    97    1
   108   153   152    2
   109   138   139    2
   110   116   115    1
   111   116   119    1
   112    94    93    1
   113    93    90    1
   114   152   151    1
   115   167   166    1
   116    92    91    2
   117   151   150    1
   118    91    90    1
   119    90    89    1
   120    85    87   ar
   121    85    84   ar
   122    87    88   ar
   123   166   165   ar
   124   166   164   ar
   125   165   163   ar
   126    83    84    1
   127    83    80    1
   128    84    86   ar
   129   150   149    1
   130    81    82    2
   131    81    80    1
   132    88    86   ar
   133   149   146    1
   134   164   162   ar
   135    70    71    2
   136    70    69    1
   137    80    79    1
   138    73    72    1
   139    73    74    1
   140   163   161   ar
   141    72    69    1
   142    68    69    1
   143    75    74    1
   144    75    76    2
   145   175   173    1
   146   162   161   ar
   147   146   145    1
   148   146   147    1
   149    78    76    1
   150   161   160    1
   151    76    77    1
   152   147   148    2
   153   174   173    1
   154   173   172    1
   155   160   157    1
   156   172   169    1
   157   157   156    1
   158   157   158    1
   159   158   159    2
   160   169   170    1
   161   169   168    1
   162   170   171    2
