@<TRIPOS>MOLECULE
tmp/3udxA00.pdb
 125 118 0 0 0
SMALL
GASTEIGER

@<TRIPOS>ATOM
      1  N        -38.8220    4.6470   -8.9640 N.3   347  GLY347     -0.1210
      2  CA       -38.7340    3.2690   -9.4300 C.3   347  GLY347      0.1956
      3  C        -39.3030    2.3110   -8.3920 C.2   347  GLY347      0.2612
      4  O        -40.3620    2.5600   -7.7940 O.2   347  GLY347     -0.2717
      5  N        -38.5420    1.2510   -8.1110 N.am  348  SER348     -0.1952
      6  CA       -38.8940    0.1710   -7.1880 C.3   348  SER348      0.1924
      7  C        -39.0740    0.6030   -5.7470 C.2   348  SER348      0.2314
      8  O        -39.6930   -0.1410   -4.9830 O.2   348  SER348     -0.2863
      9  CB       -37.8770   -0.9580   -7.2720 C.3   348  SER348      0.2116
     10  OG       -37.9300   -1.5800   -8.5340 O.3   348  SER348     -0.2180
     11  N        -42.7310    0.6680   -4.7290 N.3   351  LYS351     -0.1245
     12  CA       -43.3590   -0.6520   -4.6350 C.3   351  LYS351      0.1561
     13  C        -43.8450   -1.0530   -3.2420 C.2   351  LYS351      0.2260
     14  O        -44.9900   -1.5080   -3.1520 O.2   351  LYS351     -0.2867
     15  CB       -42.5090   -1.7670   -5.2790 C.3   351  LYS351      0.0271
     16  CG       -42.4170   -1.6890   -6.7970 C.3   351  LYS351      0.0035
     17  CD       -41.8430   -2.9600   -7.4020 C.3   351  LYS351      0.0206
     18  CE       -41.4850   -2.7940   -8.8590 C.3   351  LYS351      0.1093
     19  NZ       -42.6640   -2.4670   -9.6990 N.3   351  LYS351     -0.1314
     20  N        -37.7240   -5.8600  -16.1030 N.3   384  SER384     -0.1202
     21  CA       -36.4100   -5.3190  -16.4620 C.3   384  SER384      0.2020
     22  C        -35.4130   -6.3560  -17.0350 C.2   384  SER384      0.2618
     23  O        -34.7190   -6.0700  -18.0150 O.2   384  SER384     -0.2717
     24  CB       -35.8100   -4.5370  -15.2950 C.3   384  SER384      0.2103
     25  OG       -36.1210   -3.1540  -15.4030 O.3   384  SER384     -0.2182
     26  N        -35.3920   -7.5680  -16.4590 N.am  385  ASP385     -0.1973
     27  CA       -34.5120   -8.6490  -16.9040 C.3   385  ASP385      0.1709
     28  C        -35.0750   -9.5020  -18.0670 C.2   385  ASP385      0.2293
     29  O        -34.4060  -10.4360  -18.5110 O.2   385  ASP385     -0.2864
     30  CB       -34.1220   -9.5370  -15.7020 C.3   385  ASP385      0.1436
     31  CG       -35.2680  -10.1250  -14.8900 C.2   385  ASP385      0.3671
     32  OD1      -36.4460   -9.9590  -15.3010 O.co2 385  ASP385     -0.2456
     33  OD2      -34.9880  -10.7660  -13.8540 O.co2 385  ASP385     -0.2456
     34  N        -37.6620   -9.1430   -5.5870 N.3   400  LEU400     -0.1231
     35  CA       -37.1460   -9.2060   -6.9490 C.3   400  LEU400      0.1693
     36  C        -37.6450   -8.1050   -7.8910 C.2   400  LEU400      0.2592
     37  O        -37.1560   -8.0060   -9.0230 O.2   400  LEU400     -0.2718
     38  CB       -37.3120  -10.6190   -7.5340 C.3   400  LEU400      0.0284
     39  CG       -36.5730  -11.7150   -6.7550 C.3   400  LEU400      0.0019
     40  CD1      -37.0490  -13.0950   -7.1650 C.3   400  LEU400      0.0001
     41  CD2      -35.0510  -11.5700   -6.8880 C.3   400  LEU400      0.0001
     42  N        -38.5910   -7.2610   -7.4060 N.am  401  SER401     -0.1952
     43  CA       -39.2030   -6.1220   -8.1080 C.3   401  SER401      0.1924
     44  C        -39.9240   -6.5240   -9.4090 C.2   401  SER401      0.2314
     45  O        -39.6000   -6.0380  -10.4930 O.2   401  SER401     -0.2863
     46  CB       -38.1930   -4.9930   -8.3080 C.3   401  SER401      0.2116
     47  OG       -37.8090   -4.4460   -7.0560 O.3   401  SER401     -0.2180
     48  N        -42.4410   -6.1510  -11.9960 N.3   403  ASN403     -0.1240
     49  CA       -43.3540   -5.1480  -12.5780 C.3   403  ASN403      0.1653
     50  C        -44.7010   -5.7220  -12.9400 C.2   403  ASN403      0.2266
     51  O        -45.7220   -5.0650  -12.7140 O.2   403  ASN403     -0.2867
     52  CB       -42.7350   -4.4640  -13.7850 C.3   403  ASN403      0.1155
     53  CG       -41.4780   -3.6740  -13.4910 C.2   403  ASN403      0.2627
     54  OD1      -41.2660   -3.1820  -12.3820 O.2   403  ASN403     -0.2716
     55  ND2      -40.6460   -3.4750  -14.5060 N.am  403  ASN403     -0.0877
     56  N        -44.9070    1.0590  -11.5300 N.3   440  LEU440     -0.1245
     57  CA       -43.5210    0.9510  -11.9940 C.3   440  LEU440      0.1561
     58  C        -42.6170    2.1010  -11.5220 C.2   440  LEU440      0.2260
     59  O        -41.4520    2.1410  -11.9060 O.2   440  LEU440     -0.2867
     60  CB       -43.4870    0.8220  -13.5330 C.3   440  LEU440      0.0270
     61  CG       -43.5320   -0.6040  -14.0940 C.3   440  LEU440      0.0019
     62  CD1      -44.8930   -1.2420  -13.9000 C.3   440  LEU440      0.0001
     63  CD2      -43.1540   -0.6180  -15.5640 C.3   440  LEU440      0.0001
     64  N        -35.2850   -0.8920    1.1180 N.3   531  LYS531     -0.1231
     65  CA       -35.5490   -1.2300   -0.2730 C.3   531  LYS531      0.1693
     66  C        -34.6630   -0.4090   -1.2170 C.2   531  LYS531      0.2593
     67  O        -34.5460    0.8110   -1.0650 O.2   531  LYS531     -0.2718
     68  CB       -37.0480   -1.0330   -0.5870 C.3   531  LYS531      0.0285
     69  CG       -37.4920   -1.3530   -2.0190 C.3   531  LYS531      0.0035
     70  CD       -37.8530   -2.8160   -2.2320 C.3   531  LYS531      0.0206
     71  CE       -38.2840   -3.1190   -3.6560 C.3   531  LYS531      0.1093
     72  NZ       -37.1690   -3.0390   -4.6450 N.3   531  LYS531     -0.1314
     73  N        -34.0580   -1.0980   -2.2010 N.am  532  THR532     -0.1939
     74  CA       -33.2510   -0.5100   -3.2670 C.3   532  THR532      0.2028
     75  C        -34.1840   -0.0990   -4.4210 C.2   532  THR532      0.2643
     76  O        -35.2950   -0.6480   -4.5530 O.2   532  THR532     -0.2714
     77  CB       -32.2640   -1.5380   -3.8520 C.3   532  THR532      0.1808
     78  OG1      -32.9870   -2.6760   -4.2870 O.3   532  THR532     -0.2208
     79  CG2      -31.1560   -1.9320   -2.9050 C.3   532  THR532      0.0379
     80  N        -33.6740    0.7880   -5.2770 N.am  533  GLY533     -0.1939
     81  CA       -34.3320    1.2340   -6.4960 C.3   533  GLY533      0.2014
     82  C        -33.3400    1.5170   -7.6110 C.2   533  GLY533      0.2640
     83  O        -32.2390    2.0130   -7.3610 O.2   533  GLY533     -0.2714
     84  N        -33.7090    1.1610   -8.8470 N.am  534  THR534     -0.1936
     85  CA       -32.9380    1.4360  -10.0720 C.3   534  THR534      0.2028
     86  C        -33.9260    1.6950  -11.1970 C.2   534  THR534      0.2643
     87  O        -34.5480    0.7370  -11.6950 O.2   534  THR534     -0.2714
     88  CB       -31.9980    0.2970  -10.5080 C.3   534  THR534      0.1808
     89  OG1      -31.3720   -0.3260   -9.3820 O.3   534  THR534     -0.2208
     90  CG2      -30.9680    0.7810  -11.5190 C.3   534  THR534      0.0379
     91  N        -34.0560    2.9800  -11.6110 N.am  535  THR535     -0.1936
     92  CA       -34.9470    3.3910  -12.6960 C.3   535  THR535      0.2028
     93  C        -34.4290    2.8510  -14.0340 C.2   535  THR535      0.2642
     94  O        -33.3090    2.3260  -14.0880 O.2   535  THR535     -0.2714
     95  CB       -35.1970    4.9160  -12.6890 C.3   535  THR535      0.1808
     96  OG1      -33.9750    5.6090  -12.9250 O.3   535  THR535     -0.2208
     97  CG2      -35.8490    5.4040  -11.4060 C.3   535  THR535      0.0379
     98  N        -35.2440    2.9520  -15.1080 N.am  536  ASN536     -0.1971
     99  CA       -34.8540    2.4400  -16.4210 C.3   536  ASN536      0.1688
    100  C        -33.6200    3.1230  -16.9900 C.2   536  ASN536      0.2292
    101  O        -33.4760    4.3570  -16.9340 O.2   536  ASN536     -0.2864
    102  CB       -36.0150    2.3980  -17.3990 C.3   536  ASN536      0.1181
    103  CG       -37.2190    1.6820  -16.8500 C.2   536  ASN536      0.2629
    104  OD1      -38.1540    2.3120  -16.3490 O.2   536  ASN536     -0.2716
    105  ND2      -37.2030    0.3490  -16.8780 N.am  536  ASN536     -0.0877
    106  N        -26.5810   -0.3400   -9.9700 N.3   569  TYR569     -0.1227
    107  CA       -27.8970   -0.5660   -9.3790 C.3   569  TYR569      0.1736
    108  C        -27.9100    0.1110   -8.0140 C.2   569  TYR569      0.2596
    109  O        -26.8390    0.3010   -7.4350 O.2   569  TYR569     -0.2718
    110  CB       -28.1800   -2.0740   -9.1860 C.3   569  TYR569      0.0548
    111  CG       -27.9740   -2.9690  -10.3890 C.ar  569  TYR569     -0.0200
    112  CD1      -28.8260   -2.9000  -11.4910 C.ar  569  TYR569     -0.0009
    113  CD2      -27.0020   -3.9670  -10.3810 C.ar  569  TYR569     -0.0009
    114  CE1      -28.6680   -3.7540  -12.5860 C.ar  569  TYR569      0.0417
    115  CE2      -26.8330   -4.8270  -11.4690 C.ar  569  TYR569      0.0417
    116  CZ       -27.6710   -4.7200  -12.5690 C.ar  569  TYR569      0.1957
    117  OH       -27.5020   -5.5660  -13.6430 O.3   569  TYR569     -0.2866
    118  N        -29.1140    0.4110   -7.4940 N.am  570  GLY570     -0.1942
    119  CA       -29.3330    1.0170   -6.1810 C.3   570  GLY570      0.2014
    120  C        -28.4710    0.4040   -5.0980 C.2   570  GLY570      0.2639
    121  O        -27.8020    1.1270   -4.3470 O.2   570  GLY570     -0.2714
    122  N        -28.4390   -0.9370   -5.0840 N.am  571  GLY571     -0.1954
    123  CA       -27.6510   -1.7560   -4.1650 C.3   571  GLY571      0.1869
    124  C        -26.1440   -1.5590   -4.2440 C.2   571  GLY571      0.2309
    125  O        -25.4310   -1.8070   -3.2620 O.2   571  GLY571     -0.2863
@<TRIPOS>BOND
     1    29    28    2
     2    28    27    1
     3    23    22    2
     4   102   103    1
     5   102    99    1
     6    22    21    1
     7    22    26   am
     8   100   101    2
     9   100    99    1
    10    27    26    1
    11    27    30    1
    12   105   103   am
    13   103   104    2
    14    21    20    1
    15    21    24    1
    16    99    98    1
    17    30    31    1
    18    63    61    1
    19    25    24    1
    20    32    31   ar
    21    98    93   am
    22    31    33   ar
    23    55    53   am
    24    61    62    1
    25    61    60    1
    26    94    93    2
    27    93    92    1
    28    52    53    1
    29    52    49    1
    30   117   116    1
    31    60    57    1
    32    53    54    2
    33    50    51    2
    34    50    49    1
    35    96    95    1
    36    92    95    1
    37    92    91    1
    38    95    97    1
    39   114   116   ar
    40   114   112   ar
    41    49    48    1
    42   116   115   ar
    43    57    56    1
    44    57    58    1
    45    59    58    2
    46    87    86    2
    47    91    86   am
    48    90    88    1
    49   112   111   ar
    50   115   113   ar
    51    86    85    1
    52    88    85    1
    53    88    89    1
    54    45    44    2
    55   111   113   ar
    56   111   110    1
    57    85    84    1
    58   106   107    1
    59    19    18    1
    60     2     1    1
    61     2     3    1
    62    44    43    1
    63   107   110    1
    64   107   108    1
    65    37    36    2
    66    18    17    1
    67    84    82   am
    68    10     9    1
    69     3     5   am
    70     3     4    2
    71    46    43    1
    72    46    47    1
    73     5     6    1
    74    43    42    1
    75   108   118   am
    76   108   109    2
    77    36    42   am
    78    36    35    1
    79    82    83    2
    80    82    81    1
    81    38    35    1
    82    38    39    1
    83   118   119    1
    84    17    16    1
    85     9     6    1
    86     6     7    1
    87    40    39    1
    88    35    34    1
    89    41    39    1
    90    16    15    1
    91    81    80    1
    92   119   120    1
    93     7     8    2
    94    15    12    1
    95    80    75   am
    96   120   122   am
    97   120   121    2
    98   122   123    1
    99    11    12    1
   100    72    71    1
   101    12    13    1
   102    76    75    2
   103    75    74    1
   104    78    77    1
   105   124   123    1
   106   124   125    2
   107    77    74    1
   108    77    79    1
   109    71    70    1
   110    74    73    1
   111    13    14    2
   112    70    69    1
   113    73    66   am
   114    69    68    1
   115    66    67    2
   116    66    65    1
   117    68    65    1
   118    65    64    1
