@<TRIPOS>MOLECULE
tmp/3ue0B00.pdb
 158 151 0 0 0
SMALL
GASTEIGER

@<TRIPOS>ATOM
      1  N         90.9640   40.0940   19.6550 N.3   345  GLN345     -0.1245
      2  CA        91.9400   38.9920   19.6620 C.3   345  GLN345      0.1566
      3  C         91.2960   37.7230   19.0410 C.2   345  GLN345      0.2260
      4  O         90.1260   37.4300   19.3330 O.2   345  GLN345     -0.2867
      5  CB        92.4530   38.6970   21.0810 C.3   345  GLN345      0.0367
      6  CG        93.4110   39.7350   21.6370 C.3   345  GLN345      0.0905
      7  CD        93.7230   39.3680   23.0690 C.2   345  GLN345      0.2608
      8  OE1       92.9390   39.6250   24.0000 O.2   345  GLN345     -0.2717
      9  NE2       94.8190   38.6570   23.2660 N.am  345  GLN345     -0.0878
     10  N         92.2400   34.3940   19.5010 N.3   347  GLY347     -0.1210
     11  CA        92.3600   33.1680   20.2960 C.3   347  GLY347      0.1956
     12  C         92.7630   31.9420   19.4670 C.2   347  GLY347      0.2612
     13  O         93.5170   32.0740   18.4880 O.2   347  GLY347     -0.2717
     14  N         92.2050   30.7320   19.8050 N.am  348  SER348     -0.1952
     15  CA        92.5120   29.4340   19.1270 C.3   348  SER348      0.1924
     16  C         92.3370   29.4630   17.6020 C.2   348  SER348      0.2314
     17  O         92.9860   28.7140   16.8750 O.2   348  SER348     -0.2863
     18  CB        91.7030   28.2830   19.7220 C.3   348  SER348      0.2116
     19  OG        91.7780   28.2780   21.1400 O.3   348  SER348     -0.2180
     20  N         95.5620   29.2960   15.6660 N.3   351  LYS351     -0.1245
     21  CA        96.3200   28.0440   15.7070 C.3   351  LYS351      0.1561
     22  C         96.4920   27.3550   14.3560 C.2   351  LYS351      0.2260
     23  O         97.6440   27.0640   14.0310 O.2   351  LYS351     -0.2867
     24  CB        95.7920   27.0860   16.7790 C.3   351  LYS351      0.0271
     25  CG        95.9550   27.6250   18.1740 C.3   351  LYS351      0.0035
     26  CD        95.7860   26.5570   19.2050 C.3   351  LYS351      0.0206
     27  CE        95.8880   27.1740   20.5980 C.3   351  LYS351      0.1093
     28  NZ        97.1630   27.9410   20.8430 N.3   351  LYS351     -0.1314
     29  N         94.3200   25.4150   29.0220 N.3   384  SER384     -0.1217
     30  CA        92.9580   25.8000   29.4260 C.3   384  SER384      0.1889
     31  C         92.4030   25.0240   30.6360 C.2   384  SER384      0.2288
     32  O         91.8870   25.6340   31.5750 O.2   384  SER384     -0.2866
     33  CB        92.0030   25.6860   28.2360 C.3   384  SER384      0.2089
     34  OG        92.0750   24.4200   27.5950 O.3   384  SER384     -0.2183
     35  N         93.0640   20.2290   17.5560 N.3   399  TYR399     -0.1227
     36  CA        91.6590   20.0300   17.8790 C.3   399  TYR399      0.1736
     37  C         91.3620   20.4450   19.3070 C.2   399  TYR399      0.2595
     38  O         90.3850   21.1420   19.5230 O.2   399  TYR399     -0.2718
     39  CB        91.2350   18.5770   17.6160 C.3   399  TYR399      0.0548
     40  CG        89.8680   18.2250   18.1600 C.ar  399  TYR399     -0.0200
     41  CD1       88.7170   18.7970   17.6310 C.ar  399  TYR399     -0.0009
     42  CD2       89.7250   17.3220   19.2090 C.ar  399  TYR399     -0.0009
     43  CE1       87.4550   18.4700   18.1240 C.ar  399  TYR399      0.0417
     44  CE2       88.4720   17.0000   19.7200 C.ar  399  TYR399      0.0417
     45  CZ        87.3390   17.5680   19.1680 C.ar  399  TYR399      0.1957
     46  OH        86.1020   17.2300   19.6590 O.3   399  TYR399     -0.2866
     47  N         92.2140   20.0540   20.2630 N.am  400  LEU400     -0.1966
     48  CA        92.0420   20.3760   21.6800 C.3   400  LEU400      0.1728
     49  C         92.6730   21.7340   22.0890 C.2   400  LEU400      0.2616
     50  O         92.6640   22.0840   23.2760 O.2   400  LEU400     -0.2715
     51  CB        92.5650   19.2240   22.5710 C.3   400  LEU400      0.0311
     52  CG        92.0040   17.8150   22.3000 C.3   400  LEU400      0.0022
     53  CD1       92.8160   16.7820   23.0070 C.3   400  LEU400      0.0001
     54  CD2       90.5410   17.6890   22.7120 C.3   400  LEU400      0.0001
     55  N         93.2090   22.4920   21.0950 N.am  401  SER401     -0.1950
     56  CA        93.8460   23.8110   21.2390 C.3   401  SER401      0.1924
     57  C         94.8630   23.8820   22.4130 C.2   401  SER401      0.2314
     58  O         94.7430   24.7540   23.2800 O.2   401  SER401     -0.2863
     59  CB        92.7850   24.9130   21.3420 C.3   401  SER401      0.2116
     60  OG        91.8960   24.9400   20.2350 O.3   401  SER401     -0.2180
     61  N         97.8270   25.0100   24.3230 N.3   403  ASN403     -0.1240
     62  CA        98.6990   26.1830   24.3830 C.3   403  ASN403      0.1653
     63  C        100.2010   25.9080   24.5420 C.2   403  ASN403      0.2266
     64  O        101.0040   26.6830   24.0070 O.2   403  ASN403     -0.2867
     65  CB        98.2240   27.1730   25.4120 C.3   403  ASN403      0.1155
     66  CG        96.9340   27.8860   25.0560 C.2   403  ASN403      0.2627
     67  OD1       96.5200   27.9660   23.9050 O.2   403  ASN403     -0.2716
     68  ND2       96.2800   28.4560   26.0550 N.am  403  ASN403     -0.0877
     69  N         99.2740   32.1690   20.9430 N.3   440  LEU440     -0.1231
     70  CA        98.0520   32.1420   21.7220 C.3   440  LEU440      0.1693
     71  C         96.8730   32.8490   21.0980 C.2   440  LEU440      0.2593
     72  O         95.7500   32.5380   21.4510 O.2   440  LEU440     -0.2718
     73  CB        98.3190   32.6200   23.1680 C.3   440  LEU440      0.0284
     74  CG        99.5520   31.9870   23.8780 C.3   440  LEU440      0.0019
     75  CD1       99.6570   32.4590   25.3340 C.3   440  LEU440      0.0001
     76  CD2       99.5090   30.4360   23.8650 C.3   440  LEU440      0.0001
     77  N         97.1120   33.7300   20.1440 N.am  441  GLY441     -0.1942
     78  CA        96.0470   34.4930   19.5140 C.3   441  GLY441      0.2014
     79  C         95.8550   35.8080   20.2330 C.2   441  GLY441      0.2639
     80  O         94.7240   36.2260   20.4840 O.2   441  GLY441     -0.2714
     81  N         96.9880   36.4270   20.6350 N.am  442  THR442     -0.1950
     82  CA        97.0590   37.7250   21.3240 C.3   442  THR442      0.1897
     83  C         97.0650   38.8860   20.3590 C.2   442  THR442      0.2313
     84  O         96.4360   39.8820   20.7130 O.2   442  THR442     -0.2863
     85  CB        98.1910   37.7990   22.3380 C.3   442  THR442      0.1794
     86  OG1       99.4190   37.4410   21.6790 O.3   442  THR442     -0.2208
     87  CG2       97.9200   36.9330   23.5580 C.3   442  THR442      0.0378
     88  N         87.2840   26.0760   12.4600 N.3   532  LYS532     -0.1231
     89  CA        87.8880   26.1650   13.7710 C.3   532  LYS532      0.1693
     90  C         87.1450   27.1860   14.6540 C.2   532  LYS532      0.2593
     91  O         86.7720   28.2900   14.1900 O.2   532  LYS532     -0.2718
     92  CB        89.3930   26.5060   13.6500 C.3   532  LYS532      0.0285
     93  CG        90.1530   26.6640   14.9790 C.3   532  LYS532      0.0035
     94  CD        90.6350   25.2990   15.5240 C.3   532  LYS532      0.0206
     95  CE        91.2800   25.3560   16.8820 C.3   532  LYS532      0.1093
     96  NZ        90.2640   25.5100   17.9690 N.3   532  LYS532     -0.1314
     97  N         86.9300   26.7920   15.9210 N.am  533  THR533     -0.1939
     98  CA        86.3080   27.6290   16.9460 C.3   533  THR533      0.2028
     99  C         87.4280   28.3690   17.6440 C.2   533  THR533      0.2643
    100  O         88.5700   27.8940   17.6900 O.2   533  THR533     -0.2714
    101  CB        85.5480   26.8030   18.0020 C.3   533  THR533      0.1808
    102  OG1       86.4640   25.9280   18.6540 O.3   533  THR533     -0.2208
    103  CG2       84.3710   26.0200   17.4450 C.3   533  THR533      0.0379
    104  N         87.0780   29.5040   18.2040 N.am  534  GLY534     -0.1939
    105  CA        87.9680   30.3180   18.9810 C.3   534  GLY534      0.2014
    106  C         87.2330   30.9890   20.1060 C.2   534  GLY534      0.2640
    107  O         86.0990   31.3190   19.9690 O.2   534  GLY534     -0.2714
    108  N         87.8990   31.1370   21.2400 N.am  535  THR535     -0.1936
    109  CA        87.3560   31.7740   22.4260 C.3   535  THR535      0.2028
    110  C         88.4920   32.4360   23.1360 C.2   535  THR535      0.2643
    111  O         89.5160   31.8780   23.2290 O.2   535  THR535     -0.2714
    112  CB        86.7100   30.7620   23.3580 C.3   535  THR535      0.1808
    113  OG1       85.9290   29.8700   22.5990 O.3   535  THR535     -0.2208
    114  CG2       85.7620   31.3970   24.2690 C.3   535  THR535      0.0379
    115  N         88.3200   33.6470   23.6230 N.am  536  THR536     -0.1936
    116  CA        89.4010   34.3170   24.2950 C.3   536  THR536      0.2028
    117  C         89.2460   34.2890   25.7820 C.2   536  THR536      0.2642
    118  O         88.3000   33.7670   26.2830 O.2   536  THR536     -0.2714
    119  CB        89.5460   35.7520   23.8690 C.3   536  THR536      0.1808
    120  OG1       88.2890   36.3770   23.8930 O.3   536  THR536     -0.2208
    121  CG2       90.1010   35.8480   22.4940 C.3   536  THR536      0.0379
    122  N         90.2220   34.8430   26.4720 N.am  537  ASN537     -0.1957
    123  CA        90.2730   34.8790   27.9250 C.3   537  ASN537      0.1819
    124  C         88.9690   35.4040   28.4920 C.2   537  ASN537      0.2621
    125  O         88.4910   36.4610   28.0610 O.2   537  ASN537     -0.2715
    126  CB        91.4560   35.7560   28.3890 C.3   537  ASN537      0.1195
    127  CG        92.6120   34.9400   28.9060 C.2   537  ASN537      0.2630
    128  OD1       93.6190   34.7160   28.2120 O.2   537  ASN537     -0.2716
    129  ND2       92.4880   34.4620   30.1400 N.am  537  ASN537     -0.0877
    130  N         88.3690   34.6390   29.4060 N.am  538  ASP538     -0.1957
    131  CA        87.1080   34.9970   30.0750 C.3   538  ASP538      0.1840
    132  C         85.9320   35.1140   29.0840 C.2   538  ASP538      0.2621
    133  O         85.0130   35.8920   29.3000 O.2   538  ASP538     -0.2715
    134  CB        87.2960   36.2760   30.9340 C.3   538  ASP538      0.1450
    135  CG        86.5740   36.2700   32.2630 C.2   538  ASP538      0.3671
    136  OD1       85.8590   37.2540   32.5520 O.co2 538  ASP538     -0.2456
    137  OD2       86.7370   35.2890   33.0280 O.co2 538  ASP538     -0.2456
    138  N         85.9900   34.3350   27.9790 N.am  539  ALA539     -0.1977
    139  CA        85.0110   34.2980   26.8890 C.3   539  ALA539      0.1597
    140  C         84.6040   35.7270   26.4630 C.2   539  ALA539      0.2287
    141  O         83.4170   36.0440   26.3900 O.2   539  ALA539     -0.2864
    142  CB        83.7960   33.4690   27.2870 C.3   539  ALA539      0.0319
    143  N         81.4790   29.3960   24.7780 N.3   570  TYR570     -0.1227
    144  CA        82.6360   29.2030   23.9190 C.3   570  TYR570      0.1736
    145  C         82.3450   29.5020   22.4010 C.2   570  TYR570      0.2596
    146  O         81.1610   29.6100   22.0090 O.2   570  TYR570     -0.2718
    147  CB        83.4060   27.9120   24.3130 C.3   570  TYR570      0.0548
    148  CG        84.1240   28.1660   25.6350 C.ar  570  TYR570     -0.0200
    149  CD1       85.4780   27.8760   25.7880 C.ar  570  TYR570     -0.0009
    150  CD2       83.4890   28.8450   26.6790 C.ar  570  TYR570     -0.0009
    151  CE1       86.1760   28.2580   26.9390 C.ar  570  TYR570      0.0417
    152  CE2       84.1810   29.2470   27.8190 C.ar  570  TYR570      0.0417
    153  CZ        85.5220   28.9600   27.9420 C.ar  570  TYR570      0.1957
    154  OH        86.1600   29.3960   29.0690 O.3   570  TYR570     -0.2866
    155  N         83.3930   29.7750   21.6010 N.am  571  GLY571     -0.1957
    156  CA        83.2240   30.0640   20.1750 C.3   571  GLY571      0.1869
    157  C         82.2440   29.1100   19.5230 C.2   571  GLY571      0.2309
    158  O         81.3700   29.5210   18.7400 O.2   571  GLY571     -0.2863
@<TRIPOS>BOND
     1    88    89    1
     2    92    89    1
     3    92    93    1
     4    89    90    1
     5    23    22    2
     6    91    90    2
     7    22    21    1
     8    90    97   am
     9    93    94    1
    10    94    95    1
    11    20    21    1
    12    21    24    1
    13    97    98    1
    14    24    25    1
    15    17    16    2
    16    95    96    1
    17    98    99    1
    18    98   101    1
    19   103   101    1
    20    35    36    1
    21    16    15    1
    22    39    36    1
    23    39    40    1
    24    41    43   ar
    25    41    40   ar
    26    99   100    2
    27    99   104   am
    28    36    37    1
    29   101   102    1
    30    43    45   ar
    31    40    42   ar
    32    25    26    1
    33   104   105    1
    34    13    12    2
    35   158   157    2
    36   105   106    1
    37     3     4    2
    38     3     2    1
    39    15    18    1
    40    15    14    1
    41    45    46    1
    42    45    44   ar
    43    26    27    1
    44    42    44   ar
    45    37    38    2
    46    37    47   am
    47    12    14   am
    48    12    11    1
    49    10    11    1
    50    78    77    1
    51    78    79    1
    52   157   156    1
    53     1     2    1
    54     2     5    1
    55    18    19    1
    56   107   106    2
    57   106   108   am
    58    77    71   am
    59   156   155    1
    60    79    80    2
    61    79    81   am
    62    60    59    1
    63    47    48    1
    64    83    84    2
    65    83    82    1
    66    27    28    1
    67    81    82    1
    68    69    70    1
    69     5     6    1
    70    55    56    1
    71    55    49   am
    72    71    72    2
    73    71    70    1
    74    56    59    1
    75    56    57    1
    76   108   109    1
    77    82    85    1
    78   155   145   am
    79     6     7    1
    80    86    85    1
    81    48    49    1
    82    48    51    1
    83    70    73    1
    84   146   145    2
    85    49    50    2
    86    52    51    1
    87    52    54    1
    88    52    53    1
    89    85    87    1
    90   145   144    1
    91    57    58    2
    92   109   110    1
    93   109   112    1
    94   121   119    1
    95   113   112    1
    96     7     9   am
    97     7     8    2
    98   110   111    2
    99   110   115   am
   100    73    74    1
   101   112   114    1
   102   115   116    1
   103    76    74    1
   104   119   120    1
   105   119   116    1
   106    74    75    1
   107    67    66    2
   108   144   147    1
   109   144   143    1
   110    64    63    2
   111   116   117    1
   112   147   148    1
   113    61    62    1
   114    62    63    1
   115    62    65    1
   116    66    65    1
   117    66    68   am
   118   148   149   ar
   119   148   150   ar
   120   117   118    2
   121   117   122   am
   122   149   151   ar
   123   141   140    2
   124   140   139    1
   125   122   123    1
   126   150   152   ar
   127   139   142    1
   128   139   138    1
   129   151   153   ar
   130    34    33    1
   131   152   153   ar
   132   123   126    1
   133   123   124    1
   134   153   154    1
   135   138   132   am
   136   125   124    2
   137   128   127    2
   138    33    30    1
   139   126   127    1
   140   124   130   am
   141   127   129   am
   142    29    30    1
   143   132   133    2
   144   132   131    1
   145   130   131    1
   146    30    31    1
   147   131   134    1
   148    31    32    2
   149   134   135    1
   150   135   136   ar
   151   135   137   ar
