@<TRIPOS>MOLECULE
tmp/3ue1A00.pdb
 217 206 0 0 0
SMALL
GASTEIGER

@<TRIPOS>ATOM
      1  N        -36.4520  -12.3300   11.2540 N.3   345  GLN345     -0.1245
      2  CA       -37.4050  -11.2230   11.2680 C.3   345  GLN345      0.1566
      3  C        -36.9170  -10.1270   10.2940 C.2   345  GLN345      0.2260
      4  O        -35.7330   -9.7680   10.3350 O.2   345  GLN345     -0.2867
      5  CB       -37.6110  -10.6900   12.6850 C.3   345  GLN345      0.0367
      6  CG       -38.3240  -11.7180   13.5650 C.3   345  GLN345      0.0905
      7  CD       -38.6760  -11.2270   14.9420 C.2   345  GLN345      0.2608
      8  OE1      -38.4720  -10.0690   15.3080 O.2   345  GLN345     -0.2717
      9  NE2      -39.2400  -12.1070   15.7340 N.am  345  GLN345     -0.0878
     10  N        -37.6750   -6.9120   10.0780 N.3   347  GLY347     -0.1210
     11  CA       -37.6150   -5.5690   10.6580 C.3   347  GLY347      0.1956
     12  C        -38.3560   -4.5510    9.8180 C.2   347  GLY347      0.2612
     13  O        -39.4910   -4.7920    9.3770 O.2   347  GLY347     -0.2717
     14  N        -37.6790   -3.4390    9.5180 N.am  348  SER348     -0.1952
     15  CA       -38.2170   -2.3240    8.7050 C.3   348  SER348      0.1924
     16  C        -38.3820   -2.6320    7.2170 C.2   348  SER348      0.2314
     17  O        -39.0200   -1.8410    6.5020 O.2   348  SER348     -0.2863
     18  CB       -37.3900   -1.0620    8.8950 C.3   348  SER348      0.2116
     19  OG       -37.6100   -0.6050   10.2140 O.3   348  SER348     -0.2180
     20  N        -42.0750   -2.6890    6.1400 N.3   351  LYS351     -0.1245
     21  CA       -42.7710   -1.4190    6.0840 C.3   351  LYS351      0.1561
     22  C        -43.3200   -1.0780    4.7000 C.2   351  LYS351      0.2260
     23  O        -44.5330   -0.8700    4.6230 O.2   351  LYS351     -0.2867
     24  CB       -41.9870   -0.2870    6.7570 C.3   351  LYS351      0.0271
     25  CG       -41.8730   -0.4570    8.2770 C.3   351  LYS351      0.0035
     26  CD       -41.2660    0.7690    8.9530 C.3   351  LYS351      0.0206
     27  CE       -40.8750    0.5110   10.4030 C.3   351  LYS351      0.1093
     28  NZ       -42.0330    0.2340   11.3160 N.3   351  LYS351     -0.1314
     29  N        -41.8610    1.9510   20.4530 N.3   382  LYS382     -0.1231
     30  CA       -40.9800    3.1180   20.4680 C.3   382  LYS382      0.1693
     31  C        -40.1110    3.1780   19.1990 C.2   382  LYS382      0.2592
     32  O        -39.7930    2.1380   18.6330 O.2   382  LYS382     -0.2718
     33  CB       -40.1110    3.1190   21.7480 C.3   382  LYS382      0.0285
     34  CG       -40.9160    3.0810   23.0540 C.3   382  LYS382      0.0035
     35  CD       -40.4290    4.1090   24.0600 C.3   382  LYS382      0.0206
     36  CE       -41.3860    4.3020   25.2110 C.3   382  LYS382      0.1093
     37  NZ       -41.1990    5.6450   25.8400 N.3   382  LYS382     -0.1314
     38  N        -39.7370    4.3900   18.7470 N.am  383  ASN383     -0.1960
     39  CA       -38.8850    4.5700   17.5620 C.3   383  ASN383      0.1819
     40  C        -37.4150    4.3840   17.9110 C.2   383  ASN383      0.2622
     41  O        -37.0230    4.6080   19.0570 O.2   383  ASN383     -0.2715
     42  CB       -39.1040    5.9300   16.9110 C.3   383  ASN383      0.1195
     43  CG       -40.5400    6.3050   16.7910 C.2   383  ASN383      0.2630
     44  OD1      -41.3350    5.5820   16.1850 O.2   383  ASN383     -0.2716
     45  ND2      -40.9040    7.4180   17.4210 N.am  383  ASN383     -0.0877
     46  N        -36.6040    3.9980   16.9010 N.am  384  SER384     -0.1936
     47  CA       -35.1650    3.7030   16.9880 C.3   384  SER384      0.2055
     48  C        -34.3590    4.7370   17.7750 C.2   384  SER384      0.2643
     49  O        -33.5620    4.3630   18.6480 O.2   384  SER384     -0.2714
     50  CB       -34.5690    3.4610   15.6030 C.3   384  SER384      0.2130
     51  OG       -34.9840    4.4320   14.6550 O.3   384  SER384     -0.2179
     52  N        -34.6360    6.0350   17.5080 N.am  385  ASP385     -0.1971
     53  CA       -34.0100    7.1870   18.1650 C.3   385  ASP385      0.1709
     54  C        -34.6330    7.5580   19.5130 C.2   385  ASP385      0.2293
     55  O        -34.0650    8.3780   20.2230 O.2   385  ASP385     -0.2864
     56  CB       -33.9790    8.4090   17.2210 C.3   385  ASP385      0.1436
     57  CG       -35.2960    8.8050   16.5730 C.2   385  ASP385      0.3671
     58  OD1      -36.3300    8.8430   17.2910 O.co2 385  ASP385     -0.2456
     59  OD2      -35.2840    9.1440   15.3630 O.co2 385  ASP385     -0.2456
     60  N        -37.3380    9.2820   19.9290 N.3   387  ARG387     -0.1245
     61  CA       -37.9320   10.6180   19.7630 C.3   387  ARG387      0.1563
     62  C        -39.1960   10.5500   18.8720 C.2   387  ARG387      0.2260
     63  O        -39.3940    9.5490   18.1500 O.2   387  ARG387     -0.2867
     64  CB       -36.9010   11.5860   19.1300 C.3   387  ARG387      0.0307
     65  CG       -35.6690   11.8240   20.0010 C.3   387  ARG387      0.0489
     66  CD       -34.5360   12.4710   19.2300 C.3   387  ARG387      0.2205
     67  NE       -33.2820   12.4340   19.9860 N.pl3 387  ARG387     -0.0865
     68  CZ       -32.2300   11.6770   19.6760 C.cat 387  ARG387      0.5346
     69  NH1      -32.2540   10.9010   18.5980 N.pl3 387  ARG387      0.1354
     70  NH2      -31.1390   11.7060   20.4300 N.pl3 387  ARG387      0.1354
     71  N        -39.3510    6.3480    5.1430 N.3   399  TYR399     -0.1227
     72  CA       -37.9050    6.5160    5.0440 C.3   399  TYR399      0.1736
     73  C        -37.2350    6.4940    6.4200 C.2   399  TYR399      0.2595
     74  O        -36.2290    5.7960    6.6060 O.2   399  TYR399     -0.2718
     75  CB       -37.5740    7.7900    4.2460 C.3   399  TYR399      0.0548
     76  CG       -36.1810    8.3270    4.4790 C.ar  399  TYR399     -0.0200
     77  CD1      -35.0560    7.5650    4.1680 C.ar  399  TYR399     -0.0009
     78  CD2      -35.9830    9.6060    4.9880 C.ar  399  TYR399     -0.0009
     79  CE1      -33.7720    8.0350    4.4310 C.ar  399  TYR399      0.0417
     80  CE2      -34.7010   10.1010    5.2190 C.ar  399  TYR399      0.0417
     81  CZ       -33.5980    9.3130    4.9340 C.ar  399  TYR399      0.1957
     82  OH       -32.3330    9.8030    5.1490 O.3   399  TYR399     -0.2866
     83  N        -37.8310    7.2040    7.3920 N.am  400  LEU400     -0.1966
     84  CA       -37.3400    7.2560    8.7660 C.3   400  LEU400      0.1728
     85  C        -37.8190    6.0650    9.6530 C.2   400  LEU400      0.2616
     86  O        -37.5140    6.0520   10.8500 O.2   400  LEU400     -0.2715
     87  CB       -37.6870    8.6120    9.4080 C.3   400  LEU400      0.0311
     88  CG       -37.0440    9.8620    8.8170 C.3   400  LEU400      0.0022
     89  CD1      -37.5470   11.0790    9.5210 C.3   400  LEU400      0.0001
     90  CD2      -35.5060    9.8260    8.9060 C.3   400  LEU400      0.0001
     91  N        -38.5300    5.0550    9.0640 N.am  401  SER401     -0.1950
     92  CA       -39.0470    3.8480    9.7460 C.3   401  SER401      0.1924
     93  C        -39.6960    4.1910   11.1110 C.2   401  SER401      0.2314
     94  O        -39.3050    3.6550   12.1530 O.2   401  SER401     -0.2863
     95  CB       -37.9570    2.7830    9.9000 C.3   401  SER401      0.2116
     96  OG       -37.2850    2.4610    8.6950 O.3   401  SER401     -0.2180
     97  N        -41.9350    3.7270   13.7300 N.3   403  ASN403     -0.1240
     98  CA       -42.7210    2.6240   14.2810 C.3   403  ASN403      0.1653
     99  C        -44.1700    2.9780   14.6660 C.2   403  ASN403      0.2266
    100  O        -45.0950    2.2430   14.3050 O.2   403  ASN403     -0.2867
    101  CB       -41.9600    1.9030   15.3960 C.3   403  ASN403      0.1155
    102  CG       -40.7340    1.1580   14.9100 C.2   403  ASN403      0.2627
    103  OD1      -40.6830    0.6230   13.8040 O.2   403  ASN403     -0.2716
    104  ND2      -39.7170    1.0640   15.7380 N.am  403  ASN403     -0.0877
    105  N        -43.9630   -3.7490   12.6960 N.3   440  LEU440     -0.1231
    106  CA       -42.5430   -3.5570   12.9960 C.3   440  LEU440      0.1693
    107  C        -41.6330   -4.5970   12.3260 C.2   440  LEU440      0.2593
    108  O        -40.4210   -4.4100   12.2740 O.2   440  LEU440     -0.2718
    109  CB       -42.3270   -3.5340   14.5220 C.3   440  LEU440      0.0284
    110  CG       -42.3420   -2.1710   15.2050 C.3   440  LEU440      0.0019
    111  CD1      -43.7400   -1.6870   15.4450 C.3   440  LEU440      0.0001
    112  CD2      -41.6870   -2.2600   16.5370 C.3   440  LEU440      0.0001
    113  N        -42.2290   -5.6500   11.7910 N.am  441  GLY441     -0.1942
    114  CA       -41.4840   -6.6980   11.1170 C.3   441  GLY441      0.2014
    115  C        -41.1160   -7.8610   12.0080 C.2   441  GLY441      0.2639
    116  O        -39.9880   -8.3610   11.9440 O.2   441  GLY441     -0.2714
    117  N        -42.0850   -8.3110   12.8360 N.am  442  THR442     -0.1950
    118  CA       -41.9560   -9.4440   13.7480 C.3   442  THR442      0.1897
    119  C        -42.1890  -10.7980   13.0770 C.2   442  THR442      0.2313
    120  O        -41.6270  -11.7670   13.5890 O.2   442  THR442     -0.2863
    121  CB       -42.8080   -9.2570   14.9830 C.3   442  THR442      0.1794
    122  OG1      -44.1830   -9.1300   14.5950 O.3   442  THR442     -0.2208
    123  CG2      -42.3490   -8.0720   15.8150 C.3   442  THR442      0.0378
    124  N        -30.5190    7.4710    2.5800 N.3   522  THR522     -0.1218
    125  CA       -29.4000    6.5100    2.7790 C.3   522  THR522      0.1862
    126  C        -28.0090    6.9410    2.2750 C.2   522  THR522      0.2287
    127  O        -27.3910    6.2270    1.4690 O.2   522  THR522     -0.2866
    128  CB       -29.7470    5.0280    2.4450 C.3   522  THR522      0.1770
    129  OG1      -31.1460    4.8400    2.2240 O.3   522  THR522     -0.2211
    130  CG2      -29.2400    4.0690    3.5210 C.3   522  THR522      0.0375
    131  N        -34.9780   -0.4140    0.5810 N.3   537  LYS537     -0.1231
    132  CA       -35.2950   -0.1360    1.9730 C.3   537  LYS537      0.1693
    133  C        -34.3680   -0.9330    2.8800 C.2   537  LYS537      0.2593
    134  O        -34.2130   -2.1440    2.6930 O.2   537  LYS537     -0.2718
    135  CB       -36.7630   -0.5050    2.2540 C.3   537  LYS537      0.0285
    136  CG       -37.1990   -0.3640    3.7140 C.3   537  LYS537      0.0035
    137  CD       -37.4320    1.0730    4.1410 C.3   537  LYS537      0.0206
    138  CE       -37.3260    1.1970    5.6290 C.3   537  LYS537      0.1093
    139  NZ       -36.9150    2.5700    6.0050 N.3   537  LYS537     -0.1314
    140  N        -33.7660   -0.2640    3.8720 N.am  538  THR538     -0.1939
    141  CA       -32.8930   -0.9000    4.8660 C.3   538  THR538      0.2028
    142  C        -33.7730   -1.4030    6.0180 C.2   538  THR538      0.2643
    143  O        -34.8670   -0.8500    6.2370 O.2   538  THR538     -0.2714
    144  CB       -31.9170    0.1240    5.4710 C.3   538  THR538      0.1808
    145  OG1      -32.6390    1.3040    5.8110 O.3   538  THR538     -0.2208
    146  CG2      -30.7650    0.4590    4.5620 C.3   538  THR538      0.0379
    147  N        -33.2690   -2.3910    6.7710 N.am  539  GLY539     -0.1939
    148  CA       -33.9520   -2.9180    7.9440 C.3   539  GLY539      0.2014
    149  C        -32.9900   -3.3400    9.0350 C.2   539  GLY539      0.2640
    150  O        -31.8970   -3.8220    8.7350 O.2   539  GLY539     -0.2714
    151  N        -33.3920   -3.1680   10.3160 N.am  540  THR540     -0.1936
    152  CA       -32.6130   -3.5570   11.5090 C.3   540  THR540      0.2028
    153  C        -33.5400   -4.0460   12.6120 C.2   540  THR540      0.2643
    154  O        -34.3800   -3.2920   13.0670 O.2   540  THR540     -0.2714
    155  CB       -31.7200   -2.4090   12.0850 C.3   540  THR540      0.1808
    156  OG1      -31.1600   -1.6020   11.0520 O.3   540  THR540     -0.2208
    157  CG2      -30.5950   -2.9280   12.9870 C.3   540  THR540      0.0379
    158  N        -33.3580   -5.2750   13.0760 N.am  541  THR541     -0.1936
    159  CA       -34.1570   -5.8020   14.1790 C.3   541  THR541      0.2028
    160  C        -33.5700   -5.2890   15.5000 C.2   541  THR541      0.2642
    161  O        -32.4400   -4.7830   15.5390 O.2   541  THR541     -0.2714
    162  CB       -34.1380   -7.3380   14.2060 C.3   541  THR541      0.1808
    163  OG1      -32.7780   -7.7730   14.2470 O.3   541  THR541     -0.2208
    164  CG2      -34.9010   -7.9740   13.0490 C.3   541  THR541      0.0379
    165  N        -34.3410   -5.4620   16.5810 N.am  542  ASN542     -0.1957
    166  CA       -33.9810   -5.1060   17.9410 C.3   542  ASN542      0.1819
    167  C        -32.5990   -5.6040   18.2920 C.2   542  ASN542      0.2621
    168  O        -32.2880   -6.7720   18.0860 O.2   542  ASN542     -0.2715
    169  CB       -35.0040   -5.6810   18.9420 C.3   542  ASN542      0.1195
    170  CG       -34.6650   -5.3840   20.3930 C.2   542  ASN542      0.2630
    171  OD1      -34.5230   -4.2200   20.8040 O.2   542  ASN542     -0.2716
    172  ND2      -34.4920   -6.4360   21.1970 N.am  542  ASN542     -0.0877
    173  N        -31.7860   -4.7130   18.8460 N.am  543  ASP543     -0.1957
    174  CA       -30.4130   -4.9720   19.2810 C.3   543  ASP543      0.1840
    175  C        -29.5150   -5.3810   18.1450 C.2   543  ASP543      0.2621
    176  O        -28.6010   -6.1740   18.3680 O.2   543  ASP543     -0.2715
    177  CB       -30.3390   -5.9580   20.4730 C.3   543  ASP543      0.1450
    178  CG       -30.4950   -5.3210   21.8500 C.2   543  ASP543      0.3671
    179  OD1      -30.0530   -4.1420   22.0280 O.co2 543  ASP543     -0.2456
    180  OD2      -31.0110   -6.0100   22.7640 O.co2 543  ASP543     -0.2456
    181  N        -29.7520   -4.8070   16.9270 N.am  544  ALA544     -0.1977
    182  CA       -28.9910   -5.0850   15.7010 C.3   544  ALA544      0.1597
    183  C        -28.7060   -6.6060   15.5310 C.2   544  ALA544      0.2287
    184  O        -27.5750   -7.0270   15.2210 O.2   544  ALA544     -0.2864
    185  CB       -27.7000   -4.2690   15.6740 C.3   544  ALA544      0.0319
    186  N        -26.5200   -1.0250   11.7230 N.3   575  TYR575     -0.1241
    187  CA       -27.8250   -1.0450   11.0750 C.3   575  TYR575      0.1605
    188  C        -27.7360   -1.7800    9.7220 C.2   575  TYR575      0.2264
    189  O        -26.6370   -2.1530    9.2900 O.2   575  TYR575     -0.2867
    190  CB       -28.3530    0.3810   10.8680 C.3   575  TYR575      0.0534
    191  CG       -28.0910    1.3210   12.0210 C.ar  575  TYR575     -0.0201
    192  CD1      -29.0080    1.4550   13.0600 C.ar  575  TYR575     -0.0009
    193  CD2      -26.9530    2.1280   12.0450 C.ar  575  TYR575     -0.0009
    194  CE1      -28.7990    2.3670   14.0950 C.ar  575  TYR575      0.0417
    195  CE2      -26.7290    3.0330   13.0770 C.ar  575  TYR575      0.0417
    196  CZ       -27.6560    3.1530   14.1010 C.ar  575  TYR575      0.1957
    197  OH       -27.4350    4.0440   15.1280 O.3   575  TYR575     -0.2866
    198  N        -28.2830   -0.5120    6.7870 N.3   577  GLY577     -0.1210
    199  CA       -27.5080    0.4010    5.9470 C.3   577  GLY577      0.1956
    200  C        -25.9990    0.2910    6.1130 C.2   577  GLY577      0.2611
    201  O        -25.2420    0.7720    5.2650 O.2   577  GLY577     -0.2717
    202  N        -25.5560   -0.3970    7.1780 N.am  578  ILE578     -0.1979
    203  CA       -24.1590   -0.5690    7.5060 C.3   578  ILE578      0.1595
    204  C        -23.6290   -1.9170    7.0480 C.2   578  ILE578      0.2287
    205  O        -22.6200   -1.9710    6.3560 O.2   578  ILE578     -0.2864
    206  CB       -23.9520   -0.3100    9.0360 C.3   578  ILE578      0.0276
    207  CG1      -24.5480    1.0600    9.4710 C.3   578  ILE578      0.0022
    208  CG2      -22.4810   -0.4940    9.5050 C.3   578  ILE578      0.0022
    209  CD1      -23.9040    2.3690    8.8220 C.3   578  ILE578      0.0001
    210  N        -26.2390   -3.3210    3.1910 N.3   581  LEU581     -0.1245
    211  CA       -26.1770   -2.3900    2.0620 C.3   581  LEU581      0.1561
    212  C        -24.8700   -2.4600    1.2310 C.2   581  LEU581      0.2260
    213  O        -24.9690   -2.5760    0.0060 O.2   581  LEU581     -0.2867
    214  CB       -26.5600   -0.9680    2.4860 C.3   581  LEU581      0.0270
    215  CG       -26.6340    0.1180    1.3920 C.3   581  LEU581      0.0019
    216  CD1      -27.6240   -0.2360    0.2710 C.3   581  LEU581      0.0001
    217  CD2      -26.9720    1.4510    1.9900 C.3   581  LEU581      0.0001
@<TRIPOS>BOND
     1   213   212    2
     2   216   215    1
     3   131   132    1
     4   212   211    1
     5   215   217    1
     6   215   214    1
     7   127   126    2
     8   132   135    1
     9   132   133    1
    10   211   214    1
    11   211   210    1
    12   129   128    1
    13   135   136    1
    14   126   125    1
    15   128   125    1
    16   128   130    1
    17   124   125    1
    18   134   133    2
    19   133   140   am
    20   136   137    1
    21   140   141    1
    22   137   138    1
    23    77    79   ar
    24    77    76   ar
    25    75    76    1
    26    75    72    1
    27    79    81   ar
    28    76    78   ar
    29   146   144    1
    30    23    22    2
    31    22    21    1
    32   141   144    1
    33   141   142    1
    34    81    82    1
    35    81    80   ar
    36    78    80   ar
    37    72    71    1
    38    72    73    1
    39   201   200    2
    40   144   145    1
    41   138   139    1
    42   199   200    1
    43   199   198    1
    44   142   143    2
    45   142   147   am
    46    21    20    1
    47    21    24    1
    48   200   202   am
    49   205   204    2
    50    73    74    2
    51    73    83   am
    52    17    16    2
    53    24    25    1
    54   147   148    1
    55   204   203    1
    56   202   203    1
    57    16    15    1
    58    83    84    1
    59   203   206    1
    60   148   149    1
    61    25    26    1
    62    96    95    1
    63    15    18    1
    64    15    14    1
    65   150   149    2
    66    84    87    1
    67    84    85    1
    68    88    90    1
    69    88    87    1
    70    88    89    1
    71   209   207    1
    72    18    19    1
    73    26    27    1
    74   149   151   am
    75   206   207    1
    76   206   208    1
    77    91    85   am
    78    91    92    1
    79   189   188    2
    80    13    12    2
    81    14    12   am
    82    85    86    2
    83   188   187    1
    84    92    95    1
    85    92    93    1
    86    12    11    1
    87    10    11    1
    88     3     4    2
    89     3     2    1
    90   151   152    1
    91    27    28    1
    92   190   187    1
    93   190   191    1
    94   156   155    1
    95   187   186    1
    96    93    94    2
    97   114   113    1
    98   114   115    1
    99     1     2    1
   100     2     5    1
   101   152   155    1
   102   152   153    1
   103   113   107   am
   104   116   115    2
   105   115   117   am
   106   191   193   ar
   107   191   192   ar
   108   193   195   ar
   109   155   157    1
   110   108   107    2
   111   107   106    1
   112   153   154    2
   113   153   158   am
   114     5     6    1
   115   105   106    1
   116   117   118    1
   117   106   109    1
   118   164   162    1
   119   192   194   ar
   120   158   159    1
   121   119   120    2
   122   119   118    1
   123   195   196   ar
   124     6     7    1
   125    97    98    1
   126   118   121    1
   127   103   102    2
   128   194   196   ar
   129   196   197    1
   130   159   162    1
   131   159   160    1
   132   162   163    1
   133    98    99    1
   134    98   101    1
   135   100    99    2
   136   109   110    1
   137   122   121    1
   138    51    50    1
   139   102   101    1
   140   102   104   am
   141     7     8    2
   142     7     9   am
   143   121   123    1
   144   110   111    1
   145   110   112    1
   146   184   183    2
   147    59    57   ar
   148   160   161    2
   149   160   165   am
   150   183   182    1
   151    50    47    1
   152   185   182    1
   153   182   181    1
   154    44    43    2
   155    57    56    1
   156    57    58   ar
   157   165   166    1
   158    43    42    1
   159    43    45   am
   160    46    47    1
   161    46    40   am
   162    42    39    1
   163   181   175   am
   164    47    48    1
   165    56    53    1
   166    52    48   am
   167    52    53    1
   168    39    40    1
   169    39    38    1
   170    48    49    2
   171    40    41    2
   172   166   167    1
   173   166   169    1
   174   168   167    2
   175   175   176    2
   176   175   174    1
   177    63    62    2
   178    53    54    1
   179   167   173   am
   180    69    68    1
   181    32    31    2
   182    38    31   am
   183   173   174    1
   184    62    61    1
   185   169   170    1
   186    64    61    1
   187    64    65    1
   188    31    30    1
   189    66    67    1
   190    66    65    1
   191   174   177    1
   192    54    55    2
   193    68    67    2
   194    68    70    1
   195    61    60    1
   196   170   171    2
   197   170   172   am
   198    29    30    1
   199    30    33    1
   200   177   178    1
   201    33    34    1
   202   178   179   ar
   203   178   180   ar
   204    34    35    1
   205    35    36    1
   206    36    37    1
