@<TRIPOS>MOLECULE
tmp/3ue4B00.pdb
 187 178 0 0 0
SMALL
GASTEIGER

@<TRIPOS>ATOM
      1  N        -24.6780   47.8970  -33.4940 N.3    16  LEU16      -0.1231
      2  CA       -24.8270   46.9430  -32.3940 C.3    16  LEU16       0.1693
      3  C        -24.8150   47.6230  -31.0280 C.2    16  LEU16       0.2592
      4  O        -25.3830   47.1010  -30.0680 O.2    16  LEU16      -0.2718
      5  CB       -23.7410   45.8670  -32.4610 C.3    16  LEU16       0.0284
      6  CG       -23.8590   44.9540  -33.6800 C.3    16  LEU16       0.0019
      7  CD1      -22.6830   44.0140  -33.7630 C.3    16  LEU16       0.0001
      8  CD2      -25.1660   44.1760  -33.6370 C.3    16  LEU16       0.0001
      9  N        -24.1680   48.7840  -30.9500 N.am   17  GLY17      -0.1957
     10  CA       -24.1230   49.5680  -29.7280 C.3    17  GLY17       0.1869
     11  C        -22.9480   50.5290  -29.6920 C.2    17  GLY17       0.2309
     12  O        -22.4490   50.9470  -30.7370 O.2    17  GLY17      -0.2863
     13  N        -20.0630   50.4640  -32.3300 N.3    22  VAL22      -0.1245
     14  CA       -19.7730   49.1390  -32.8440 C.3    22  VAL22       0.1561
     15  C        -20.8890   48.6560  -33.7520 C.2    22  VAL22       0.2260
     16  O        -22.0420   48.5290  -33.3250 O.2    22  VAL22      -0.2867
     17  CB       -19.6090   48.1180  -31.7130 C.3    22  VAL22       0.0252
     18  CG1      -19.1470   46.7820  -32.2900 C.3    22  VAL22       0.0019
     19  CG2      -18.6320   48.6370  -30.6620 C.3    22  VAL22       0.0019
     20  N        -17.0390   42.4470  -36.4920 N.3    35  ALA35      -0.1231
     21  CA       -17.4360   43.5600  -35.6370 C.3    35  ALA35       0.1694
     22  C        -16.5450   44.7380  -35.9790 C.2    35  ALA35       0.2592
     23  O        -15.3350   44.5640  -36.1830 O.2    35  ALA35      -0.2718
     24  CB       -17.3130   43.1940  -34.1450 C.3    35  ALA35       0.0304
     25  N        -17.1350   45.9300  -36.0550 N.am   36  VAL36      -0.1966
     26  CA       -16.3690   47.1130  -36.4320 C.3    36  VAL36       0.1727
     27  C        -16.5600   48.2560  -35.4270 C.2    36  VAL36       0.2616
     28  O        -17.6780   48.7340  -35.2380 O.2    36  VAL36      -0.2715
     29  CB       -16.7460   47.6050  -37.8580 C.3    36  VAL36       0.0290
     30  CG1      -15.6960   48.5650  -38.3750 C.3    36  VAL36       0.0023
     31  CG2      -16.9010   46.4310  -38.8190 C.3    36  VAL36       0.0023
     32  N        -15.4800   48.6880  -34.7750 N.am   37  LYS37      -0.1977
     33  CA       -15.5580   49.8500  -33.8920 C.3    37  LYS37       0.1596
     34  C        -15.0180   51.0920  -34.5910 C.2    37  LYS37       0.2287
     35  O        -13.9120   51.0820  -35.1400 O.2    37  LYS37      -0.2864
     36  CB       -14.7990   49.6190  -32.5860 C.3    37  LYS37       0.0298
     37  CG       -14.8800   50.7960  -31.6180 C.3    37  LYS37       0.0038
     38  CD       -14.2180   50.4730  -30.2910 C.3    37  LYS37       0.0206
     39  CE       -14.5660   51.5020  -29.2180 C.3    37  LYS37       0.1093
     40  NZ       -13.6620   52.6910  -29.2160 N.3    37  LYS37      -0.1314
     41  N         -5.3160   50.8280  -27.6890 N.3    52  GLU52      -0.1245
     42  CA        -6.3150   49.7620  -27.7440 C.3    52  GLU52       0.1567
     43  C         -5.9740   48.7760  -28.8710 C.2    52  GLU52       0.2260
     44  O         -5.8390   47.5660  -28.6460 O.2    52  GLU52      -0.2867
     45  CB        -7.6820   50.4020  -28.0210 C.3    52  GLU52       0.0388
     46  CG        -8.8990   49.7670  -27.3650 C.3    52  GLU52       0.1160
     47  CD       -10.1330   50.6600  -27.4810 C.2    52  GLU52       0.3649
     48  OE1      -10.0090   51.8740  -27.2150 O.co2  52  GLU52      -0.2457
     49  OE2      -11.2200   50.1650  -27.8470 O.co2  52  GLU52      -0.2457
     50  N         -4.1970   44.8500  -28.9280 N.3    56  MET56      -0.1245
     51  CA        -4.9030   43.8060  -29.6590 C.3    56  MET56       0.1570
     52  C         -4.0270   43.0550  -30.6670 C.2    56  MET56       0.2261
     53  O         -4.1930   41.8470  -30.8390 O.2    56  MET56      -0.2867
     54  CB        -6.1530   44.3720  -30.3300 C.3    56  MET56       0.0387
     55  CG        -7.4600   44.0260  -29.6070 C.3    56  MET56       0.0595
     56  SD        -8.7330   45.2780  -29.8530 S.3    56  MET56      -0.1393
     57  CE       -10.2010   44.2560  -29.8320 C.3    56  MET56       0.0692
     58  N        -10.6360   37.7550  -27.7920 N.3    65  VAL65      -0.1245
     59  CA       -11.1390   38.2350  -29.0720 C.3    65  VAL65       0.1561
     60  C         -9.9840   38.5020  -30.0380 C.2    65  VAL65       0.2260
     61  O         -8.9700   39.0940  -29.6630 O.2    65  VAL65      -0.2867
     62  CB       -12.0480   39.4720  -28.9220 C.3    65  VAL65       0.0252
     63  CG1      -12.2540   40.1610  -30.2770 C.3    65  VAL65       0.0019
     64  CG2      -13.3860   39.0610  -28.3430 C.3    65  VAL65       0.0019
     65  N        -11.5720   49.6530  -36.0090 N.3    79  ILE79      -0.1245
     66  CA       -10.9850   48.4530  -35.4210 C.3    79  ILE79       0.1561
     67  C        -11.8960   47.3100  -35.8380 C.2    79  ILE79       0.2260
     68  O        -13.1020   47.3460  -35.5820 O.2    79  ILE79      -0.2867
     69  CB       -10.9370   48.5210  -33.8840 C.3    79  ILE79       0.0252
     70  CG1       -9.9510   49.5970  -33.4220 C.3    79  ILE79       0.0019
     71  CG2      -10.5600   47.1610  -33.2910 C.3    79  ILE79       0.0019
     72  CD1       -9.8520   49.7330  -31.9130 C.3    79  ILE79       0.0001
     73  N        -12.7050   43.2480  -35.6740 N.3    81  THR81      -0.1203
     74  CA       -12.4380   41.9860  -34.9900 C.3    81  THR81       0.1994
     75  C        -13.3800   40.9260  -35.5170 C.2    81  THR81       0.2618
     76  O        -14.3180   41.2310  -36.2550 O.2    81  THR81      -0.2717
     77  CB       -12.6680   42.0970  -33.4690 C.3    81  THR81       0.1784
     78  OG1      -14.0690   42.2930  -33.2090 O.3    81  THR81      -0.2211
     79  CG2      -11.8490   43.2420  -32.8720 C.3    81  THR81       0.0376
     80  N        -13.1330   39.6830  -35.1240 N.am   82  GLU82      -0.1965
     81  CA       -14.1110   38.6270  -35.3300 C.3    82  GLU82       0.1733
     82  C        -15.4720   39.0380  -34.7540 C.2    82  GLU82       0.2616
     83  O        -15.5710   39.8490  -33.8110 O.2    82  GLU82      -0.2715
     84  CB       -13.6360   37.3310  -34.6740 C.3    82  GLU82       0.0429
     85  CG       -13.2770   37.4680  -33.1890 C.3    82  GLU82       0.1163
     86  CD       -12.8130   36.1470  -32.5790 C.2    82  GLU82       0.3649
     87  OE1      -12.0540   36.1790  -31.5780 O.co2  82  GLU82      -0.2457
     88  OE2      -13.2130   35.0780  -33.0990 O.co2  82  GLU82      -0.2457
     89  N        -16.5200   38.4720  -35.3310 N.am   83  PHE83      -0.1960
     90  CA       -17.8740   38.7000  -34.8670 C.3    83  PHE83       0.1771
     91  C        -18.2020   37.5930  -33.8700 C.2    83  PHE83       0.2619
     92  O        -18.0720   36.4020  -34.1750 O.2    83  PHE83      -0.2715
     93  CB       -18.8270   38.6610  -36.0610 C.3    83  PHE83       0.0574
     94  CG       -20.2320   39.1110  -35.7560 C.ar   83  PHE83      -0.0200
     95  CD1      -20.5160   40.4560  -35.5340 C.ar   83  PHE83      -0.0042
     96  CD2      -21.2800   38.1950  -35.7380 C.ar   83  PHE83      -0.0042
     97  CE1      -21.8180   40.8830  -35.2720 C.ar   83  PHE83      -0.0003
     98  CE2      -22.5920   38.6100  -35.4780 C.ar   83  PHE83      -0.0003
     99  CZ       -22.8570   39.9580  -35.2440 C.ar   83  PHE83      -0.0000
    100  N        -18.5990   37.9840  -32.6650 N.am   84  MET84      -0.1963
    101  CA       -18.9970   37.0090  -31.6550 C.3    84  MET84       0.1736
    102  C        -20.5130   36.9080  -31.6630 C.2    84  MET84       0.2617
    103  O        -21.2100   37.6990  -31.0260 O.2    84  MET84      -0.2715
    104  CB       -18.4530   37.4000  -30.2760 C.3    84  MET84       0.0427
    105  CG       -16.9340   37.5460  -30.2590 C.3    84  MET84       0.0599
    106  SD       -16.1410   36.0000  -30.7510 S.3    84  MET84      -0.1393
    107  CE       -16.7450   34.9010  -29.4470 C.3    84  MET84       0.0692
    108  N        -21.0130   35.9180  -32.3900 N.am   85  THR85      -0.1937
    109  CA       -22.4100   35.9120  -32.8210 C.3    85  THR85       0.2028
    110  C        -23.4690   36.1740  -31.7420 C.2    85  THR85       0.2642
    111  O        -24.4550   36.8580  -32.0050 O.2    85  THR85      -0.2714
    112  CB       -22.7600   34.6600  -33.6970 C.3    85  THR85       0.1808
    113  OG1      -24.0920   34.2140  -33.4130 O.3    85  THR85      -0.2208
    114  CG2      -21.7840   33.5310  -33.4440 C.3    85  THR85       0.0379
    115  N        -23.2720   35.6610  -30.5340 N.am   86  TYR86      -0.1959
    116  CA       -24.3250   35.7760  -29.5370 C.3    86  TYR86       0.1771
    117  C        -24.1770   36.9710  -28.6000 C.2    86  TYR86       0.2620
    118  O        -24.9320   37.0990  -27.6430 O.2    86  TYR86      -0.2715
    119  CB       -24.4680   34.4750  -28.7500 C.3    86  TYR86       0.0574
    120  CG       -24.9820   33.3390  -29.6000 C.ar   86  TYR86      -0.0198
    121  CD1      -24.1240   32.3450  -30.0600 C.ar   86  TYR86      -0.0009
    122  CD2      -26.3250   33.2740  -29.9720 C.ar   86  TYR86      -0.0009
    123  CE1      -24.5860   31.3180  -30.8490 C.ar   86  TYR86       0.0417
    124  CE2      -26.7970   32.2440  -30.7670 C.ar   86  TYR86       0.0417
    125  CZ       -25.9230   31.2710  -31.2020 C.ar   86  TYR86       0.1957
    126  OH       -26.3810   30.2380  -31.9900 O.3    86  TYR86      -0.2866
    127  N        -23.2160   37.8450  -28.8750 N.am   87  GLY87      -0.1940
    128  CA       -22.9630   38.9840  -27.9990 C.3    87  GLY87       0.2014
    129  C        -22.4690   38.6630  -26.5880 C.2    87  GLY87       0.2638
    130  O        -21.9430   37.5730  -26.3260 O.2    87  GLY87      -0.2714
    131  N        -22.6610   39.6200  -25.6790 N.am   88  ASN88      -0.1972
    132  CA       -22.0690   39.5850  -24.3380 C.3    88  ASN88       0.1688
    133  C        -22.5880   38.4550  -23.4510 C.2    88  ASN88       0.2292
    134  O        -23.7770   38.1090  -23.4950 O.2    88  ASN88      -0.2864
    135  CB       -22.2390   40.9310  -23.6130 C.3    88  ASN88       0.1181
    136  CG       -23.6280   41.0940  -22.9820 C.2    88  ASN88       0.2629
    137  OD1      -23.9150   40.5380  -21.9200 O.2    88  ASN88      -0.2716
    138  ND2      -24.4920   41.8580  -23.6410 N.am   88  ASN88      -0.0877
    139  N        -30.7740   34.9890  -20.7940 N.3    95  GLU95      -0.1245
    140  CA       -31.8190   34.6410  -21.7620 C.3    95  GLU95       0.1567
    141  C        -31.7360   33.2320  -22.3280 C.2    95  GLU95       0.2260
    142  O        -32.5900   32.8310  -23.1170 O.2    95  GLU95      -0.2867
    143  CB       -31.8220   35.6450  -22.9100 C.3    95  GLU95       0.0388
    144  CG       -32.0910   37.0620  -22.4560 C.3    95  GLU95       0.1160
    145  CD       -31.7240   38.0820  -23.5100 C.2    95  GLU95       0.3649
    146  OE1      -31.1600   37.6760  -24.5500 O.co2  95  GLU95      -0.2457
    147  OE2      -31.9990   39.2860  -23.3020 O.co2  95  GLU95      -0.2457
    148  N        -18.2900   41.7590  -20.2240 N.3   134  ASN134     -0.1240
    149  CA       -17.1290   41.9240  -21.0850 C.3   134  ASN134      0.1653
    150  C        -16.5890   40.6030  -21.6500 C.2   134  ASN134      0.2266
    151  O        -15.4570   40.5150  -22.1130 O.2   134  ASN134     -0.2867
    152  CB       -16.0400   42.7060  -20.3480 C.3   134  ASN134      0.1155
    153  CG       -16.3570   44.1780  -20.2670 C.2   134  ASN134      0.2627
    154  OD1      -16.4240   44.8500  -21.2950 O.2   134  ASN134     -0.2716
    155  ND2      -16.5440   44.6970  -19.0510 N.am  134  ASN134     -0.0877
    156  N        -17.5800   37.5710  -24.4930 N.3   136  LEU136     -0.1245
    157  CA       -18.4210   37.4200  -25.6640 C.3   136  LEU136      0.1561
    158  C        -18.6070   35.9470  -25.9980 C.2   136  LEU136      0.2260
    159  O        -17.7260   35.1170  -25.7260 O.2   136  LEU136     -0.2867
    160  CB       -17.8580   38.2300  -26.8330 C.3   136  LEU136      0.0270
    161  CG       -17.9220   39.7370  -26.5720 C.3   136  LEU136      0.0019
    162  CD1      -17.1680   40.5150  -27.6230 C.3   136  LEU136      0.0001
    163  CD2      -19.3740   40.1990  -26.5000 C.3   136  LEU136      0.0001
    164  N        -13.1330   39.9670  -24.0350 N.3   146  ALA146     -0.1231
    165  CA       -12.8460   41.1720  -24.8040 C.3   146  ALA146      0.1694
    166  C        -11.5140   41.7320  -24.3090 C.2   146  ALA146      0.2592
    167  O        -11.2190   41.6670  -23.1100 O.2   146  ALA146     -0.2718
    168  CB       -13.9470   42.1850  -24.6290 C.3   146  ALA146      0.0304
    169  N        -10.7210   42.2830  -25.2260 N.am  147  ASP147     -0.1960
    170  CA        -9.3290   42.5920  -24.9370 C.3   147  ASP147      0.1840
    171  C         -8.8480   43.9160  -25.5150 C.2   147  ASP147      0.2622
    172  O         -7.6550   44.0970  -25.7280 O.2   147  ASP147     -0.2715
    173  CB        -8.4240   41.4630  -25.4290 C.3   147  ASP147      0.1450
    174  CG        -8.5680   41.2000  -26.9240 C.2   147  ASP147      0.3671
    175  OD1       -8.2020   40.0980  -27.3690 O.co2 147  ASP147     -0.2456
    176  OD2       -9.0340   42.0890  -27.6610 O.co2 147  ASP147     -0.2456
    177  N         -9.7730   44.8370  -25.7530 N.am  148  PHE148     -0.1974
    178  CA        -9.4150   46.1790  -26.2100 C.3   148  PHE148      0.1639
    179  C         -8.7970   47.0230  -25.0780 C.2   148  PHE148      0.2290
    180  O         -7.8760   47.8130  -25.3130 O.2   148  PHE148     -0.2864
    181  CB       -10.6470   46.8970  -26.7810 C.3   148  PHE148      0.0560
    182  CG       -11.7120   47.1670  -25.7560 C.ar  148  PHE148     -0.0200
    183  CD1      -11.8050   48.4100  -25.1420 C.ar  148  PHE148     -0.0042
    184  CD2      -12.6030   46.1700  -25.3820 C.ar  148  PHE148     -0.0042
    185  CE1      -12.7830   48.6620  -24.1740 C.ar  148  PHE148     -0.0003
    186  CE2      -13.5870   46.4140  -24.4210 C.ar  148  PHE148     -0.0003
    187  CZ       -13.6750   47.6660  -23.8170 C.ar  148  PHE148     -0.0000
@<TRIPOS>BOND
     1    31    29    1
     2    30    29    1
     3    29    26    1
     4    20    21    1
     5    26    25    1
     6    26    27    1
     7    76    75    2
     8    23    22    2
     9    93    94    1
    10    93    90    1
    11    25    22   am
    12    65    66    1
    13    22    21    1
    14    67    68    2
    15    67    66    1
    16    94    96   ar
    17    94    95   ar
    18    96    98   ar
    19    73    74    1
    20    21    24    1
    21    95    97   ar
    22    75    80   am
    23    75    74    1
    24    98    99   ar
    25    27    28    2
    26    27    32   am
    27    66    69    1
    28    89    90    1
    29    89    82   am
    30    81    80    1
    31    81    82    1
    32    81    84    1
    33    97    99   ar
    34    35    34    2
    35    74    77    1
    36    90    91    1
    37    32    33    1
    38    82    83    2
    39    84    85    1
    40    34    33    1
    41    92    91    2
    42    33    36    1
    43    69    70    1
    44    69    71    1
    45    91   100   am
    46     7     6    1
    47    15    16    2
    48    15    14    1
    49   112   114    1
    50   112   113    1
    51   112   109    1
    52     6     8    1
    53     6     5    1
    54     1     2    1
    55    77    78    1
    56    77    79    1
    57    70    72    1
    58    85    86    1
    59    88    86   ar
    60    14    13    1
    61    14    17    1
    62   109   108    1
    63   109   110    1
    64   100   101    1
    65    36    37    1
    66    86    87   ar
    67     5     2    1
    68     2     3    1
    69   108   102   am
    70    18    17    1
    71   111   110    2
    72   126   125    1
    73   110   115   am
    74    17    19    1
    75   102   101    1
    76   102   103    2
    77   101   104    1
    78    37    38    1
    79   125   123   ar
    80   125   124   ar
    81     3     9   am
    82     3     4    2
    83     9    10    1
    84   123   121   ar
    85    53    52    2
    86   124   122   ar
    87   106   105    1
    88   106   107    1
    89    12    11    2
    90    52    51    1
    91   115   116    1
    92    54    51    1
    93    54    55    1
    94    38    39    1
    95    63    62    1
    96   104   105    1
    97   121   120   ar
    98    60    61    2
    99    60    59    1
   100   122   120   ar
   101    56    57    1
   102    56    55    1
   103    10    11    1
   104    51    50    1
   105   120   119    1
   106   116   119    1
   107   116   117    1
   108    39    40    1
   109    59    62    1
   110    59    58    1
   111    62    64    1
   112   127   117   am
   113   127   128    1
   114    43    44    2
   115    43    42    1
   116   117   118    2
   117    45    42    1
   118    45    46    1
   119   128   129    1
   120    49    47   ar
   121    42    41    1
   122   176   174   ar
   123   162   161    1
   124    47    46    1
   125    47    48   ar
   126   175   174   ar
   127   174   173    1
   128   160   161    1
   129   160   157    1
   130   181   178    1
   131   181   182    1
   132   129   130    2
   133   129   131   am
   134   161   163    1
   135   178   177    1
   136   178   179    1
   137   158   159    2
   138   158   157    1
   139   182   184   ar
   140   182   183   ar
   141   177   171   am
   142   172   171    2
   143   131   132    1
   144   157   156    1
   145   171   170    1
   146   173   170    1
   147   184   186   ar
   148   180   179    2
   149   169   170    1
   150   169   166   am
   151   183   185   ar
   152   165   168    1
   153   165   166    1
   154   165   164    1
   155   146   145   ar
   156   186   187   ar
   157   132   135    1
   158   132   133    1
   159   166   167    2
   160   185   187   ar
   161   138   136   am
   162   135   136    1
   163   145   147   ar
   164   145   144    1
   165   134   133    2
   166   142   141    2
   167   136   137    2
   168   143   144    1
   169   143   140    1
   170   141   140    1
   171   151   150    2
   172   140   139    1
   173   150   149    1
   174   154   153    2
   175   149   152    1
   176   149   148    1
   177   152   153    1
   178   153   155   am
