@<TRIPOS>MOLECULE
tmp/3ue6E00.pdb
 172 159 0 0 0
SMALL
GASTEIGER

@<TRIPOS>ATOM
      1  N         23.6090  -27.5820  -15.6840 N.3    22  VAL22      -0.1245
      2  CA        25.0590  -27.4440  -15.6110 C.3    22  VAL22       0.1561
      3  C         25.4940  -27.2380  -14.1620 C.2    22  VAL22       0.2260
      4  O         24.6850  -26.8860  -13.3010 O.2    22  VAL22      -0.2867
      5  CB        25.5750  -26.2600  -16.4540 C.3    22  VAL22       0.0252
      6  CG1       25.1080  -26.3850  -17.9100 C.3    22  VAL22       0.0019
      7  CG2       25.1190  -24.9400  -15.8500 C.3    22  VAL22       0.0019
      8  N         28.5880  -25.0170  -12.2200 N.3    24  THR24      -0.1218
      9  CA        29.7100  -24.0980  -12.3510 C.3    24  THR24       0.1862
     10  C         30.5370  -24.1110  -11.0760 C.2    24  THR24       0.2287
     11  O         30.0310  -24.4450  -10.0040 O.2    24  THR24      -0.2866
     12  CB        29.2490  -22.6590  -12.6530 C.3    24  THR24       0.1770
     13  OG1       28.4890  -22.1530  -11.5490 O.3    24  THR24      -0.2211
     14  CG2       28.4040  -22.6210  -13.9220 C.3    24  THR24       0.0375
     15  N         33.4060  -18.0790  -12.9150 N.3    31  ASN31      -0.1240
     16  CA        32.3370  -19.0540  -12.6930 C.3    31  ASN31       0.1653
     17  C         32.1160  -19.9890  -13.8860 C.2    31  ASN31       0.2266
     18  O         31.0450  -19.9860  -14.4960 O.2    31  ASN31      -0.2867
     19  CB        31.0380  -18.3140  -12.3620 C.3    31  ASN31       0.1155
     20  CG        30.0580  -19.1620  -11.5750 C.2    31  ASN31       0.2627
     21  OD1       28.8940  -18.7940  -11.4210 O.2    31  ASN31      -0.2716
     22  ND2       30.5260  -20.2930  -11.0630 N.am   31  ASN31      -0.0877
     23  N         32.1020  -19.5440  -19.1090 N.3    55  ASN55      -0.1225
     24  CA        30.9220  -18.9880  -18.4550 C.3    55  ASN55       0.1785
     25  C         29.6900  -19.1920  -19.3410 C.2    55  ASN55       0.2597
     26  O         29.8040  -19.2550  -20.5620 O.2    55  ASN55      -0.2718
     27  CB        31.1350  -17.5010  -18.1680 C.3    55  ASN55       0.1169
     28  CG        29.9560  -16.8650  -17.4560 C.2    55  ASN55       0.2627
     29  OD1       29.0140  -16.3940  -18.0910 O.2    55  ASN55      -0.2716
     30  ND2       30.0090  -16.8400  -16.1270 N.am   55  ASN55      -0.0877
     31  N         28.5160  -19.2980  -18.7290 N.am   56  CYS56      -0.1956
     32  CA        27.2930  -19.6570  -19.4520 C.3    56  CYS56       0.1843
     33  C         26.7550  -18.5690  -20.3770 C.2    56  CYS56       0.2625
     34  O         25.7700  -18.7860  -21.0890 O.2    56  CYS56      -0.2714
     35  CB        26.1940  -20.0690  -18.4650 C.3    56  CYS56       0.0997
     36  SG        26.5090  -21.6170  -17.6080 S.3    56  CYS56      -0.0797
     37  N         27.3930  -17.4050  -20.3690 N.am   57  ARG57      -0.1977
     38  CA        26.8730  -16.2660  -21.1130 C.3    57  ARG57       0.1597
     39  C         26.9330  -16.4930  -22.6200 C.2    57  ARG57       0.2287
     40  O         26.3710  -15.7180  -23.3940 O.2    57  ARG57      -0.2864
     41  CB        27.6330  -14.9980  -20.7500 C.3    57  ARG57       0.0334
     42  CG        29.0830  -15.0270  -21.1820 C.3    57  ARG57       0.0492
     43  CD        29.7310  -13.6740  -20.9760 C.3    57  ARG57       0.2205
     44  NE        29.7540  -13.2920  -19.5680 N.pl3  57  ARG57      -0.0865
     45  CZ        30.7150  -13.6450  -18.7190 C.cat  57  ARG57       0.5346
     46  NH1       31.7300  -14.3910  -19.1360 N.pl3  57  ARG57       0.1354
     47  NH2       30.6630  -13.2560  -17.4530 N.pl3  57  ARG57       0.1354
     48  N         25.3630  -18.4910  -24.2630 N.3    59  LEU59      -0.1231
     49  CA        24.0490  -18.8670  -24.7690 C.3    59  LEU59       0.1693
     50  C         23.2580  -17.6350  -25.1690 C.2    59  LEU59       0.2591
     51  O         22.1460  -17.7390  -25.6760 O.2    59  LEU59      -0.2718
     52  CB        23.2660  -19.6540  -23.7240 C.3    59  LEU59       0.0284
     53  CG        23.8490  -20.9890  -23.2820 C.3    59  LEU59       0.0019
     54  CD1       23.0280  -21.5630  -22.1390 C.3    59  LEU59       0.0001
     55  CD2       23.9050  -21.9580  -24.4470 C.3    59  LEU59       0.0001
     56  N         23.8260  -16.4640  -24.9180 N.am   60  GLN60      -0.1979
     57  CA        23.1530  -15.2190  -25.2500 C.3    60  GLN60       0.1601
     58  C         23.6290  -14.6950  -26.6040 C.2    60  GLN60       0.2287
     59  O         24.6950  -15.0740  -27.0940 O.2    60  GLN60      -0.2864
     60  CB        23.4040  -14.1810  -24.1560 C.3    60  GLN60       0.0394
     61  CG        23.0140  -14.6560  -22.7660 C.3    60  GLN60       0.0908
     62  CD        23.7210  -13.8930  -21.6590 C.2    60  GLN60       0.2608
     63  OE1       24.3120  -12.8360  -21.8910 O.2    60  GLN60      -0.2717
     64  NE2       23.6700  -14.4330  -20.4470 N.am   60  GLN60      -0.0878
     65  N         19.2620  -10.1740  -18.4720 N.3    69  VAL69      -0.1245
     66  CA        20.6250  -10.5590  -18.1170 C.3    69  VAL69       0.1561
     67  C         21.0350   -9.8250  -16.8450 C.2    69  VAL69       0.2260
     68  O         21.8200  -10.3370  -16.0430 O.2    69  VAL69      -0.2867
     69  CB        21.6290  -10.2400  -19.2390 C.3    69  VAL69       0.0252
     70  CG1       23.0510  -10.5160  -18.7780 C.3    69  VAL69       0.0019
     71  CG2       21.3030  -11.0510  -20.4750 C.3    69  VAL69       0.0019
     72  N         19.7100  -11.7330  -13.7870 N.3    72  ILE72      -0.1231
     73  CA        20.5670  -12.8710  -13.4820 C.3    72  ILE72       0.1692
     74  C         21.8590  -12.4540  -12.7860 C.2    72  ILE72       0.2591
     75  O         22.2940  -13.0970  -11.8340 O.2    72  ILE72      -0.2718
     76  CB        20.9200  -13.6740  -14.7440 C.3    72  ILE72       0.0266
     77  CG1       19.6490  -14.2360  -15.3820 C.3    72  ILE72       0.0019
     78  CG2       21.8890  -14.7890  -14.4020 C.3    72  ILE72       0.0020
     79  CD1       19.8850  -15.0000  -16.6690 C.3    72  ILE72       0.0001
     80  N         22.4770  -11.3840  -13.2690 N.am   73  ARG73      -0.1980
     81  CA        23.7300  -10.9210  -12.6920 C.3    73  ARG73       0.1597
     82  C         23.5100  -10.4540  -11.2570 C.2    73  ARG73       0.2287
     83  O         24.1720  -10.9200  -10.3360 O.2    73  ARG73      -0.2864
     84  CB        24.3260   -9.7990  -13.5410 C.3    73  ARG73       0.0334
     85  CG        25.7290   -9.4060  -13.1320 C.3    73  ARG73       0.0492
     86  CD        26.4020   -8.5970  -14.2170 C.3    73  ARG73       0.2205
     87  NE        25.6200   -7.4200  -14.5900 N.pl3  73  ARG73      -0.0865
     88  CZ        25.0250   -7.2460  -15.7670 C.cat  73  ARG73       0.5346
     89  NH1       25.1220   -8.1660  -16.7170 N.pl3  73  ARG73       0.1354
     90  NH2       24.3380   -6.1360  -15.9950 N.pl3  73  ARG73       0.1354
     91  N         22.9650  -13.3010   -8.8690 N.3    76  ILE76      -0.1245
     92  CA        24.2070  -14.0010   -8.5580 C.3    76  ILE76       0.1561
     93  C         25.1120  -13.2320   -7.5870 C.2    76  ILE76       0.2260
     94  O         25.6710  -13.8210   -6.6620 O.2    76  ILE76      -0.2867
     95  CB        24.9940  -14.3510   -9.8330 C.3    76  ILE76       0.0252
     96  CG1       24.3170  -15.5090  -10.5620 C.3    76  ILE76       0.0019
     97  CG2       26.4210  -14.7180   -9.4970 C.3    76  ILE76       0.0019
     98  CD1       25.0020  -15.9090  -11.8520 C.3    76  ILE76       0.0001
     99  N         14.2570  -16.1210  -20.9320 N.3    86  LEU86      -0.1245
    100  CA        15.3310  -15.4340  -21.6330 C.3    86  LEU86       0.1561
    101  C         15.5280  -15.9910  -23.0400 C.2    86  LEU86       0.2260
    102  O         15.4770  -17.2020  -23.2390 O.2    86  LEU86      -0.2867
    103  CB        16.6210  -15.6340  -20.8420 C.3    86  LEU86       0.0270
    104  CG        17.5520  -14.4450  -20.7140 C.3    86  LEU86       0.0019
    105  CD1       18.9750  -14.9300  -20.5190 C.3    86  LEU86       0.0001
    106  CD2       17.4420  -13.6030  -21.9560 C.3    86  LEU86       0.0001
    107  N         17.7610  -17.3340  -25.7070 N.3    88  ASN88      -0.1240
    108  CA        19.0930  -17.9150  -25.8540 C.3    88  ASN88       0.1653
    109  C         19.3720  -18.4390  -27.2620 C.2    88  ASN88       0.2266
    110  O         18.4630  -18.6060  -28.0730 O.2    88  ASN88      -0.2867
    111  CB        19.3100  -19.0480  -24.8490 C.3    88  ASN88       0.1155
    112  CG        19.7040  -18.5490  -23.4780 C.2    88  ASN88       0.2627
    113  OD1       19.8940  -19.3400  -22.5550 O.2    88  ASN88      -0.2716
    114  ND2       19.8260  -17.2320  -23.3340 N.am   88  ASN88      -0.0877
    115  N         14.3030  -19.4180  -22.9980 N.3    98  ASN98      -0.1240
    116  CA        14.7930  -20.2210  -21.8870 C.3    98  ASN98       0.1653
    117  C         14.2670  -19.7370  -20.5370 C.2    98  ASN98       0.2266
    118  O         14.6660  -18.6780  -20.0670 O.2    98  ASN98      -0.2867
    119  CB        16.3290  -20.2130  -21.8940 C.3    98  ASN98       0.1155
    120  CG        16.9270  -21.0990  -20.8200 C.2    98  ASN98       0.2627
    121  OD1       16.2270  -21.8970  -20.2040 O.2    98  ASN98      -0.2716
    122  ND2       18.2310  -20.9650  -20.5950 N.am   98  ASN98      -0.0877
    123  N         14.9740  -20.0950  -17.1540 N.3   100  PHE100     -0.1241
    124  CA        16.2180  -20.5830  -16.6160 C.3   100  PHE100      0.1605
    125  C         16.3090  -20.3450  -15.0980 C.2   100  PHE100      0.2264
    126  O         16.0100  -19.2550  -14.6100 O.2   100  PHE100     -0.2867
    127  CB        17.3520  -19.9250  -17.3960 C.3   100  PHE100      0.0534
    128  CG        18.5570  -19.6480  -16.5880 C.ar  100  PHE100     -0.0203
    129  CD1       19.3710  -20.6800  -16.1720 C.ar  100  PHE100     -0.0042
    130  CD2       18.8910  -18.3510  -16.2560 C.ar  100  PHE100     -0.0042
    131  CE1       20.4920  -20.4260  -15.4260 C.ar  100  PHE100     -0.0003
    132  CE2       20.0110  -18.0900  -15.5120 C.ar  100  PHE100     -0.0003
    133  CZ        20.8150  -19.1300  -15.0940 C.ar  100  PHE100     -0.0000
    134  N         18.6200  -20.6800  -11.4040 N.3   102  VAL102     -0.1245
    135  CA        19.9690  -20.7620  -10.8470 C.3   102  VAL102      0.1561
    136  C         19.9770  -20.8080   -9.3080 C.2   102  VAL102      0.2260
    137  O         19.2200  -20.0930   -8.6410 O.2   102  VAL102     -0.2867
    138  CB        20.8740  -19.6250  -11.3820 C.3   102  VAL102      0.0252
    139  CG1       20.3290  -18.2540  -10.9850 C.3   102  VAL102      0.0019
    140  CG2       22.3050  -19.8060  -10.9000 C.3   102  VAL102      0.0019
    141  N         27.4180  -23.3510   -8.3450 N.3   115  TYR115     -0.1227
    142  CA        26.0810  -22.9950   -8.7880 C.3   115  TYR115      0.1736
    143  C         25.5110  -24.1360   -9.6120 C.2   115  TYR115      0.2595
    144  O         26.2460  -24.8490  -10.2990 O.2   115  TYR115     -0.2718
    145  CB        26.1000  -21.7180   -9.6250 C.3   115  TYR115      0.0548
    146  CG        26.2650  -20.4390   -8.8310 C.ar  115  TYR115     -0.0200
    147  CD1       25.1610  -19.7650   -8.3270 C.ar  115  TYR115     -0.0009
    148  CD2       27.5200  -19.8940   -8.6090 C.ar  115  TYR115     -0.0009
    149  CE1       25.3020  -18.5880   -7.6080 C.ar  115  TYR115      0.0417
    150  CE2       27.6770  -18.7210   -7.8910 C.ar  115  TYR115      0.0417
    151  CZ        26.5640  -18.0700   -7.3910 C.ar  115  TYR115      0.1957
    152  OH        26.7110  -16.9000   -6.6780 O.3   115  TYR115     -0.2866
    153  N         24.1990  -24.3110   -9.5350 N.am  116  VAL116     -0.1966
    154  CA        23.5110  -25.2450  -10.4130 C.3   116  VAL116      0.1727
    155  C         22.5210  -24.4760  -11.2840 C.2   116  VAL116      0.2616
    156  O         21.6830  -23.7300  -10.7770 O.2   116  VAL116     -0.2715
    157  CB        22.8110  -26.3680   -9.6290 C.3   116  VAL116      0.0290
    158  CG1       21.9120  -25.7880   -8.5410 C.3   116  VAL116      0.0023
    159  CG2       22.0210  -27.2680  -10.5650 C.3   116  VAL116      0.0023
    160  N         22.6410  -24.6420  -12.5980 N.am  117  GLY117     -0.1955
    161  CA        21.7390  -23.9970  -13.5350 C.3   117  GLY117      0.1869
    162  C         20.8110  -25.0040  -14.1890 C.2   117  GLY117      0.2309
    163  O         21.2200  -26.1120  -14.5380 O.2   117  GLY117     -0.2863
    164  N         18.0770  -25.2270  -17.3310 N.3   119  GLN119     -0.1245
    165  CA        17.4920  -24.6170  -18.5180 C.3   119  GLN119      0.1566
    166  C         16.2720  -25.4120  -18.9670 C.2   119  GLN119      0.2260
    167  O         16.1840  -26.6170  -18.7340 O.2   119  GLN119     -0.2867
    168  CB        18.5180  -24.5470  -19.6550 C.3   119  GLN119      0.0367
    169  CG        19.7790  -23.7650  -19.3240 C.3   119  GLN119      0.0905
    170  CD        20.7080  -24.5220  -18.3990 C.2   119  GLN119      0.2608
    171  OE1       20.6250  -25.7470  -18.2790 O.2   119  GLN119     -0.2717
    172  NE2       21.5990  -23.7970  -17.7350 N.am  119  GLN119     -0.0878
@<TRIPOS>BOND
     1   110   109    2
     2   109   108    1
     3    59    58    2
     4    58    57    1
     5   108   107    1
     6   108   111    1
     7    51    50    2
     8    57    56    1
     9    57    60    1
    10    50    56   am
    11    50    49    1
    12   111   112    1
    13    49    48    1
    14    49    52    1
    15    55    53    1
    16    60    61    1
    17    52    53    1
    18   112   114   am
    19   112   113    2
    20    40    39    2
    21    53    54    1
    22   102   101    2
    23   101   100    1
    24   115   116    1
    25    61    62    1
    26    39    38    1
    27   106   104    1
    28   119   116    1
    29   119   120    1
    30    63    62    2
    31   116   117    1
    32    62    64   am
    33   100    99    1
    34   100   103    1
    35    42    43    1
    36    42    41    1
    37    38    41    1
    38    38    37    1
    39    34    33    2
    40    43    44    1
    41   103   104    1
    42   120   122   am
    43   120   121    2
    44   104   105    1
    45    26    25    2
    46   117   118    2
    47    71    69    1
    48    33    37   am
    49    33    32    1
    50   168   169    1
    51   168   165    1
    52    44    45    2
    53    32    31    1
    54    32    35    1
    55    25    31   am
    56    25    24    1
    57   169   170    1
    58    69    70    1
    59    69    66    1
    60    46    45    1
    61    23    24    1
    62   166   167    2
    63   166   165    1
    64    45    47    1
    65   165   164    1
    66    65    66    1
    67    35    36    1
    68    24    27    1
    69   170   171    2
    70   170   172   am
    71    27    28    1
    72    66    67    1
    73    29    28    2
    74     6     5    1
    75    28    30   am
    76   127   124    1
    77   127   128    1
    78   123   124    1
    79    67    68    2
    80    89    88    1
    81    79    77    1
    82   124   125    1
    83   128   130   ar
    84   128   129   ar
    85     5     7    1
    86     5     2    1
    87   130   132   ar
    88   129   131   ar
    89    90    88    1
    90    88    87    2
    91     1     2    1
    92     2     3    1
    93   132   133   ar
    94   131   133   ar
    95    77    76    1
    96   125   126    2
    97    76    78    1
    98    76    73    1
    99    87    86    1
   100   163   162    2
   101    18    17    2
   102    86    85    1
   103   162   161    1
   104     3     4    2
   105    14    12    1
   106    17    16    1
   107    72    73    1
   108    84    85    1
   109    84    81    1
   110   161   160    1
   111    73    74    1
   112    80    74   am
   113    80    81    1
   114    15    16    1
   115    74    75    2
   116    16    19    1
   117    81    82    1
   118    12     9    1
   119    12    13    1
   120   160   155   am
   121    19    20    1
   122     9     8    1
   123     9    10    1
   124    98    96    1
   125    20    21    2
   126    20    22   am
   127   134   135    1
   128   138   139    1
   129   138   140    1
   130   138   135    1
   131   155   156    2
   132   155   154    1
   133    82    83    2
   134    10    11    2
   135   135   136    1
   136   159   157    1
   137    96    95    1
   138   154   157    1
   139   154   153    1
   140   144   143    2
   141    95    97    1
   142    95    92    1
   143   157   158    1
   144   145   146    1
   145   145   142    1
   146   143   153   am
   147   143   142    1
   148   136   137    2
   149    91    92    1
   150   146   148   ar
   151   146   147   ar
   152   142   141    1
   153   148   150   ar
   154    92    93    1
   155   147   149   ar
   156   150   151   ar
   157   149   151   ar
   158    93    94    2
   159   151   152    1
