@<TRIPOS>MOLECULE
tmp/3uecA00.pdb
 122 117 0 0 0
SMALL
GASTEIGER

@<TRIPOS>ATOM
      1  N        -13.6440  -26.0390  -19.8340 N.3    44  THR44      -0.1218
      2  CA       -13.6100  -27.3630  -20.4870 C.3    44  THR44       0.1862
      3  C        -12.1610  -27.6590  -20.9300 C.2    44  THR44       0.2287
      4  O        -11.2810  -26.7880  -20.8550 O.2    44  THR44      -0.2866
      5  CB       -14.5990  -27.4300  -21.7010 C.3    44  THR44       0.1770
      6  OG1      -14.1600  -26.5430  -22.7350 O.3    44  THR44      -0.2211
      7  CG2      -16.0280  -27.0490  -21.2940 C.3    44  THR44       0.0375
      8  N        -12.0940  -25.4650  -23.9340 N.3    47  GLU47      -0.1245
      9  CA       -12.1150  -24.0360  -23.6250 C.3    47  GLU47       0.1567
     10  C        -11.8830  -23.8040  -22.1060 C.2    47  GLU47       0.2260
     11  O        -12.8450  -23.7150  -21.3290 O.2    47  GLU47      -0.2867
     12  CB       -13.4620  -23.4300  -24.0850 C.3    47  GLU47       0.0388
     13  CG       -14.0190  -23.9480  -25.4640 C.3    47  GLU47       0.1160
     14  CD       -15.2930  -24.8170  -25.3520 C.2    47  GLU47       0.3649
     15  OE1      -15.3240  -25.7700  -24.5470 O.co2  47  GLU47      -0.2457
     16  OE2      -16.2730  -24.5530  -26.0850 O.co2  47  GLU47      -0.2457
     17  N        -13.3190  -20.6080  -20.4980 N.3    50  LEU50      -0.1245
     18  CA       -14.7310  -20.3470  -20.7630 C.3    50  LEU50       0.1561
     19  C        -15.4300  -19.8010  -19.5170 C.2    50  LEU50       0.2260
     20  O        -15.3840  -20.4130  -18.4330 O.2    50  LEU50      -0.2867
     21  CB       -15.4660  -21.5790  -21.2290 C.3    50  LEU50       0.0270
     22  CG       -16.9280  -21.3960  -21.6670 C.3    50  LEU50       0.0019
     23  CD1      -17.0940  -20.3950  -22.8260 C.3    50  LEU50       0.0001
     24  CD2      -17.5040  -22.8070  -22.0450 C.3    50  LEU50       0.0001
     25  N        -24.8000  -15.6430  -21.2580 N.3    58  LYS58      -0.1231
     26  CA       -23.8170  -15.4470  -22.2900 C.3    58  LYS58       0.1693
     27  C        -22.4870  -16.1110  -21.9330 C.2    58  LYS58       0.2592
     28  O        -21.9740  -15.9440  -20.8170 O.2    58  LYS58      -0.2718
     29  CB       -23.5840  -13.9480  -22.5610 C.3    58  LYS58       0.0285
     30  CG       -22.8060  -13.6590  -23.9210 C.3    58  LYS58       0.0035
     31  CD       -23.7320  -13.8490  -25.1060 C.3    58  LYS58       0.0206
     32  CE       -23.0450  -13.6660  -26.5040 C.3    58  LYS58       0.1093
     33  NZ       -24.1660  -13.5960  -27.5040 N.3    58  LYS58      -0.1314
     34  N        -21.9170  -16.8210  -22.9180 N.am   59  GLU59      -0.1966
     35  CA       -20.6970  -17.6020  -22.7690 C.3    59  GLU59       0.1733
     36  C        -19.5640  -16.9690  -23.5900 C.2    59  GLU59       0.2616
     37  O        -19.6720  -16.7950  -24.8070 O.2    59  GLU59      -0.2715
     38  CB       -20.9740  -19.0360  -23.2260 C.3    59  GLU59       0.0429
     39  CG       -21.6050  -19.9770  -22.1760 C.3    59  GLU59       0.1163
     40  CD       -22.0760  -21.3230  -22.7890 C.2    59  GLU59       0.3649
     41  OE1      -22.9510  -21.2800  -23.6730 O.co2  59  GLU59      -0.2457
     42  OE2      -21.6230  -22.4110  -22.3440 O.co2  59  GLU59      -0.2457
     43  N        -18.4750  -16.6120  -22.9110 N.am   60  LEU60      -0.1963
     44  CA       -17.3710  -15.9560  -23.5640 C.3    60  LEU60       0.1728
     45  C        -16.0760  -16.6150  -23.2510 C.2    60  LEU60       0.2616
     46  O        -15.8300  -17.0810  -22.1390 O.2    60  LEU60      -0.2715
     47  CB       -17.2540  -14.5290  -23.1160 C.3    60  LEU60       0.0311
     48  CG       -18.4730  -13.6550  -23.3470 C.3    60  LEU60       0.0022
     49  CD1      -18.1010  -12.2680  -22.7860 C.3    60  LEU60       0.0001
     50  CD2      -18.8000  -13.6260  -24.8620 C.3    60  LEU60       0.0001
     51  N        -15.2310  -16.6130  -24.2610 N.am   61  GLU61      -0.1963
     52  CA       -13.9450  -17.2580  -24.2030 C.3    61  GLU61       0.1733
     53  C        -12.9630  -16.4130  -24.9700 C.2    61  GLU61       0.2617
     54  O        -13.3190  -15.3810  -25.5620 O.2    61  GLU61      -0.2715
     55  CB       -14.0340  -18.6590  -24.8440 C.3    61  GLU61       0.0429
     56  CG       -14.4810  -18.6470  -26.3170 C.3    61  GLU61       0.1163
     57  CD       -14.5760  -20.0420  -26.9510 C.2    61  GLU61       0.3649
     58  OE1      -15.0760  -20.9750  -26.2800 O.co2  61  GLU61      -0.2457
     59  OE2      -14.1660  -20.2000  -28.1310 O.co2  61  GLU61      -0.2457
     60  N        -11.7260  -16.8830  -24.9720 N.am   62  GLY62      -0.1940
     61  CA       -10.6360  -16.2070  -25.6670 C.3    62  GLY62       0.2014
     62  C        -10.2600  -14.9190  -24.9760 C.2    62  GLY62       0.2639
     63  O        -10.0380  -13.9030  -25.6310 O.2    62  GLY62      -0.2714
     64  N        -10.1900  -14.9640  -23.6490 N.am   63  TRP63      -0.1959
     65  CA        -9.8900  -13.7680  -22.8690 C.3    63  TRP63       0.1771
     66  C         -8.4080  -13.4050  -23.0510 C.2    63  TRP63       0.2619
     67  O         -7.5430  -14.2800  -23.1620 O.2    63  TRP63      -0.2715
     68  CB       -10.2540  -13.9880  -21.3860 C.3    63  TRP63       0.0590
     69  CG       -11.7310  -14.1590  -21.1540 C.ar   63  TRP63       0.0006
     70  CD1      -12.4870  -15.3190  -21.3020 C.ar   63  TRP63       0.0946
     71  CD2      -12.6460  -13.1400  -20.7820 C.ar   63  TRP63       0.0152
     72  NE1      -13.7960  -15.0570  -21.0240 N.ar   63  TRP63      -0.2442
     73  CE2      -13.9200  -13.7260  -20.7060 C.ar   63  TRP63       0.0810
     74  CE3      -12.5100  -11.7820  -20.4760 C.ar   63  TRP63       0.0012
     75  CZ2      -15.0550  -12.9860  -20.3120 C.ar   63  TRP63       0.0191
     76  CZ3      -13.6140  -11.0660  -20.1200 C.ar   63  TRP63       0.0001
     77  CH2      -14.8740  -11.6600  -20.0430 C.ar   63  TRP63       0.0015
     78  N         -8.1490  -12.1070  -23.1450 N.am   64  GLU64      -0.1977
     79  CA        -6.8040  -11.5570  -23.0940 C.3    64  GLU64       0.1602
     80  C         -6.6580  -10.7800  -21.7630 C.2    64  GLU64       0.2287
     81  O         -7.6770  -10.3450  -21.2050 O.2    64  GLU64      -0.2864
     82  CB        -6.6080  -10.5960  -24.2630 C.3    64  GLU64       0.0415
     83  CG        -7.3740  -11.0190  -25.5230 C.3    64  GLU64       0.1163
     84  CD        -6.5830  -10.8520  -26.7850 C.2    64  GLU64       0.3649
     85  OE1       -6.0960   -9.7390  -27.0510 O.co2  64  GLU64      -0.2457
     86  OE2       -6.4620  -11.8470  -27.5220 O.co2  64  GLU64      -0.2457
     87  N         -8.5270   -7.4160  -21.2330 N.3    67  ASP67      -0.1239
     88  CA        -9.9700   -7.4170  -21.3450 C.3    67  ASP67       0.1674
     89  C        -10.6170   -6.9810  -20.0270 C.2    67  ASP67       0.2266
     90  O        -10.4030   -7.5850  -18.9860 O.2    67  ASP67      -0.2867
     91  CB       -10.4820   -8.8040  -21.7160 C.3    67  ASP67       0.1410
     92  CG       -10.3510   -9.1220  -23.2100 C.2    67  ASP67       0.3668
     93  OD1       -9.9640   -8.2390  -23.9980 O.co2  67  ASP67      -0.2456
     94  OD2      -10.6370  -10.2860  -23.5890 O.co2  67  ASP67      -0.2456
     95  N        -16.5060   -6.1830  -21.8090 N.3    72  GLU72      -0.1245
     96  CA       -16.8290   -7.3810  -22.6020 C.3    72  GLU72       0.1567
     97  C        -18.2760   -7.8210  -22.4310 C.2    72  GLU72       0.2260
     98  O        -18.9300   -8.1830  -23.3990 O.2    72  GLU72      -0.2867
     99  CB       -15.8950   -8.5530  -22.2810 C.3    72  GLU72       0.0388
    100  CG       -14.4360   -8.2640  -22.5700 C.3    72  GLU72       0.1160
    101  CD       -14.2270   -7.8560  -24.0350 C.2    72  GLU72       0.3649
    102  OE1      -13.8750   -6.6850  -24.2620 O.co2  72  GLU72      -0.2457
    103  OE2      -14.4780   -8.6940  -24.9300 O.co2  72  GLU72      -0.2457
    104  N        -20.9650   -7.8580  -25.6410 N.3    76  HIS76      -0.1241
    105  CA       -21.5280   -9.1340  -26.0660 C.3    76  HIS76       0.1621
    106  C        -22.9210   -9.3800  -25.5830 C.2    76  HIS76       0.2264
    107  O        -23.6550  -10.1370  -26.1870 O.2    76  HIS76      -0.2867
    108  CB       -20.5940  -10.2710  -25.6490 C.3    76  HIS76       0.0745
    109  CG       -19.2610  -10.1930  -26.3190 C.ar   76  HIS76       0.0817
    110  ND1      -19.0530  -10.6030  -27.6310 N.ar   76  HIS76      -0.2268
    111  CD2      -18.0870   -9.6710  -25.9000 C.ar   76  HIS76       0.1154
    112  CE1      -17.7950  -10.3690  -27.9630 C.ar   76  HIS76       0.1986
    113  NE2      -17.1850   -9.8200  -26.9250 N.ar   76  HIS76      -0.2212
    114  N        -30.1700  -23.8000  -32.4480 N.3   118  LYS118     -0.1245
    115  CA       -28.8490  -23.9500  -33.0750 C.3   118  LYS118      0.1561
    116  C        -28.6230  -25.3960  -33.4620 C.2   118  LYS118      0.2260
    117  O        -28.0930  -25.6950  -34.5350 O.2   118  LYS118     -0.2867
    118  CB       -27.6870  -23.5290  -32.1430 C.3   118  LYS118      0.0271
    119  CG       -27.3880  -22.0440  -32.0490 C.3   118  LYS118      0.0035
    120  CD       -26.2240  -21.7170  -30.9970 C.3   118  LYS118      0.0206
    121  CE       -25.8770  -20.2100  -30.8620 C.3   118  LYS118      0.1093
    122  NZ       -25.3000  -19.7920  -29.4880 N.3   118  LYS118     -0.1314
@<TRIPOS>BOND
     1   117   116    2
     2   116   115    1
     3   115   114    1
     4   115   118    1
     5   118   119    1
     6   119   120    1
     7   120   121    1
     8   121   122    1
     9    59    57   ar
    10   112   110   ar
    11   112   113   ar
    12   110   109   ar
    13    86    84   ar
    14    33    32    1
    15    85    84   ar
    16    57    56    1
    17    57    58   ar
    18   113   111   ar
    19    84    83    1
    20    32    31    1
    21   109   111   ar
    22   109   108    1
    23    56    55    1
    24   107   106    2
    25    16    14   ar
    26   105   108    1
    27   105   104    1
    28   105   106    1
    29    61    62    1
    30    61    60    1
    31    63    62    2
    32    54    53    2
    33    83    82    1
    34    13    14    1
    35    13    12    1
    36    14    15   ar
    37    31    30    1
    38    62    64   am
    39    60    53   am
    40    53    52    1
    41   103   101   ar
    42    50    48    1
    43    55    52    1
    44    37    36    2
    45    82    79    1
    46   102   101   ar
    47    51    52    1
    48    51    45   am
    49    12     9    1
    50   101   100    1
    51    93    92   ar
    52     8     9    1
    53    30    29    1
    54    41    40   ar
    55    64    65    1
    56     9    10    1
    57    36    43   am
    58    36    35    1
    59    94    92   ar
    60    44    45    1
    61    44    47    1
    62    44    43    1
    63    98    97    2
    64    48    47    1
    65    48    49    1
    66    45    46    2
    67    38    35    1
    68    38    39    1
    69    92    91    1
    70    67    66    2
    71    78    79    1
    72    78    66   am
    73    79    80    1
    74    66    65    1
    75    34    35    1
    76    34    27   am
    77    65    68    1
    78    23    22    1
    79    40    42   ar
    80    40    39    1
    81     6     5    1
    82    96    97    1
    83    96    99    1
    84    96    95    1
    85   100    99    1
    86    29    26    1
    87    26    27    1
    88    26    25    1
    89    10    11    2
    90    24    22    1
    91    27    28    2
    92    80    81    2
    93    91    88    1
    94     5     7    1
    95     5     2    1
    96    22    21    1
    97    68    69    1
    98    88    87    1
    99    88    89    1
   100    70    69   ar
   101    70    72   ar
   102    21    18    1
   103    69    71   ar
   104    72    73   ar
   105     3     4    2
   106     3     2    1
   107    71    73   ar
   108    71    74   ar
   109    18    17    1
   110    18    19    1
   111    73    75   ar
   112     2     1    1
   113    74    76   ar
   114    75    77   ar
   115    76    77   ar
   116    89    90    2
   117    19    20    2
