@<TRIPOS>MOLECULE
tmp/3uecA02.pdb
 126 121 0 0 0
SMALL
GASTEIGER

@<TRIPOS>ATOM
      1  N        -26.0970  -15.3010   -7.2800 N.3     9  PHE9       -0.1241
      2  CA       -26.2260  -13.8580   -7.0590 C.3     9  PHE9        0.1605
      3  C        -25.1730  -13.3050   -6.0940 C.2     9  PHE9        0.2264
      4  O        -24.9430  -12.1100   -6.0840 O.2     9  PHE9       -0.2867
      5  CB       -27.6000  -13.5060   -6.5520 C.3     9  PHE9        0.0534
      6  CG       -28.6750  -13.5090   -7.6020 C.ar    9  PHE9       -0.0203
      7  CD1      -28.9470  -12.3520   -8.3490 C.ar    9  PHE9       -0.0042
      8  CD2      -29.4660  -14.6320   -7.7980 C.ar    9  PHE9       -0.0042
      9  CE1      -29.9530  -12.3480   -9.2640 C.ar    9  PHE9       -0.0003
     10  CE2      -30.4620  -14.6310   -8.7230 C.ar    9  PHE9       -0.0003
     11  CZ       -30.7120  -13.4960   -9.4640 C.ar    9  PHE9       -0.0000
     12  N        -21.4910  -12.5540   -5.0770 N.3    11  LYS11      -0.1245
     13  CA       -20.2090  -12.3570   -5.7140 C.3    11  LYS11       0.1561
     14  C        -19.1550  -13.3020   -5.1840 C.2    11  LYS11       0.2260
     15  O        -18.3720  -13.8150   -5.9560 O.2    11  LYS11      -0.2867
     16  CB       -19.7500  -10.9190   -5.5660 C.3    11  LYS11       0.0271
     17  CG       -18.3260  -10.6440   -6.0540 C.3    11  LYS11       0.0035
     18  CD       -18.0080   -9.1090   -6.1560 C.3    11  LYS11       0.0206
     19  CE       -16.4460   -8.8260   -6.0770 C.3    11  LYS11       0.1093
     20  NZ       -15.8330   -7.6510   -6.8450 N.3    11  LYS11      -0.1314
     21  N        -19.4250  -16.6130   -6.8230 N.3    14  ARG14      -0.1245
     22  CA       -18.9500  -16.4900   -8.1760 C.3    14  ARG14       0.1563
     23  C        -17.4450  -16.4800   -8.1950 C.2    14  ARG14       0.2260
     24  O        -16.8480  -17.2120   -8.9390 O.2    14  ARG14      -0.2867
     25  CB       -19.5380  -15.2490   -8.8460 C.3    14  ARG14       0.0307
     26  CG       -21.0550  -15.3510   -9.0550 C.3    14  ARG14       0.0489
     27  CD       -21.5400  -14.3810  -10.1410 C.3    14  ARG14       0.2205
     28  NE       -21.2570  -12.9720   -9.8360 N.pl3  14  ARG14      -0.0865
     29  CZ       -22.0150  -12.1600   -9.0790 C.cat  14  ARG14       0.5346
     30  NH1      -23.1410  -12.5550   -8.4900 N.pl3  14  ARG14       0.1354
     31  NH2      -21.6380  -10.9000   -8.9200 N.pl3  14  ARG14       0.1354
     32  N        -17.3510   -9.7640  -10.2690 N.3    36  GLU36      -0.1231
     33  CA       -18.0560   -8.4800  -10.2140 C.3    36  GLU36       0.1699
     34  C        -18.9580   -8.2800  -11.4110 C.2    36  GLU36       0.2592
     35  O        -20.0650   -7.7390  -11.2820 O.2    36  GLU36      -0.2718
     36  CB       -17.0380   -7.3340  -10.1270 C.3    36  GLU36       0.0402
     37  CG       -17.5870   -5.9040  -10.3670 C.3    36  GLU36       0.1161
     38  CD       -18.3450   -5.2950   -9.1600 C.2    36  GLU36       0.3649
     39  OE1      -18.1060   -5.7270   -7.9840 O.co2  36  GLU36      -0.2457
     40  OE2      -19.1790   -4.3730   -9.4110 O.co2  36  GLU36      -0.2457
     41  N        -18.4670   -8.6660  -12.5920 N.am   37  ALA37      -0.1980
     42  CA       -19.2220   -8.4690  -13.8410 C.3    37  ALA37       0.1597
     43  C        -20.3050   -9.4990  -14.0580 C.2    37  ALA37       0.2287
     44  O        -21.0900   -9.3390  -14.9860 O.2    37  ALA37      -0.2864
     45  CB       -18.2630   -8.4300  -15.0810 C.3    37  ALA37       0.0319
     46  N        -16.4420   -6.1080  -17.5050 N.3    70  ILE70      -0.1245
     47  CA       -17.6840   -5.3320  -17.6210 C.3    70  ILE70       0.1561
     48  C        -17.9080   -4.9100  -19.0590 C.2    70  ILE70       0.2260
     49  O        -19.0150   -5.0280  -19.5720 O.2    70  ILE70      -0.2867
     50  CB       -17.6840   -4.0190  -16.7250 C.3    70  ILE70       0.0252
     51  CG1      -17.5320   -4.3930  -15.2470 C.3    70  ILE70       0.0019
     52  CG2      -19.0200   -3.2370  -16.8730 C.3    70  ILE70       0.0019
     53  CD1      -18.8280   -4.8780  -14.6450 C.3    70  ILE70       0.0001
     54  N        -20.8110   -5.9790  -21.5600 N.3    74  LYS74      -0.1245
     55  CA       -21.6760   -4.9990  -22.2140 C.3    74  LYS74       0.1561
     56  C        -21.6760   -5.1940  -23.7590 C.2    74  LYS74       0.2260
     57  O        -22.7330   -5.0880  -24.3980 O.2    74  LYS74      -0.2867
     58  CB       -21.2210   -3.5720  -21.8980 C.3    74  LYS74       0.0271
     59  CG       -21.5050   -3.0140  -20.4830 C.3    74  LYS74       0.0035
     60  CD       -20.7610   -1.6330  -20.2730 C.3    74  LYS74       0.0206
     61  CE       -21.5830   -0.5390  -19.5140 C.3    74  LYS74       0.1093
     62  NZ       -21.8940   -0.8690  -18.0800 N.3    74  LYS74      -0.1314
     63  N        -28.4620   -7.6530  -15.3480 N.3    82  PHE82      -0.1227
     64  CA       -27.5090   -7.6000  -14.2530 C.3    82  PHE82       0.1736
     65  C        -26.5990   -6.3850  -14.3640 C.2    82  PHE82       0.2595
     66  O        -26.1710   -5.7920  -13.3530 O.2    82  PHE82      -0.2718
     67  CB       -26.6980   -8.8310  -14.2130 C.3    82  PHE82       0.0547
     68  CG       -25.7190   -8.8880  -13.1070 C.ar   82  PHE82      -0.0202
     69  CD1      -26.1550   -9.0310  -11.7880 C.ar   82  PHE82      -0.0042
     70  CD2      -24.3840   -8.7610  -13.3520 C.ar   82  PHE82      -0.0042
     71  CE1      -25.2510   -9.0640  -10.7180 C.ar   82  PHE82      -0.0003
     72  CE2      -23.4740   -8.7880  -12.3010 C.ar   82  PHE82      -0.0003
     73  CZ       -23.9090   -8.9780  -10.9790 C.ar   82  PHE82      -0.0000
     74  N        -26.3440   -5.9890  -15.6030 N.am   83  LEU83      -0.1980
     75  CA       -25.5170   -4.8580  -15.8840 C.3    83  LEU83       0.1596
     76  C        -26.1460   -3.5400  -15.4170 C.2    83  LEU83       0.2287
     77  O        -25.4690   -2.5670  -15.3560 O.2    83  LEU83      -0.2864
     78  CB       -25.2140   -4.7880  -17.4220 C.3    83  LEU83       0.0297
     79  CG       -24.4000   -5.9420  -18.0400 C.3    83  LEU83       0.0022
     80  CD1      -24.3300   -5.7720  -19.5660 C.3    83  LEU83       0.0001
     81  CD2      -22.9810   -6.0280  -17.4680 C.3    83  LEU83       0.0001
     82  N        -27.8070   -3.3350  -12.4980 N.3    85  VAL85      -0.1231
     83  CA       -28.0170   -3.4560  -11.1100 C.3    85  VAL85       0.1692
     84  C        -26.9310   -2.5760  -10.4970 C.2    85  VAL85       0.2592
     85  O        -25.7640   -2.9120  -10.5720 O.2    85  VAL85      -0.2718
     86  CB       -27.8690   -4.9040  -10.6250 C.3    85  VAL85       0.0266
     87  CG1      -27.8490   -4.9620   -9.1020 C.3    85  VAL85       0.0020
     88  CG2      -29.0420   -5.7800  -11.1670 C.3    85  VAL85       0.0020
     89  N        -27.3160   -1.4920   -9.8700 N.am   86  LYS86      -0.1966
     90  CA       -26.3180   -0.6700   -9.2130 C.3    86  LYS86       0.1728
     91  C        -26.0640   -0.9820   -7.7320 C.2    86  LYS86       0.2616
     92  O        -24.9610   -0.7460   -7.2060 O.2    86  LYS86      -0.2715
     93  CB       -26.6810    0.8090   -9.4270 C.3    86  LYS86       0.0311
     94  CG       -26.4310    1.2220  -10.9170 C.3    86  LYS86       0.0038
     95  CD       -25.0060    0.7780  -11.4430 C.3    86  LYS86       0.0206
     96  CE       -25.0660   -0.1750  -12.6740 C.3    86  LYS86       0.1093
     97  NZ       -24.9240    0.5130  -14.0090 N.3    86  LYS86      -0.1314
     98  N        -27.0660   -1.5410   -7.0760 N.am   87  LYS87      -0.1963
     99  CA       -26.9710   -1.8890   -5.6450 C.3    87  LYS87       0.1728
    100  C        -26.1330   -3.1490   -5.3820 C.2    87  LYS87       0.2616
    101  O        -25.9560   -4.0210   -6.2470 O.2    87  LYS87      -0.2715
    102  CB       -28.3680   -2.1420   -5.1080 C.3    87  LYS87       0.0311
    103  CG       -29.2770   -0.9520   -5.1850 C.3    87  LYS87       0.0038
    104  CD       -30.6440   -1.3630   -4.7680 C.3    87  LYS87       0.0206
    105  CE       -31.6810   -0.2490   -4.7850 C.3    87  LYS87       0.1093
    106  NZ       -33.0130   -0.7290   -4.1330 N.3    87  LYS87      -0.1314
    107  N        -25.6500   -3.2580   -4.1520 N.am   88  GLN88      -0.1963
    108  CA       -25.1450   -4.5440   -3.6580 C.3    88  GLN88       0.1733
    109  C        -26.3180   -5.5180   -3.3890 C.2    88  GLN88       0.2616
    110  O        -27.4730   -5.1040   -3.2540 O.2    88  GLN88      -0.2715
    111  CB       -24.2680   -4.3350   -2.4110 C.3    88  GLN88       0.0408
    112  CG       -23.2420   -5.4290   -2.1230 C.3    88  GLN88       0.0908
    113  CD       -22.3580   -5.7460   -3.3180 C.2    88  GLN88       0.2608
    114  OE1      -22.4840   -6.8260   -3.9440 O.2    88  GLN88      -0.2717
    115  NE2      -21.4840   -4.8030   -3.6630 N.am   88  GLN88      -0.0878
    116  N        -26.0220   -6.8140   -3.3830 N.am   89  PHE89      -0.1974
    117  CA       -27.0150   -7.8510   -3.1240 C.3    89  PHE89       0.1639
    118  C        -27.8700   -7.5510   -1.8720 C.2    89  PHE89       0.2290
    119  O        -29.0880   -7.6170   -1.9200 O.2    89  PHE89      -0.2864
    120  CB       -26.3250   -9.2250   -2.9830 C.3    89  PHE89       0.0560
    121  CG       -27.2800  -10.3910   -2.7600 C.ar   89  PHE89      -0.0200
    122  CD1      -28.1150  -10.8390   -3.7760 C.ar   89  PHE89      -0.0042
    123  CD2      -27.3260  -11.0520   -1.5310 C.ar   89  PHE89      -0.0042
    124  CE1      -28.9900  -11.9090   -3.5700 C.ar   89  PHE89      -0.0003
    125  CE2      -28.2040  -12.1280   -1.3180 C.ar   89  PHE89      -0.0003
    126  CZ       -29.0310  -12.5550   -2.3560 C.ar   89  PHE89      -0.0000
@<TRIPOS>BOND
     1    57    56    2
     2    56    55    1
     3    55    58    1
     4    55    54    1
     5    58    59    1
     6    59    60    1
     7    60    61    1
     8    49    48    2
     9    80    79    1
    10    61    62    1
    11    48    47    1
    12    79    81    1
    13    79    78    1
    14    47    46    1
    15    47    50    1
    16    78    75    1
    17    52    50    1
    18    50    51    1
    19    75    74    1
    20    75    76    1
    21    74    65   am
    22    76    77    2
    23    63    64    1
    24    51    53    1
    25    45    42    1
    26    44    43    2
    27    65    64    1
    28    65    66    2
    29    64    67    1
    30    67    68    1
    31    43    42    1
    32    97    96    1
    33    42    41    1
    34    70    68   ar
    35    70    72   ar
    36    68    69   ar
    37    96    95    1
    38    41    34   am
    39    82    83    1
    40    72    73   ar
    41    69    71   ar
    42    95    94    1
    43    34    35    2
    44    34    33    1
    45    88    86    1
    46    83    86    1
    47    83    84    1
    48    73    71   ar
    49    94    93    1
    50    86    87    1
    51    85    84    2
    52    84    89   am
    53    37    36    1
    54    37    38    1
    55    32    33    1
    56    33    36    1
    57    27    28    1
    58    27    26    1
    59    89    90    1
    60    28    29    2
    61    11     9   ar
    62    11    10   ar
    63    93    90    1
    64    40    38   ar
    65     9     7   ar
    66    90    91    1
    67    38    39   ar
    68    29    31    1
    69    29    30    1
    70    26    25    1
    71    24    23    2
    72    25    22    1
    73    10     8   ar
    74     7     6   ar
    75    23    22    1
    76    22    21    1
    77     8     6   ar
    78    91    92    2
    79    91    98   am
    80     6     5    1
    81     1     2    1
    82    98    99    1
    83     2     5    1
    84     2     3    1
    85    20    19    1
    86   101   100    2
    87    18    19    1
    88    18    17    1
    89     3     4    2
    90    17    16    1
    91    15    14    2
    92    13    16    1
    93    13    14    1
    94    13    12    1
    95    99   100    1
    96    99   102    1
    97   100   107   am
    98   103   102    1
    99   103   104    1
   100   105   104    1
   101   105   106    1
   102   107   108    1
   103   114   113    2
   104   122   124   ar
   105   122   121   ar
   106   115   113   am
   107   108   109    1
   108   108   111    1
   109   124   126   ar
   110   109   116   am
   111   109   110    2
   112   116   117    1
   113   113   112    1
   114   117   120    1
   115   117   118    1
   116   120   121    1
   117   121   123   ar
   118   111   112    1
   119   126   125   ar
   120   119   118    2
   121   123   125   ar
