@<TRIPOS>MOLECULE
tmp/3uedA00.pdb
 131 126 0 0 0
SMALL
GASTEIGER

@<TRIPOS>ATOM
      1  N        -19.8190   -5.8370    3.6260 N.3    44  THR44      -0.1218
      2  CA       -19.1960   -5.6790    4.9280 C.3    44  THR44       0.1862
      3  C        -18.9280   -7.0530    5.5510 C.2    44  THR44       0.2287
      4  O        -19.3600   -8.0940    5.0400 O.2    44  THR44      -0.2866
      5  CB       -20.0730   -4.8380    5.8890 C.3    44  THR44       0.1770
      6  OG1      -21.3550   -5.4640    6.0540 O.3    44  THR44      -0.2211
      7  CG2      -20.2340   -3.4250    5.3620 C.3    44  THR44       0.0375
      8  N        -22.5100   -8.1170    6.5040 N.3    47  GLU47      -0.1245
      9  CA       -23.4190   -8.3900    5.3650 C.3    47  GLU47       0.1567
     10  C        -22.6300   -8.4850    4.0730 C.2    47  GLU47       0.2260
     11  O        -22.3800   -7.4800    3.4100 O.2    47  GLU47      -0.2867
     12  CB       -24.5240   -7.3310    5.2290 C.3    47  GLU47       0.0388
     13  CG       -25.1140   -6.8250    6.5400 C.3    47  GLU47       0.1160
     14  CD       -24.6990   -5.3990    6.8840 C.2    47  GLU47       0.3649
     15  OE1      -23.5560   -4.9990    6.5830 O.co2  47  GLU47      -0.2457
     16  OE2      -25.5260   -4.6720    7.4710 O.co2  47  GLU47      -0.2457
     17  N        -24.3240   -7.3230    0.5960 N.3    50  LEU50      -0.1245
     18  CA       -24.8930   -5.9840    0.5650 C.3    50  LEU50       0.1561
     19  C        -24.6820   -5.3310   -0.8160 C.2    50  LEU50       0.2260
     20  O        -23.5670   -5.3380   -1.3480 O.2    50  LEU50      -0.2867
     21  CB       -24.3000   -5.1110    1.6520 C.3    50  LEU50       0.0270
     22  CG       -25.0020   -3.7490    1.8850 C.3    50  LEU50       0.0019
     23  CD1      -26.4770   -3.8720    2.2850 C.3    50  LEU50       0.0001
     24  CD2      -24.2370   -2.9400    2.9210 C.3    50  LEU50       0.0001
     25  N        -30.4070    3.2680   -2.3940 N.3    58  LYS58      -0.1231
     26  CA       -31.0870    2.1780   -1.6740 C.3    58  LYS58       0.1693
     27  C        -30.1100    1.0290   -1.4610 C.2    58  LYS58       0.2592
     28  O        -29.3470    0.7100   -2.3430 O.2    58  LYS58      -0.2718
     29  CB       -32.3160    1.6670   -2.4220 C.3    58  LYS58       0.0285
     30  CG       -33.2230    0.7650   -1.5890 C.3    58  LYS58       0.0035
     31  CD       -34.1440    1.5820   -0.7180 C.3    58  LYS58       0.0206
     32  CE       -34.8590    0.7680    0.3370 C.3    58  LYS58       0.1093
     33  NZ       -35.2140    1.6580    1.4780 N.3    58  LYS58      -0.1314
     34  N        -30.1290    0.4530   -0.2600 N.am   59  GLU59      -0.1966
     35  CA       -29.2640   -0.6710    0.1170 C.3    59  GLU59       0.1733
     36  C        -30.0930   -1.9240    0.3780 C.2    59  GLU59       0.2616
     37  O        -31.0640   -1.9030    1.1470 O.2    59  GLU59      -0.2715
     38  CB       -28.4640   -0.3210    1.3730 C.3    59  GLU59       0.0429
     39  CG       -27.4640    0.8170    1.1840 C.3    59  GLU59       0.1163
     40  CD       -26.8790    1.2960    2.5060 C.2    59  GLU59       0.3649
     41  OE1      -27.6200    1.9190    3.2880 O.co2  59  GLU59      -0.2457
     42  OE2      -25.6820    1.0550    2.7640 O.co2  59  GLU59      -0.2457
     43  N        -29.7120   -3.0260   -0.2430 N.am   60  LEU60      -0.1963
     44  CA       -30.4650   -4.2440   -0.0730 C.3    60  LEU60       0.1728
     45  C        -29.5140   -5.3750    0.1840 C.2    60  LEU60       0.2616
     46  O        -28.5200   -5.5010   -0.5410 O.2    60  LEU60      -0.2715
     47  CB       -31.2830   -4.5580   -1.3180 C.3    60  LEU60       0.0311
     48  CG       -32.2310   -3.4970   -1.9000 C.3    60  LEU60       0.0022
     49  CD1      -32.7330   -4.0470   -3.2330 C.3    60  LEU60       0.0001
     50  CD2      -33.4120   -3.1340   -1.0030 C.3    60  LEU60       0.0001
     51  N        -29.8370   -6.1810    1.2130 N.am   61  GLU61      -0.1963
     52  CA       -29.1330   -7.4330    1.5510 C.3    61  GLU61       0.1733
     53  C        -30.1140   -8.6170    1.4490 C.2    61  GLU61       0.2617
     54  O        -31.3240   -8.4200    1.2370 O.2    61  GLU61      -0.2715
     55  CB       -28.5680   -7.3510    2.9780 C.3    61  GLU61       0.0429
     56  CG       -29.6400   -7.3620    4.0680 C.3    61  GLU61       0.1163
     57  CD       -29.1000   -7.0420    5.4630 C.2    61  GLU61       0.3649
     58  OE1      -27.8820   -7.1970    5.7020 O.co2  61  GLU61      -0.2457
     59  OE2      -29.9020   -6.6430    6.3370 O.co2  61  GLU61      -0.2457
     60  N        -29.6030   -9.8320    1.6620 N.am   62  GLY62      -0.1940
     61  CA       -30.4590  -11.0290    1.8020 C.3    62  GLY62       0.2014
     62  C        -30.9450  -11.4800    0.4600 C.2    62  GLY62       0.2639
     63  O        -32.1050  -11.7450    0.2550 O.2    62  GLY62      -0.2714
     64  N        -30.0240  -11.5350   -0.4790 N.am   63  TRP63      -0.1959
     65  CA       -30.3470  -11.9170   -1.8210 C.3    63  TRP63       0.1771
     66  C        -30.5280  -13.4130   -1.8910 C.2    63  TRP63       0.2619
     67  O        -29.7990  -14.1760   -1.2710 O.2    63  TRP63      -0.2715
     68  CB       -29.2320  -11.4900   -2.7600 C.3    63  TRP63       0.0590
     69  CG       -29.2050   -9.9950   -2.8860 C.ar   63  TRP63       0.0006
     70  CD1      -28.4760   -9.1110   -2.1450 C.ar   63  TRP63       0.0946
     71  CD2      -29.9960   -9.2080   -3.7700 C.ar   63  TRP63       0.0152
     72  NE1      -28.7700   -7.8370   -2.5090 N.ar   63  TRP63      -0.2442
     73  CE2      -29.7030   -7.8690   -3.5070 C.ar   63  TRP63       0.0810
     74  CE3      -30.9110   -9.5130   -4.7630 C.ar   63  TRP63       0.0012
     75  CZ2      -30.2710   -6.8390   -4.2200 C.ar   63  TRP63       0.0191
     76  CZ3      -31.4760   -8.4970   -5.4590 C.ar   63  TRP63       0.0001
     77  CH2      -31.1530   -7.1720   -5.1940 C.ar   63  TRP63       0.0015
     78  N        -31.5210  -13.8110   -2.6630 N.am   64  GLU64      -0.1977
     79  CA       -31.7710  -15.1990   -2.9710 C.3    64  GLU64       0.1602
     80  C        -31.6330  -15.4010   -4.4630 C.2    64  GLU64       0.2287
     81  O        -31.9900  -14.5230   -5.2210 O.2    64  GLU64      -0.2864
     82  CB       -33.1660  -15.5800   -2.4900 C.3    64  GLU64       0.0415
     83  CG       -33.1940  -15.7120   -0.9680 C.3    64  GLU64       0.1163
     84  CD       -34.5700  -15.9570   -0.3930 C.2    64  GLU64       0.3649
     85  OE1      -35.5280  -16.1140   -1.1730 O.co2  64  GLU64      -0.2457
     86  OE2      -34.6770  -16.0090    0.8490 O.co2  64  GLU64      -0.2457
     87  N        -34.0980  -14.1750   -7.0490 N.3    67  ASP67      -0.1239
     88  CA       -34.3580  -12.7140   -7.0090 C.3    67  ASP67       0.1674
     89  C        -33.9700  -12.0760   -8.3390 C.2    67  ASP67       0.2266
     90  O        -32.8600  -12.2560   -8.8300 O.2    67  ASP67      -0.2867
     91  CB       -33.5840  -12.0110   -5.8810 C.3    67  ASP67       0.1410
     92  CG       -34.2110  -12.1970   -4.5010 C.2    67  ASP67       0.3668
     93  OD1      -35.3880  -12.5870   -4.4400 O.co2  67  ASP67      -0.2456
     94  OD2      -33.5360  -11.9190   -3.4710 O.co2  67  ASP67      -0.2456
     95  N        -36.6880   -6.3450   -7.6380 N.3    72  GLU72      -0.1245
     96  CA       -36.3240   -5.9330   -6.2650 C.3    72  GLU72       0.1567
     97  C        -36.1340   -4.4030   -6.1730 C.2    72  GLU72       0.2260
     98  O        -36.6000   -3.7520   -5.2380 O.2    72  GLU72      -0.2867
     99  CB       -35.0600   -6.6370   -5.7860 C.3    72  GLU72       0.0388
    100  CG       -35.1630   -8.1480   -5.6150 C.3    72  GLU72       0.1160
    101  CD       -36.3530   -8.6280   -4.8020 C.2    72  GLU72       0.3649
    102  OE1      -36.4560   -8.3630   -3.5560 O.co2  72  GLU72      -0.2457
    103  OE2      -37.1690   -9.3390   -5.4390 O.co2  72  GLU72      -0.2457
    104  N        -39.5240   -2.7710   -6.4440 N.3    75  LYS75      -0.1231
    105  CA       -40.2600   -2.9820   -5.1930 C.3    75  LYS75       0.1693
    106  C        -39.7210   -2.0580   -4.1050 C.2    75  LYS75       0.2592
    107  O        -40.4290   -1.2280   -3.5950 O.2    75  LYS75      -0.2718
    108  CB       -40.1970   -4.4800   -4.7720 C.3    75  LYS75       0.0285
    109  CG       -40.8370   -4.8410   -3.4540 C.3    75  LYS75       0.0035
    110  CD       -41.0910   -6.3470   -3.4000 C.3    75  LYS75       0.0206
    111  CE       -41.4990   -6.8100   -2.0030 C.3    75  LYS75       0.1093
    112  NZ       -40.3610   -6.8970   -1.0130 N.3    75  LYS75      -0.1314
    113  N        -38.4540   -2.2000   -3.7660 N.am   76  HIS76      -0.1976
    114  CA       -37.8720   -1.4500   -2.6400 C.3    76  HIS76       0.1656
    115  C        -37.6790    0.0380   -2.8460 C.2    76  HIS76       0.2291
    116  O        -37.7960    0.8070   -1.8970 O.2    76  HIS76      -0.2864
    117  CB       -36.5750   -2.1080   -2.2240 C.3    76  HIS76       0.0771
    118  CG       -36.8060   -3.4670   -1.6360 C.ar   76  HIS76       0.0820
    119  ND1      -37.0710   -3.6730   -0.2940 N.ar   76  HIS76      -0.2267
    120  CD2      -36.9140   -4.6890   -2.2200 C.ar   76  HIS76       0.1154
    121  CE1      -37.2700   -4.9670   -0.0740 C.ar   76  HIS76       0.1986
    122  NE2      -37.1870   -5.6080   -1.2260 N.ar   76  HIS76      -0.2212
    123  N        -31.4370    9.2330   11.7090 N.3   118  LYS118     -0.1245
    124  CA       -31.5280    7.9390   12.4030 C.3   118  LYS118      0.1561
    125  C        -30.4690    7.8430   13.5060 C.2   118  LYS118      0.2260
    126  O        -30.7030    7.2730   14.5720 O.2   118  LYS118     -0.2867
    127  CB       -31.3960    6.7680   11.3960 C.3   118  LYS118      0.0271
    128  CG       -32.6000    6.5350   10.4630 C.3   118  LYS118      0.0035
    129  CD       -32.3610    5.3580    9.5180 C.3   118  LYS118      0.0206
    130  CE       -33.4590    5.1840    8.4610 C.3   118  LYS118      0.1093
    131  NZ       -32.9650    4.4780    7.2220 N.3   118  LYS118     -0.1314
@<TRIPOS>BOND
     1    90    89    2
     2    89    88    1
     3    95    96    1
     4    87    88    1
     5    88    91    1
     6   104   105    1
     7    96    97    1
     8    96    99    1
     9    97    98    2
    10    91    92    1
    11    99   100    1
    12   100   101    1
    13    76    77   ar
    14    76    74   ar
    15   103   101   ar
    16    81    80    2
    17    77    75   ar
    18   105   108    1
    19   105   106    1
    20   101   102   ar
    21   108   109    1
    22    74    71   ar
    23    92    93   ar
    24    92    94   ar
    25    80    79    1
    26    75    73   ar
    27   106   113   am
    28   106   107    2
    29    71    73   ar
    30    71    69   ar
    31   113   114    1
    32    73    72   ar
    33   109   110    1
    34   110   111    1
    35    49    48    1
    36    79    78    1
    37    79    82    1
    38    69    68    1
    39    69    70   ar
    40   115   114    1
    41   115   116    2
    42    68    65    1
    43    78    66   am
    44   114   117    1
    45    72    70   ar
    46    82    83    1
    47    29    26    1
    48    29    30    1
    49    25    26    1
    50    28    27    2
    51   117   118    1
    52   120   118   ar
    53   120   122   ar
    54   111   112    1
    55    48    47    1
    56    48    50    1
    57    66    65    1
    58    66    67    2
    59    65    64    1
    60    26    27    1
    61   118   119   ar
    62    30    31    1
    63    27    34   am
    64    20    19    2
    65    47    44    1
    66   122   121   ar
    67    85    84   ar
    68    83    84    1
    69    19    18    1
    70    31    32    1
    71    46    45    2
    72    64    62   am
    73    84    86   ar
    74   119   121   ar
    75    34    35    1
    76    43    44    1
    77    43    36   am
    78    44    45    1
    79    35    36    1
    80    35    38    1
    81    45    51   am
    82    63    62    2
    83    32    33    1
    84    36    37    2
    85    62    61    1
    86    18    17    1
    87    18    21    1
    88    39    38    1
    89    39    40    1
    90    51    52    1
    91    54    53    2
    92    53    52    1
    93    53    60   am
    94    52    55    1
    95    21    22    1
    96    60    61    1
    97    22    23    1
    98    22    24    1
    99    40    42   ar
   100    40    41   ar
   101    55    56    1
   102    11    10    2
   103     1     2    1
   104    56    57    1
   105    10     9    1
   106     2     3    1
   107     2     5    1
   108     4     3    2
   109    12     9    1
   110    12    13    1
   111     7     5    1
   112     9     8    1
   113    57    58   ar
   114    57    59   ar
   115     5     6    1
   116    13    14    1
   117    15    14   ar
   118    14    16   ar
   119   131   130    1
   120   130   129    1
   121   129   128    1
   122   128   127    1
   123   127   124    1
   124   123   124    1
   125   124   125    1
   126   125   126    2
