@<TRIPOS>MOLECULE
tmp/3uedC00.pdb
 115 112 0 0 0
SMALL
GASTEIGER

@<TRIPOS>ATOM
      1  N          5.0680   36.5740  -27.4890 N.3    48  GLU48      -0.1245
      2  CA         3.8340   36.7130  -28.2920 C.3    48  GLU48       0.1567
      3  C          2.6050   36.8480  -27.3980 C.2    48  GLU48       0.2260
      4  O          2.0080   35.8600  -26.9790 O.2    48  GLU48      -0.2867
      5  CB         3.6480   35.5440  -29.2640 C.3    48  GLU48       0.0388
      6  CG         4.9270   35.0240  -29.9160 C.3    48  GLU48       0.1160
      7  CD         5.3650   33.6600  -29.4000 C.2    48  GLU48       0.3649
      8  OE1        5.1660   33.3570  -28.2010 O.co2  48  GLU48      -0.2457
      9  OE2        5.9120   32.8780  -30.2090 O.co2  48  GLU48      -0.2457
     10  N         -0.9760   35.3360  -28.6100 N.3    51  LEU51      -0.1245
     11  CA        -0.9630   33.9310  -29.0150 C.3    51  LEU51       0.1561
     12  C         -2.2740   33.2340  -28.6210 C.2    51  LEU51       0.2260
     13  O         -2.7210   33.3280  -27.4800 O.2    51  LEU51      -0.2867
     14  CB         0.2350   33.1890  -28.3890 C.3    51  LEU51       0.0270
     15  CG         0.5160   31.7470  -28.8330 C.3    51  LEU51       0.0019
     16  CD1        1.0480   31.6930  -30.2600 C.3    51  LEU51       0.0001
     17  CD2        1.4670   31.0410  -27.8820 C.3    51  LEU51       0.0001
     18  N         -3.6480   23.9400  -33.2300 N.3    59  LYS59      -0.1231
     19  CA        -3.0290   24.9870  -34.0630 C.3    59  LYS59       0.1693
     20  C         -2.8300   26.2240  -33.2280 C.2    59  LYS59       0.2592
     21  O         -3.6900   26.5870  -32.4370 O.2    59  LYS59      -0.2718
     22  CB        -3.9050   25.3270  -35.2560 C.3    59  LYS59       0.0285
     23  CG        -3.1950   26.1500  -36.3120 C.3    59  LYS59       0.0035
     24  CD        -2.3670   25.2650  -37.2090 C.3    59  LYS59       0.0206
     25  CE        -1.4400   26.0380  -38.1270 C.3    59  LYS59       0.1093
     26  NZ        -0.4070   25.1540  -38.7450 N.3    59  LYS59      -0.1314
     27  N         -1.6760   26.8470  -33.4040 N.am   60  GLU60      -0.1966
     28  CA        -1.3180   28.1070  -32.7220 C.3    60  GLU60       0.1733
     29  C         -1.1850   29.2950  -33.7040 C.2    60  GLU60       0.2616
     30  O         -0.4730   29.2120  -34.7150 O.2    60  GLU60      -0.2715
     31  CB        -0.0020   27.9430  -31.9760 C.3    60  GLU60       0.0429
     32  CG        -0.0560   26.9470  -30.8300 C.3    60  GLU60       0.1163
     33  CD         1.3230   26.7100  -30.2270 C.2    60  GLU60       0.3649
     34  OE1        2.1680   26.1220  -30.9350 O.co2  60  GLU60      -0.2457
     35  OE2        1.5680   27.1120  -29.0610 O.co2  60  GLU60      -0.2457
     36  N         -1.8700   30.3920  -33.4030 N.am   61  LEU61      -0.1963
     37  CA        -1.8640   31.5330  -34.2960 C.3    61  LEU61       0.1728
     38  C         -1.6380   32.7920  -33.5100 C.2    61  LEU61       0.2616
     39  O         -2.2910   32.9930  -32.4890 O.2    61  LEU61      -0.2715
     40  CB        -3.1890   31.6590  -35.0400 C.3    61  LEU61       0.0311
     41  CG        -3.6310   30.3970  -35.7610 C.3    61  LEU61       0.0022
     42  CD1       -4.9640   30.6770  -36.4150 C.3    61  LEU61       0.0001
     43  CD2       -2.6040   29.8530  -36.7530 C.3    61  LEU61       0.0001
     44  N         -0.7210   33.6170  -34.0170 N.am   62  GLU62      -0.1963
     45  CA        -0.3960   34.9400  -33.4800 C.3    62  GLU62       0.1733
     46  C         -0.5930   35.9850  -34.5770 C.2    62  GLU62       0.2617
     47  O         -0.8810   35.6430  -35.7430 O.2    62  GLU62      -0.2715
     48  CB         1.0770   34.9870  -33.0350 C.3    62  GLU62       0.0429
     49  CG         2.0830   34.9300  -34.1970 C.3    62  GLU62       0.1163
     50  CD         3.5230   34.7330  -33.7640 C.2    62  GLU62       0.3649
     51  OE1        3.8500   35.0860  -32.6130 O.co2  62  GLU62      -0.2457
     52  OE2        4.3330   34.2380  -34.5850 O.co2  62  GLU62      -0.2457
     53  N         -0.4000   37.2510  -34.2070 N.am   63  GLY63      -0.1940
     54  CA        -0.4260   38.3500  -35.1720 C.3    63  GLY63       0.2014
     55  C         -1.8380   38.6580  -35.6000 C.2    63  GLY63       0.2639
     56  O         -2.1410   38.7920  -36.7770 O.2    63  GLY63      -0.2714
     57  N         -2.7100   38.7740  -34.6220 N.am   64  TRP64      -0.1959
     58  CA        -4.1100   39.0340  -34.8890 C.3    64  TRP64       0.1771
     59  C         -4.3030   40.4810  -35.2630 C.2    64  TRP64       0.2619
     60  O         -3.7090   41.3660  -34.6690 O.2    64  TRP64      -0.2715
     61  CB        -4.9590   38.6890  -33.6630 C.3    64  TRP64       0.0590
     62  CG        -5.0020   37.2170  -33.4380 C.ar   64  TRP64       0.0006
     63  CD1       -4.1410   36.4750  -32.6780 C.ar   64  TRP64       0.0946
     64  CD2       -5.8760   36.2980  -34.0690 C.ar   64  TRP64       0.0152
     65  NE1       -4.4370   35.1560  -32.8050 N.ar   64  TRP64      -0.2442
     66  CE2       -5.5170   35.0240  -33.6380 C.ar   64  TRP64       0.0810
     67  CE3       -6.9460   36.4330  -34.9560 C.ar   64  TRP64       0.0012
     68  CZ2       -6.2010   33.8870  -34.0440 C.ar   64  TRP64       0.0191
     69  CZ3       -7.6120   35.3070  -35.3690 C.ar   64  TRP64       0.0001
     70  CH2       -7.2470   34.0530  -34.9120 C.ar   64  TRP64       0.0015
     71  N         -5.1310   40.7010  -36.2740 N.am   65  GLU65      -0.1977
     72  CA        -5.5240   42.0370  -36.6830 C.3    65  GLU65       0.1602
     73  C         -7.0050   42.1940  -36.4370 C.2    65  GLU65       0.2287
     74  O         -7.7400   41.2380  -36.5940 O.2    65  GLU65      -0.2864
     75  CB        -5.1800   42.2730  -38.1500 C.3    65  GLU65       0.0415
     76  CG        -3.6880   42.5260  -38.3650 C.3    65  GLU65       0.1163
     77  CD        -3.3350   42.8670  -39.8000 C.2    65  GLU65       0.3649
     78  OE1       -4.2420   42.8890  -40.6590 O.co2  65  GLU65      -0.2457
     79  OE2       -2.1400   43.1170  -40.0630 O.co2  65  GLU65      -0.2457
     80  N         -9.6710   40.5480  -38.5310 N.3    68  ASP68      -0.1239
     81  CA        -9.5910   39.0740  -38.6080 C.3    68  ASP68       0.1674
     82  C        -10.8620   38.4260  -38.0600 C.2    68  ASP68       0.2266
     83  O        -11.3010   38.7270  -36.9490 O.2    68  ASP68      -0.2867
     84  CB        -8.3820   38.5170  -37.8350 C.3    68  ASP68       0.1410
     85  CG        -7.0590   38.6880  -38.5840 C.2    68  ASP68       0.3668
     86  OD1       -7.1190   38.9490  -39.8030 O.co2  68  ASP68      -0.2456
     87  OD2       -5.9620   38.5570  -37.9540 O.co2  68  ASP68      -0.2456
     88  N        -10.0480   32.4220  -40.0680 N.3    73  GLU73      -0.1245
     89  CA        -8.6230   32.1530  -39.8020 C.3    73  GLU73       0.1567
     90  C         -8.4120   30.6820  -39.4320 C.2    73  GLU73       0.2260
     91  O         -7.4750   30.0450  -39.8940 O.2    73  GLU73      -0.2867
     92  CB        -8.0840   33.0420  -38.6930 C.3    73  GLU73       0.0388
     93  CG        -8.0310   34.5420  -38.9960 C.3    73  GLU73       0.1160
     94  CD        -7.3460   34.9230  -40.3130 C.2    73  GLU73       0.3649
     95  OE1       -8.0620   35.3670  -41.2500 O.co2  73  GLU73      -0.2457
     96  OE2       -6.0930   34.8230  -40.4080 O.co2  73  GLU73      -0.2457
     97  N         -8.8550   28.6670  -42.5830 N.3    76  LYS76      -0.1231
     98  CA        -7.6440   28.8340  -43.4220 C.3    76  LYS76       0.1693
     99  C         -6.4550   28.0270  -42.8330 C.2    76  LYS76       0.2592
    100  O         -5.9480   27.1210  -43.4630 O.2    76  LYS76      -0.2718
    101  CB        -7.2750   30.3280  -43.6650 C.3    76  LYS76       0.0285
    102  CG        -6.1980   30.4290  -44.7780 C.3    76  LYS76       0.0035
    103  CD        -5.9830   31.8150  -45.2700 C.3    76  LYS76       0.0206
    104  CE        -5.3480   32.6420  -44.1730 C.3    76  LYS76       0.1093
    105  NZ        -5.3110   34.0430  -44.5640 N.3    76  LYS76      -0.1314
    106  N         -6.0370   28.3620  -41.6190 N.am   77  HIS77      -0.1976
    107  CA        -4.8430   27.7740  -41.0210 C.3    77  HIS77       0.1656
    108  C         -4.9560   26.3230  -40.6140 C.2    77  HIS77       0.2291
    109  O         -3.9730   25.5950  -40.6970 O.2    77  HIS77      -0.2864
    110  CB        -4.3950   28.6120  -39.8370 C.3    77  HIS77       0.0771
    111  CG        -3.9800   29.9940  -40.2270 C.ar   77  HIS77       0.0820
    112  ND1       -2.7630   30.2620  -40.8280 N.ar   77  HIS77      -0.2267
    113  CD2       -4.6300   31.1830  -40.1480 C.ar   77  HIS77       0.1154
    114  CE1       -2.6650   31.5620  -41.0600 C.ar   77  HIS77       0.1986
    115  NE2       -3.7880   32.1410  -40.6720 N.ar   77  HIS77      -0.2212
@<TRIPOS>BOND
     1   103   102    1
     2   103   104    1
     3   102   101    1
     4   105   104    1
     5   101    98    1
     6   100    99    2
     7    98    99    1
     8    98    97    1
     9    99   106   am
    10   106   107    1
    11    95    94   ar
    12   114   112   ar
    13   114   115   ar
    14   107   108    1
    15   107   110    1
    16   112   111   ar
    17   109   108    2
    18   115   113   ar
    19    78    77   ar
    20    96    94   ar
    21    94    93    1
    22   111   113   ar
    23   111   110    1
    24    88    89    1
    25    79    77   ar
    26    91    90    2
    27    86    85   ar
    28    89    90    1
    29    89    92    1
    30    77    76    1
    31    93    92    1
    32    26    25    1
    33    81    80    1
    34    81    82    1
    35    81    84    1
    36    85    87   ar
    37    85    84    1
    38    76    75    1
    39    75    72    1
    40    25    24    1
    41    82    83    2
    42    24    23    1
    43    56    55    2
    44    43    41    1
    45    72    73    1
    46    72    71    1
    47    74    73    2
    48    42    41    1
    49    23    22    1
    50    71    59   am
    51    41    40    1
    52    47    46    2
    53    55    54    1
    54    55    57   am
    55    69    67   ar
    56    69    70   ar
    57    59    58    1
    58    59    60    2
    59    22    19    1
    60    54    53    1
    61    40    37    1
    62    67    64   ar
    63    70    68   ar
    64    58    57    1
    65    58    61    1
    66    30    29    2
    67    52    50   ar
    68    46    53   am
    69    46    45    1
    70    37    38    1
    71    37    36    1
    72    49    50    1
    73    49    48    1
    74    64    66   ar
    75    64    62   ar
    76    19    18    1
    77    19    20    1
    78    68    66   ar
    79    44    38   am
    80    44    45    1
    81    50    51   ar
    82    29    36   am
    83    29    28    1
    84    61    62    1
    85    66    65   ar
    86    38    39    2
    87    45    48    1
    88    62    63   ar
    89    27    20   am
    90    27    28    1
    91    20    21    2
    92    65    63   ar
    93    28    31    1
    94    31    32    1
    95    34    33   ar
    96    32    33    1
    97    16    15    1
    98    33    35   ar
    99     9     7   ar
   100     6     7    1
   101     6     5    1
   102     7     8   ar
   103     5     2    1
   104    11    12    1
   105    11    10    1
   106    11    14    1
   107    15    14    1
   108    15    17    1
   109    12    13    2
   110     2     1    1
   111     2     3    1
   112     3     4    2
