@<TRIPOS>MOLECULE
tmp/3uefA00.pdb
 122 118 0 0 0
SMALL
GASTEIGER

@<TRIPOS>ATOM
      1  N        -46.4000  -71.0860   35.4060 N.3    44  THR44      -0.1218
      2  CA       -45.6810  -70.9210   36.6770 C.3    44  THR44       0.1862
      3  C        -45.1640  -72.3240   37.1410 C.2    44  THR44       0.2287
      4  O        -45.6100  -73.3450   36.6260 O.2    44  THR44      -0.2866
      5  CB       -46.5470  -70.1180   37.7460 C.3    44  THR44       0.1770
      6  OG1      -47.8540  -70.7060   37.9440 O.3    44  THR44      -0.2211
      7  CG2      -46.7400  -68.6570   37.3130 C.3    44  THR44       0.0375
      8  N        -48.5590  -73.1160   38.4280 N.3    47  GLU47      -0.1245
      9  CA       -49.7030  -73.2600   37.5090 C.3    47  GLU47       0.1567
     10  C        -49.1770  -73.4660   36.0620 C.2    47  GLU47       0.2260
     11  O        -49.1070  -72.5150   35.2910 O.2    47  GLU47      -0.2867
     12  CB       -50.5770  -71.9580   37.6140 C.3    47  GLU47       0.0388
     13  CG       -51.0650  -71.6410   39.0510 C.3    47  GLU47       0.1160
     14  CD       -51.8480  -70.3790   39.2550 C.2    47  GLU47       0.3649
     15  OE1      -51.9950  -69.5160   38.4350 O.co2  47  GLU47      -0.2457
     16  OE2      -52.3640  -70.2660   40.3820 O.co2  47  GLU47      -0.2457
     17  N        -50.8990  -72.6390   32.4550 N.3    50  LEU50      -0.1245
     18  CA       -51.5110  -71.3270   32.3790 C.3    50  LEU50       0.1561
     19  C        -51.2850  -70.6910   31.0180 C.2    50  LEU50       0.2260
     20  O        -50.1590  -70.7130   30.4860 O.2    50  LEU50      -0.2867
     21  CB       -50.8930  -70.4080   33.3930 C.3    50  LEU50       0.0270
     22  CG       -51.6320  -69.1080   33.6710 C.3    50  LEU50       0.0019
     23  CD1      -53.0010  -69.4020   34.2740 C.3    50  LEU50       0.0001
     24  CD2      -50.7790  -68.2650   34.6080 C.3    50  LEU50       0.0001
     25  N        -57.0000  -62.1540   29.6040 N.3    58  LYS58      -0.1231
     26  CA       -57.7090  -63.1830   30.3480 C.3    58  LYS58       0.1693
     27  C        -56.8130  -64.3760   30.4170 C.2    58  LYS58       0.2592
     28  O        -56.2810  -64.7820   29.4000 O.2    58  LYS58      -0.2718
     29  CB       -58.9850  -63.5580   29.6000 C.3    58  LYS58       0.0285
     30  CG       -59.8160  -64.6860   30.1900 C.3    58  LYS58       0.0035
     31  CD       -60.2530  -64.4130   31.6150 C.3    58  LYS58       0.0206
     32  CE       -61.0410  -63.1480   31.7330 C.3    58  LYS58       0.1093
     33  NZ       -61.8810  -63.3270   32.9390 N.3    58  LYS58      -0.1314
     34  N        -56.6370  -64.9300   31.6290 N.am   59  GLU59      -0.1966
     35  CA       -55.8320  -66.0990   31.8760 C.3    59  GLU59       0.1733
     36  C        -56.6790  -67.3230   32.1850 C.2    59  GLU59       0.2616
     37  O        -57.7090  -67.2350   32.8410 O.2    59  GLU59      -0.2715
     38  CB       -54.9260  -65.8400   33.0590 C.3    59  GLU59       0.0429
     39  CG       -53.8760  -64.7380   32.8670 C.3    59  GLU59       0.1163
     40  CD       -53.3900  -64.1990   34.2260 C.2    59  GLU59       0.3649
     41  OE1      -54.2200  -63.6290   34.9940 O.co2  59  GLU59      -0.2457
     42  OE2      -52.1930  -64.3820   34.5520 O.co2  59  GLU59      -0.2457
     43  N        -56.2790  -68.4780   31.6750 N.am   60  LEU60      -0.1963
     44  CA       -57.0580  -69.6590   31.8700 C.3    60  LEU60       0.1728
     45  C        -56.0900  -70.7990   32.0860 C.2    60  LEU60       0.2616
     46  O        -55.0080  -70.8300   31.4550 O.2    60  LEU60      -0.2715
     47  CB       -57.9230  -69.9820   30.6600 C.3    60  LEU60       0.0311
     48  CG       -58.9450  -69.0030   30.1020 C.3    60  LEU60       0.0022
     49  CD1      -59.4630  -69.4320   28.7150 C.3    60  LEU60       0.0001
     50  CD2      -60.0740  -68.8590   31.0570 C.3    60  LEU60       0.0001
     51  N        -56.4870  -71.7110   32.9790 N.am   61  GLU61      -0.1963
     52  CA       -55.7320  -72.9160   33.3070 C.3    61  GLU61       0.1733
     53  C        -56.7390  -74.0800   33.3030 C.2    61  GLU61       0.2617
     54  O        -57.9180  -73.8960   32.9330 O.2    61  GLU61      -0.2715
     55  CB       -55.0190  -72.7410   34.6580 C.3    61  GLU61       0.0429
     56  CG       -55.8650  -72.0830   35.7750 C.3    61  GLU61       0.1163
     57  CD       -55.3980  -72.3660   37.2370 C.2    61  GLU61       0.3649
     58  OE1      -54.1650  -72.4250   37.5150 O.co2  61  GLU61      -0.2457
     59  OE2      -56.2800  -72.5090   38.1360 O.co2  61  GLU61      -0.2457
     60  N        -56.2730  -75.2640   33.6870 N.am   62  GLY62      -0.1940
     61  CA       -57.1390  -76.4500   33.7810 C.3    62  GLY62       0.2014
     62  C        -57.5530  -76.9230   32.4090 C.2    62  GLY62       0.2639
     63  O        -58.6440  -77.4420   32.2220 O.2    62  GLY62      -0.2714
     64  N        -56.6710  -76.7020   31.4400 N.am   63  TRP63      -0.1959
     65  CA       -56.8870  -77.1530   30.0900 C.3    63  TRP63       0.1771
     66  C        -57.0150  -78.6380   30.0390 C.2    63  TRP63       0.2619
     67  O        -56.2780  -79.3500   30.6700 O.2    63  TRP63      -0.2715
     68  CB       -55.7460  -76.6920   29.2190 C.3    63  TRP63       0.0590
     69  CG       -55.8190  -75.1830   29.0100 C.ar   63  TRP63       0.0006
     70  CD1      -55.1790  -74.1970   29.7230 C.ar   63  TRP63       0.0946
     71  CD2      -56.6710  -74.4840   28.0780 C.ar   63  TRP63       0.0152
     72  NE1      -55.5950  -72.9770   29.3210 N.ar   63  TRP63      -0.2442
     73  CE2      -56.4670  -73.0970   28.3060 C.ar   63  TRP63       0.0810
     74  CE3      -57.5380  -74.8790   27.1070 C.ar   63  TRP63       0.0012
     75  CZ2      -57.0900  -72.1480   27.5670 C.ar   63  TRP63       0.0191
     76  CZ3      -58.1470  -73.9350   26.3580 C.ar   63  TRP63       0.0001
     77  CH2      -57.9380  -72.5950   26.5790 C.ar   63  TRP63       0.0015
     78  N        -57.9360  -79.0910   29.1990 N.am   64  GLU64      -0.1977
     79  CA       -58.1710  -80.4820   28.8660 C.3    64  GLU64       0.1602
     80  C        -58.1350  -80.7550   27.3680 C.2    64  GLU64       0.2287
     81  O        -58.5530  -79.9390   26.5750 O.2    64  GLU64      -0.2864
     82  CB       -59.5620  -80.8490   29.3970 C.3    64  GLU64       0.0415
     83  CG       -59.5290  -81.0610   30.9100 C.3    64  GLU64       0.1163
     84  CD       -60.8780  -81.2990   31.5570 C.2    64  GLU64       0.3649
     85  OE1      -61.9090  -81.2300   30.8530 O.co2  64  GLU64      -0.2457
     86  OE2      -60.9030  -81.5380   32.7880 O.co2  64  GLU64      -0.2457
     87  N        -60.8070  -79.5210   24.8370 N.3    67  ASP67      -0.1239
     88  CA       -61.0240  -78.0390   24.8910 C.3    67  ASP67       0.1674
     89  C        -60.6730  -77.3190   23.5950 C.2    67  ASP67       0.2266
     90  O        -59.5270  -77.3510   23.1430 O.2    67  ASP67      -0.2867
     91  CB       -60.2090  -77.4120   26.0230 C.3    67  ASP67       0.1410
     92  CG       -60.7550  -77.7270   27.4310 C.2    67  ASP67       0.3668
     93  OD1      -61.8610  -78.3240   27.5520 O.co2  67  ASP67      -0.2456
     94  OD2      -60.0740  -77.3570   28.4440 O.co2  67  ASP67      -0.2456
     95  N        -63.3860  -71.6930   24.3370 N.3    72  GLU72      -0.1245
     96  CA       -63.0340  -71.2950   25.7110 C.3    72  GLU72       0.1567
     97  C        -62.8170  -69.7920   25.8530 C.2    72  GLU72       0.2260
     98  O        -63.0750  -69.2180   26.9000 O.2    72  GLU72      -0.2867
     99  CB       -61.7650  -72.0000   26.1910 C.3    72  GLU72       0.0388
    100  CG       -61.8990  -73.4820   26.2700 C.3    72  GLU72       0.1160
    101  CD       -63.0790  -73.9880   27.1350 C.2    72  GLU72       0.3649
    102  OE1      -63.2500  -73.5270   28.2880 O.co2  72  GLU72      -0.2457
    103  OE2      -63.7850  -74.9280   26.6690 O.co2  72  GLU72      -0.2457
    104  N        -66.2140  -68.0440   25.7760 N.3    75  LYS75      -0.1231
    105  CA       -66.8970  -68.2790   27.0730 C.3    75  LYS75       0.1693
    106  C        -66.3730  -67.3040   28.1160 C.2    75  LYS75       0.2592
    107  O        -67.1390  -66.5710   28.6960 O.2    75  LYS75      -0.2718
    108  CB       -66.7070  -69.7360   27.5240 C.3    75  LYS75       0.0285
    109  CG       -67.4080  -70.1980   28.7990 C.3    75  LYS75       0.0035
    110  CD       -67.0640  -71.7220   28.8880 C.3    75  LYS75       0.0206
    111  CE       -67.5760  -72.3320   27.5690 C.3    75  LYS75       0.1093
    112  NZ       -68.9790  -72.8760   27.7000 N.3    75  LYS75      -0.1314
    113  N        -65.0610  -67.2410   28.3000 N.am   76  HIS76      -0.1976
    114  CA       -64.5060  -66.5420   29.4660 C.3    76  HIS76       0.1656
    115  C        -64.2000  -65.0790   29.2230 C.2    76  HIS76       0.2291
    116  O        -63.8590  -64.3570   30.1450 O.2    76  HIS76      -0.2864
    117  CB       -63.2650  -67.2890   29.9580 C.3    76  HIS76       0.0771
    118  CG       -63.5740  -68.6470   30.5380 C.ar   76  HIS76       0.0820
    119  ND1      -64.1110  -68.8010   31.7580 N.ar   76  HIS76      -0.2267
    120  CD2      -63.4040  -69.9240   30.0240 C.ar   76  HIS76       0.1154
    121  CE1      -64.2750  -70.1060   32.0190 C.ar   76  HIS76       0.1986
    122  NE2      -63.8410  -70.7960   30.9610 N.ar   76  HIS76      -0.2212
@<TRIPOS>BOND
     1    90    89    2
     2    89    88    1
     3    95    96    1
     4    87    88    1
     5    88    91    1
     6    96    97    1
     7    96    99    1
     8   104   105    1
     9    97    98    2
    10    91    92    1
    11    99   100    1
    12   100   101    1
    13    76    77   ar
    14    76    74   ar
    15    81    80    2
    16    77    75   ar
    17   103   101   ar
    18   105   108    1
    19   105   106    1
    20    74    71   ar
    21   101   102   ar
    22    80    79    1
    23    92    93   ar
    24    92    94   ar
    25   108   109    1
    26    75    73   ar
    27   111   112    1
    28   111   110    1
    29    71    73   ar
    30    71    69   ar
    31   106   113   am
    32   106   107    2
    33   113   114    1
    34    73    72   ar
    35    49    48    1
    36   109   110    1
    37    79    78    1
    38    79    82    1
    39    69    68    1
    40    69    70   ar
    41    78    66   am
    42    68    65    1
    43   115   114    1
    44   115   116    2
    45    72    70   ar
    46    82    83    1
    47    28    27    2
    48   114   117    1
    49    29    30    1
    50    29    26    1
    51    25    26    1
    52   117   118    1
    53   120   118   ar
    54   120   122   ar
    55    66    65    1
    56    66    67    2
    57    65    64    1
    58    48    47    1
    59    48    50    1
    60    30    31    1
    61    26    27    1
    62    27    34   am
    63    20    19    2
    64   118   119   ar
    65    47    44    1
    66    85    84   ar
    67    83    84    1
    68   122   121   ar
    69    19    18    1
    70    64    62   am
    71    46    45    2
    72    84    86   ar
    73    31    32    1
    74    34    35    1
    75    43    44    1
    76    43    36   am
    77    32    33    1
    78   119   121   ar
    79    44    45    1
    80    35    36    1
    81    35    38    1
    82    45    51   am
    83    36    37    2
    84    63    62    2
    85    18    17    1
    86    18    21    1
    87    62    61    1
    88    39    38    1
    89    39    40    1
    90    54    53    2
    91    51    52    1
    92    53    52    1
    93    53    60   am
    94    52    55    1
    95    21    22    1
    96    22    23    1
    97    22    24    1
    98    60    61    1
    99    40    42   ar
   100    40    41   ar
   101    55    56    1
   102    11    10    2
   103     1     2    1
   104    56    57    1
   105    10     9    1
   106     4     3    2
   107     2     3    1
   108     2     5    1
   109    57    58   ar
   110    57    59   ar
   111     7     5    1
   112     9    12    1
   113     9     8    1
   114    12    13    1
   115     5     6    1
   116    15    14   ar
   117    13    14    1
   118    14    16   ar
