@<TRIPOS>MOLECULE
tmp/3uelA00.pdb
 193 191 0 0 0
SMALL
GASTEIGER

@<TRIPOS>ATOM
      1  N         36.4860   42.9760    0.8830 N.3   284  THR284     -0.1203
      2  CA        37.4230   42.2550    1.7550 C.3   284  THR284      0.1994
      3  C         38.4640   41.6100    0.8470 C.2   284  THR284      0.2618
      4  O         38.2310   41.4680   -0.3480 O.2   284  THR284     -0.2717
      5  CB        36.7370   41.1170    2.5360 C.3   284  THR284      0.1784
      6  OG1       36.1970   40.1500    1.6200 O.3   284  THR284     -0.2211
      7  CG2       35.6150   41.6470    3.4140 C.3   284  THR284      0.0376
      8  N         39.5980   41.1830    1.3920 N.am  285  ILE285     -0.1965
      9  CA        40.6700   40.6410    0.5400 C.3   285  ILE285      0.1727
     10  C         40.2490   39.3340   -0.1400 C.2   285  ILE285      0.2616
     11  O         40.4800   39.1240   -1.3390 O.2   285  ILE285     -0.2715
     12  CB        41.9490   40.3630    1.3180 C.3   285  ILE285      0.0290
     13  CG1       42.4710   41.6340    1.9500 C.3   285  ILE285      0.0022
     14  CG2       43.0040   39.8190    0.3800 C.3   285  ILE285      0.0023
     15  CD1       43.6800   41.3980    2.8270 C.3   285  ILE285      0.0001
     16  N         39.6440   38.4520    0.6470 N.am  286  GLU286     -0.1977
     17  CA        39.2050   37.1690    0.1480 C.3   286  GLU286      0.1602
     18  C         38.0050   37.3900   -0.7270 C.2   286  GLU286      0.2287
     19  O         37.8340   36.7130   -1.7250 O.2   286  GLU286     -0.2864
     20  CB        38.8690   36.2220    1.3010 C.3   286  GLU286      0.0415
     21  CG        37.5520   36.4790    2.0540 C.3   286  GLU286      0.1163
     22  CD        37.6360   37.5430    3.1190 C.2   286  GLU286      0.3649
     23  OE1       38.6660   38.2290    3.1830 O.co2 286  GLU286     -0.2457
     24  OE2       36.6700   37.6710    3.8930 O.co2 286  GLU286     -0.2457
     25  N         47.5680   38.2240    7.1160 N.3   297  PHE297     -0.1227
     26  CA        48.1570   38.9720    8.2070 C.3   297  PHE297      0.1736
     27  C         48.6020   37.9650    9.2410 C.2   297  PHE297      0.2595
     28  O         47.8640   37.6150   10.1840 O.2   297  PHE297     -0.2718
     29  CB        47.1370   39.9280    8.7760 C.3   297  PHE297      0.0547
     30  CG        46.6380   40.9370    7.7910 C.ar  297  PHE297     -0.0202
     31  CD1       47.3980   41.3360    6.7250 C.ar  297  PHE297     -0.0042
     32  CD2       45.4070   41.5240    7.9760 C.ar  297  PHE297     -0.0042
     33  CE1       46.9430   42.2930    5.8510 C.ar  297  PHE297     -0.0003
     34  CE2       44.9320   42.4870    7.1030 C.ar  297  PHE297     -0.0003
     35  CZ        45.7090   42.8770    6.0390 C.ar  297  PHE297     -0.0000
     36  N         49.8300   37.4960    9.0270 N.am  298  ALA298     -0.1966
     37  CA        50.2750   36.2110    9.5410 C.3   298  ALA298      0.1728
     38  C         50.9410   36.3460   10.8890 C.2   298  ALA298      0.2616
     39  O         51.3520   37.4480   11.2630 O.2   298  ALA298     -0.2715
     40  CB        51.2090   35.5490    8.5360 C.3   298  ALA298      0.0334
     41  N         50.9840   35.2350   11.6280 N.am  299  ASN299     -0.1972
     42  CA        51.9090   35.0930   12.7260 C.3   299  ASN299      0.1688
     43  C         53.1790   34.4130   12.2050 C.2   299  ASN299      0.2292
     44  O         53.1320   33.5810   11.3070 O.2   299  ASN299     -0.2864
     45  CB        51.2720   34.2840   13.8430 C.3   299  ASN299      0.1181
     46  CG        52.1620   34.1670   15.0520 C.2   299  ASN299      0.2629
     47  OD1       53.1090   33.3920   15.0710 O.2   299  ASN299     -0.2716
     48  ND2       51.8530   34.9280   16.0730 N.am  299  ASN299     -0.0877
     49  N         48.6680   31.1170   12.9160 N.3   304  GLY304     -0.1225
     50  CA        48.2890   31.7480   14.1700 C.3   304  GLY304      0.1811
     51  C         47.6590   30.7570   15.1110 C.2   304  GLY304      0.2280
     52  O         48.2000   29.6780   15.3070 O.2   304  GLY304     -0.2866
     53  N         40.9120   35.8670   14.1820 N.3   312  VAL312     -0.1231
     54  CA        40.9430   37.1360   13.5060 C.3   312  VAL312      0.1692
     55  C         41.3810   36.8490   12.0830 C.2   312  VAL312      0.2592
     56  O         41.1830   35.7320   11.6030 O.2   312  VAL312     -0.2718
     57  CB        41.8080   38.1740   14.2490 C.3   312  VAL312      0.0266
     58  CG1       41.2460   38.4030   15.6380 C.3   312  VAL312      0.0020
     59  CG2       43.2570   37.7410   14.3360 C.3   312  VAL312      0.0020
     60  N         41.9590   37.8340   11.4030 N.am  313  GLN313     -0.1966
     61  CA        42.0890   37.7890    9.9220 C.3   313  GLN313      0.1733
     62  C         42.6440   36.4700    9.3640 C.2   313  GLN313      0.2616
     63  O         42.0530   35.8670    8.4340 O.2   313  GLN313     -0.2715
     64  CB        42.9390   38.9780    9.4150 C.3   313  GLN313      0.0408
     65  CG        42.8860   39.2210    7.9090 C.3   313  GLN313      0.0908
     66  CD        44.0680   38.6100    7.1760 C.2   313  GLN313      0.2608
     67  OE1       44.8000   37.7920    7.7210 O.2   313  GLN313     -0.2717
     68  NE2       44.2610   39.0110    5.9340 N.am  313  GLN313     -0.0878
     69  N         43.7750   36.0490    9.9330 N.am  314  GLU314     -0.1963
     70  CA        44.4410   34.8360    9.5070 C.3   314  GLU314      0.1733
     71  C         43.6400   33.6440    9.9230 C.2   314  GLU314      0.2616
     72  O         43.2510   32.8410    9.0730 O.2   314  GLU314     -0.2715
     73  CB        45.8470   34.7250   10.0770 C.3   314  GLU314      0.0429
     74  CG        46.5070   33.3980    9.7110 C.3   314  GLU314      0.1163
     75  CD        47.9680   33.2870   10.1050 C.2   314  GLU314      0.3649
     76  OE1       48.3990   33.8380   11.1690 O.co2 314  GLU314     -0.2457
     77  OE2       48.6870   32.6130    9.3380 O.co2 314  GLU314     -0.2457
     78  N         43.3780   33.5010   11.2120 N.am  315  GLU315     -0.1977
     79  CA        42.6310   32.3360   11.6510 C.3   315  GLU315      0.1602
     80  C         41.3780   32.1340   10.7600 C.2   315  GLU315      0.2287
     81  O         41.0330   30.9870   10.3700 O.2   315  GLU315     -0.2864
     82  CB        42.2430   32.4160   13.1280 C.3   315  GLU315      0.0415
     83  CG        43.3820   32.1800   14.0900 C.3   315  GLU315      0.1163
     84  CD        44.1090   33.4670   14.4350 C.2   315  GLU315      0.3649
     85  OE1       44.0550   34.4050   13.6120 O.co2 315  GLU315     -0.2457
     86  OE2       44.7410   33.5610   15.5150 O.co2 315  GLU315     -0.2457
     87  N         31.4190   33.2870    5.7350 N.3   351  TYR351     -0.1241
     88  CA        31.2200   33.6930    7.1370 C.3   351  TYR351      0.1605
     89  C         30.5950   35.0750    7.3210 C.2   351  TYR351      0.2264
     90  O         30.4190   35.8430    6.3650 O.2   351  TYR351     -0.2867
     91  CB        32.5460   33.6590    7.8890 C.3   351  TYR351      0.0534
     92  CG        33.4950   34.7590    7.4960 C.ar  351  TYR351     -0.0201
     93  CD1       34.1780   34.7160    6.2930 C.ar  351  TYR351     -0.0009
     94  CD2       33.7130   35.8510    8.3220 C.ar  351  TYR351     -0.0009
     95  CE1       35.0610   35.7310    5.9230 C.ar  351  TYR351      0.0417
     96  CE2       34.5980   36.8720    7.9610 C.ar  351  TYR351      0.0417
     97  CZ        35.2650   36.8080    6.7640 C.ar  351  TYR351      0.1957
     98  OH        36.1250   37.8150    6.4260 O.3   351  TYR351     -0.2866
     99  N         33.5190   38.8470   12.8940 N.3   354  TYR354     -0.1241
    100  CA        34.9650   38.9050   13.1380 C.3   354  TYR354      0.1605
    101  C         35.1520   38.5040   14.6160 C.2   354  TYR354      0.2264
    102  O         34.1810   38.5090   15.3720 O.2   354  TYR354     -0.2867
    103  CB        35.4810   40.3220   12.8460 C.3   354  TYR354      0.0534
    104  CG        36.9990   40.5070   12.7900 C.ar  354  TYR354     -0.0201
    105  CD1       37.7480   40.1440   11.6710 C.ar  354  TYR354     -0.0009
    106  CD2       37.6720   41.1010   13.8380 C.ar  354  TYR354     -0.0009
    107  CE1       39.1310   40.3460   11.6220 C.ar  354  TYR354      0.0417
    108  CE2       39.0480   41.3030   13.7950 C.ar  354  TYR354      0.0417
    109  CZ        39.7740   40.9260   12.6920 C.ar  354  TYR354      0.1957
    110  OH        41.1290   41.1550   12.7160 O.3   354  TYR354     -0.2866
    111  N         53.6980   40.6510   10.4800 N.3   385  ALA385     -0.1245
    112  CA        54.1210   41.9670   10.9760 C.3   385  ALA385      0.1562
    113  C         54.7560   41.7830   12.3570 C.2   385  ALA385      0.2260
    114  O         54.8290   40.6590   12.8740 O.2   385  ALA385     -0.2867
    115  CB        52.9480   42.9110   11.0440 C.3   385  ALA385      0.0290
    116  N         45.3370   45.0330    3.1400 N.3   427  GLY427     -0.1210
    117  CA        44.5750   45.9730    3.9770 C.3   427  GLY427      0.1956
    118  C         45.3640   46.4020    5.1900 C.2   427  GLY427      0.2612
    119  O         46.5670   46.6110    5.1040 O.2   427  GLY427     -0.2717
    120  N         44.7020   46.4590    6.3340 N.am  428  ASN428     -0.1960
    121  CA        45.3440   46.9230    7.5650 C.3   428  ASN428      0.1819
    122  C         46.3020   45.9400    8.2730 C.2   428  ASN428      0.2621
    123  O         46.2460   45.7630    9.5010 O.2   428  ASN428     -0.2715
    124  CB        44.2580   47.4040    8.5010 C.3   428  ASN428      0.1195
    125  CG        43.2920   48.2790    7.7910 C.2   428  ASN428      0.2630
    126  OD1       43.7040   49.0840    6.9770 O.2   428  ASN428     -0.2716
    127  ND2       42.0050   48.0810    8.0280 N.am  428  ASN428     -0.0877
    128  N         47.2010   45.3510    7.4880 N.am  429  TRP429     -0.1960
    129  CA        48.2680   44.4820    7.9850 C.3   429  TRP429      0.1771
    130  C         48.9410   44.9220    9.2440 C.2   429  TRP429      0.2620
    131  O         49.5900   45.9630    9.2700 O.2   429  TRP429     -0.2715
    132  CB        49.3580   44.3860    6.9390 C.3   429  TRP429      0.0590
    133  CG        50.5010   43.4660    7.3020 C.ar  429  TRP429      0.0006
    134  CD1       50.4310   42.2260    7.9180 C.ar  429  TRP429      0.0946
    135  CD2       51.9200   43.6630    7.0300 C.ar  429  TRP429      0.0152
    136  NE1       51.6700   41.6690    8.0570 N.ar  429  TRP429     -0.2442
    137  CE2       52.6070   42.4810    7.5450 C.ar  429  TRP429      0.0810
    138  CE3       52.6670   44.6690    6.4460 C.ar  429  TRP429      0.0012
    139  CZ2       53.9840   42.3440    7.4760 C.ar  429  TRP429      0.0191
    140  CZ3       54.0630   44.5170    6.3700 C.ar  429  TRP429      0.0001
    141  CH2       54.7030   43.3840    6.8730 C.ar  429  TRP429      0.0015
    142  N         48.8210   44.1190   10.2960 N.am  430  GLY430     -0.1940
    143  CA        49.5630   44.3630   11.5290 C.3   430  GLY430      0.2014
    144  C         49.0510   45.4910   12.4050 C.2   430  GLY430      0.2639
    145  O         49.7160   45.8230   13.4190 O.2   430  GLY430     -0.2714
    146  N         47.8800   46.0490   12.0280 N.am  431  CYS431     -0.1953
    147  CA        47.2690   47.1970   12.6880 C.3   431  CYS431      0.1843
    148  C         45.9890   46.7930   13.4100 C.2   431  CYS431      0.2626
    149  O         45.0580   47.5670   13.5320 O.2   431  CYS431     -0.2714
    150  CB        46.9870   48.2780   11.6510 C.3   431  CYS431      0.0997
    151  SG        48.4150   48.7630   10.6320 S.3   431  CYS431     -0.0797
    152  N         45.9470   45.5580   13.8850 N.am  432  GLY432     -0.1940
    153  CA        44.8500   45.0690   14.7210 C.3   432  GLY432      0.2014
    154  C         45.3760   44.5080   16.0320 C.2   432  GLY432      0.2639
    155  O         45.6990   45.2620   16.9500 O.2   432  GLY432     -0.2714
    156  N         45.4760   43.1850   16.1190 N.am  433  ALA433     -0.1963
    157  CA        46.0510   42.5370   17.3000 C.3   433  ALA433      0.1728
    158  C         47.5060   42.9410   17.4890 C.2   433  ALA433      0.2616
    159  O         48.0090   42.9990   18.6150 O.2   433  ALA433     -0.2715
    160  CB        45.9440   41.0270   17.1900 C.3   433  ALA433      0.0334
    161  N         48.1800   43.2330   16.3870 N.am  434  PHE434     -0.1974
    162  CA        49.5770   43.6240   16.4490 C.3   434  PHE434      0.1639
    163  C         49.7610   45.1120   16.6530 C.2   434  PHE434      0.2290
    164  O         50.8910   45.5950   16.7340 O.2   434  PHE434     -0.2864
    165  CB        50.3060   43.1430   15.2000 C.3   434  PHE434      0.0560
    166  CG        50.7980   41.7030   15.2850 C.ar  434  PHE434     -0.0200
    167  CD1       50.2670   40.8100   16.2130 C.ar  434  PHE434     -0.0042
    168  CD2       51.7740   41.2420   14.4170 C.ar  434  PHE434     -0.0042
    169  CE1       50.7210   39.5190   16.2900 C.ar  434  PHE434     -0.0003
    170  CE2       52.2160   39.9460   14.4820 C.ar  434  PHE434     -0.0003
    171  CZ        51.6950   39.0900   15.4230 C.ar  434  PHE434     -0.0000
    172  N         42.2000   47.3320    1.0820 N.3   459  PHE459     -0.1241
    173  CA        40.8680   47.3500    1.6820 C.3   459  PHE459      0.1605
    174  C         40.9840   47.8640    3.0980 C.2   459  PHE459      0.2264
    175  O         41.7090   47.3000    3.9190 O.2   459  PHE459     -0.2867
    176  CB        40.2550   45.9680    1.6590 C.3   459  PHE459      0.0534
    177  CG        40.1390   45.3870    0.2820 C.ar  459  PHE459     -0.0203
    178  CD1       41.2190   44.7690   -0.3080 C.ar  459  PHE459     -0.0042
    179  CD2       38.9480   45.4630   -0.4240 C.ar  459  PHE459     -0.0042
    180  CE1       41.1180   44.2360   -1.5790 C.ar  459  PHE459     -0.0003
    181  CE2       38.8380   44.9230   -1.6910 C.ar  459  PHE459     -0.0003
    182  CZ        39.9250   44.3090   -2.2740 C.ar  459  PHE459     -0.0000
    183  N         38.6960   48.0340    5.2400 N.3   461  PHE461     -0.1241
    184  CA        37.7740   47.3240    6.1020 C.3   461  PHE461      0.1605
    185  C         36.8940   48.2860    6.9020 C.2   461  PHE461      0.2264
    186  O         36.8940   48.3000    8.1330 O.2   461  PHE461     -0.2867
    187  CB        38.5170   46.3740    7.0390 C.3   461  PHE461      0.0534
    188  CG        37.6660   45.2390    7.5100 C.ar  461  PHE461     -0.0203
    189  CD1       36.3210   45.4230    7.8270 C.ar  461  PHE461     -0.0042
    190  CD2       38.1900   43.9900    7.6110 C.ar  461  PHE461     -0.0042
    191  CE1       35.5460   44.3670    8.2480 C.ar  461  PHE461     -0.0003
    192  CE2       37.4280   42.9280    8.0320 C.ar  461  PHE461     -0.0003
    193  CZ        36.1070   43.1140    8.3510 C.ar  461  PHE461     -0.0000
@<TRIPOS>BOND
     1   182   181   ar
     2   182   180   ar
     3    19    18    2
     4   181   179   ar
     5   180   178   ar
     6    11    10    2
     7    18    17    1
     8   179   177   ar
     9     4     3    2
    10   178   177   ar
    11    10     9    1
    12    10    16   am
    13    17    16    1
    14    17    20    1
    15   177   176    1
    16    14    12    1
    17     9    12    1
    18     9     8    1
    19     3     8   am
    20     3     2    1
    21     1     2    1
    22   172   173    1
    23    20    21    1
    24    12    13    1
    25     6     5    1
    26   176   173    1
    27   173   174    1
    28     2     5    1
    29    13    15    1
    30    21    22    1
    31     5     7    1
    32   174   175    2
    33    22    23   ar
    34    22    24   ar
    35   116   117    1
    36   117   118    1
    37   119   118    2
    38   118   120   am
    39   183   184    1
    40    87    88    1
    41    33    35   ar
    42    33    31   ar
    43    95    93   ar
    44    95    97   ar
    45    68    66   am
    46    35    34   ar
    47   184   185    1
    48   184   187    1
    49    93    92   ar
    50   120   121    1
    51    90    89    2
    52   140   138   ar
    53   140   141   ar
    54    98    97    1
    55   138   135   ar
    56    31    30   ar
    57    97    96   ar
    58   141   139   ar
    59   185   186    2
    60   132   133    1
    61   132   129    1
    62   126   125    2
    63   135   133   ar
    64   135   137   ar
    65   187   188    1
    66    34    32   ar
    67    25    26    1
    68    88    89    1
    69    88    91    1
    70    66    67    2
    71    66    65    1
    72   133   134   ar
    73   139   137   ar
    74   128   129    1
    75   128   122   am
    76    92    91    1
    77    92    94   ar
    78   188   190   ar
    79   188   189   ar
    80   137   136   ar
    81   121   122    1
    82   121   124    1
    83   190   192   ar
    84    30    32   ar
    85    30    29    1
    86   125   127   am
    87   125   124    1
    88   189   191   ar
    89    65    64    1
    90   134   136   ar
    91    96    94   ar
    92   129   130    1
    93   192   193   ar
    94    26    29    1
    95    26    27    1
    96   191   193   ar
    97   122   123    2
    98    63    62    2
    99    40    37    1
   100    36    27   am
   101    36    37    1
   102    72    71    2
   103    27    28    2
   104   130   131    2
   105   130   142   am
   106    77    75   ar
   107    62    61    1
   108    62    69   am
   109    64    61    1
   110    70    71    1
   111    70    69    1
   112    70    73    1
   113    37    38    1
   114    74    73    1
   115    74    75    1
   116    61    60    1
   117    71    78   am
   118    75    76   ar
   119   142   143    1
   120    81    80    2
   121   111   112    1
   122   151   150    1
   123    80    79    1
   124    38    39    2
   125    38    41   am
   126   112   115    1
   127   112   113    1
   128    78    79    1
   129    44    43    2
   130    60    55   am
   131   143   144    1
   132    56    55    2
   133   107   105   ar
   134   107   109   ar
   135    41    42    1
   136   150   147    1
   137    79    82    1
   138   105   104   ar
   139   146   144   am
   140   146   147    1
   141    55    54    1
   142    43    42    1
   143   113   114    2
   144   144   145    2
   145   147   148    1
   146   109   110    1
   147   109   108   ar
   148    42    45    1
   149   104   103    1
   150   104   106   ar
   151   103   100    1
   152    99   100    1
   153    49    50    1
   154    82    83    1
   155   100   101    1
   156   148   149    2
   157   148   152   am
   158    54    53    1
   159    54    57    1
   160    85    84   ar
   161   108   106   ar
   162    45    46    1
   163   152   153    1
   164    83    84    1
   165    50    51    1
   166    57    59    1
   167    57    58    1
   168   168   170   ar
   169   168   166   ar
   170    84    86   ar
   171   170   171   ar
   172   101   102    2
   173   153   154    1
   174    46    47    2
   175    46    48   am
   176    51    52    2
   177   165   166    1
   178   165   162    1
   179   166   167   ar
   180   171   169   ar
   181   154   156   am
   182   154   155    2
   183   156   157    1
   184   167   169   ar
   185   161   162    1
   186   161   158   am
   187   162   163    1
   188   163   164    2
   189   160   157    1
   190   157   158    1
   191   158   159    2
