@<TRIPOS>MOLECULE
tmp/3uemA00.pdb
 102 98 0 0 0
SMALL
GASTEIGER

@<TRIPOS>ATOM
      1  N         -1.1270  -18.3810    0.9530 N.3   122  PHE122     -0.1241
      2  CA        -1.1990  -19.6660    0.2800 C.3   122  PHE122      0.1605
      3  C         -2.6400  -20.0020   -0.0950 C.2   122  PHE122      0.2264
      4  O         -3.4950  -20.1810    0.7750 O.2   122  PHE122     -0.2867
      5  CB        -0.6080  -20.7850    1.1400 C.3   122  PHE122      0.0534
      6  CG        -0.4330  -22.0760    0.3980 C.ar  122  PHE122     -0.0203
      7  CD1        0.7570  -22.3510   -0.2710 C.ar  122  PHE122     -0.0042
      8  CD2       -1.4680  -23.0110    0.3410 C.ar  122  PHE122     -0.0042
      9  CE1        0.9220  -23.5470   -0.9750 C.ar  122  PHE122     -0.0003
     10  CE2       -1.3140  -24.2070   -0.3630 C.ar  122  PHE122     -0.0003
     11  CZ        -0.1180  -24.4740   -1.0200 C.ar  122  PHE122     -0.0000
     12  N          4.7290  -20.5060   -5.6240 N.3   130  ILE130     -0.1231
     13  CA         5.3670  -20.8690   -4.3620 C.3   130  ILE130      0.1692
     14  C          6.1120  -22.2050   -4.4770 C.2   130  ILE130      0.2592
     15  O          7.1640  -22.3990   -3.8600 O.2   130  ILE130     -0.2718
     16  CB         4.3200  -20.9070   -3.2020 C.3   130  ILE130      0.0266
     17  CG1        3.6840  -19.5240   -3.0040 C.3   130  ILE130      0.0019
     18  CG2        4.9490  -21.3800   -1.9030 C.3   130  ILE130      0.0020
     19  CD1        2.4470  -19.5120   -2.1160 C.3   130  ILE130      0.0001
     20  N          5.5660  -23.1090   -5.2840 N.am  131  PHE131     -0.1976
     21  CA         6.1610  -24.4220   -5.4980 C.3   131  PHE131      0.1639
     22  C          7.1730  -24.4770   -6.6350 C.2   131  PHE131      0.2290
     23  O          8.0460  -25.3480   -6.6530 O.2   131  PHE131     -0.2864
     24  CB         5.0660  -25.4690   -5.6870 C.3   131  PHE131      0.0560
     25  CG         4.6470  -26.0900   -4.4110 C.ar  131  PHE131     -0.0200
     26  CD1        5.0870  -27.3550   -4.0780 C.ar  131  PHE131     -0.0042
     27  CD2        3.8760  -25.3790   -3.4990 C.ar  131  PHE131     -0.0042
     28  CE1        4.7340  -27.9180   -2.8770 C.ar  131  PHE131     -0.0003
     29  CE2        3.5210  -25.9400   -2.2910 C.ar  131  PHE131     -0.0003
     30  CZ         3.9490  -27.2180   -1.9800 C.ar  131  PHE131     -0.0000
     31  N         11.3620  -21.1630    2.9020 N.3   138  HIS138     -0.1241
     32  CA        10.0650  -20.5480    3.1790 C.3   138  HIS138      0.1621
     33  C          9.7680  -20.5160    4.6690 C.2   138  HIS138      0.2264
     34  O         10.1320  -21.4370    5.4060 O.2   138  HIS138     -0.2867
     35  CB         8.9230  -21.3160    2.5020 C.3   138  HIS138      0.0745
     36  CG         9.0530  -21.4480    1.0190 C.ar  138  HIS138      0.0817
     37  ND1        8.2640  -22.3100    0.2890 N.ar  138  HIS138     -0.2268
     38  CD2        9.8760  -20.8450    0.1270 C.ar  138  HIS138      0.1154
     39  CE1        8.5860  -22.2260   -0.9880 C.ar  138  HIS138      0.1986
     40  NE2        9.5640  -21.3460   -1.1140 N.ar  138  HIS138     -0.2212
     41  N          6.2630  -20.1050    7.0620 N.3   140  LEU140     -0.1245
     42  CA         4.8020  -20.1550    7.0260 C.3   140  LEU140      0.1561
     43  C          4.1880  -19.6570    8.3210 C.2   140  LEU140      0.2260
     44  O          4.3940  -20.2430    9.3780 O.2   140  LEU140     -0.2867
     45  CB         4.3030  -21.5830    6.7650 C.3   140  LEU140      0.0270
     46  CG         3.9960  -22.0270    5.3370 C.3   140  LEU140      0.0019
     47  CD1        5.2830  -22.2130    4.5410 C.3   140  LEU140      0.0001
     48  CD2        3.1970  -23.3180    5.3510 C.3   140  LEU140      0.0001
     49  N          5.2520  -16.6710    3.6800 N.3   171  ILE171     -0.1245
     50  CA         3.9460  -17.2010    3.2990 C.3   171  ILE171      0.1561
     51  C          3.0370  -17.3180    4.5110 C.2   171  ILE171      0.2260
     52  O          3.4660  -17.7530    5.5880 O.2   171  ILE171     -0.2867
     53  CB         4.0780  -18.5920    2.6520 C.3   171  ILE171      0.0252
     54  CG1        4.9710  -18.5160    1.4080 C.3   171  ILE171      0.0019
     55  CG2        2.6980  -19.1690    2.2770 C.3   171  ILE171      0.0019
     56  CD1        5.8190  -19.7480    1.2160 C.3   171  ILE171      0.0001
     57  N         -1.2250  -29.7550    4.9250 N.3   183  ILE183     -0.1245
     58  CA        -0.0520  -28.9000    5.1720 C.3   183  ILE183      0.1561
     59  C          0.1950  -28.7840    6.6770 C.2   183  ILE183      0.2260
     60  O          1.3220  -28.9650    7.1380 O.2   183  ILE183     -0.2867
     61  CB        -0.1900  -27.5170    4.4740 C.3   183  ILE183      0.0252
     62  CG1       -0.0740  -27.6980    2.9580 C.3   183  ILE183      0.0019
     63  CG2        0.8550  -26.5180    4.9860 C.3   183  ILE183      0.0019
     64  CD1       -0.9460  -26.7710    2.1420 C.3   183  ILE183      0.0001
     65  N          1.6860  -32.0010    7.7340 N.3   186  PHE186     -0.1227
     66  CA         3.0560  -32.0620    7.2390 C.3   186  PHE186      0.1736
     67  C          4.0090  -31.2940    8.1410 C.2   186  PHE186      0.2595
     68  O          5.1870  -31.6320    8.2220 O.2   186  PHE186     -0.2718
     69  CB         3.1350  -31.5440    5.8000 C.3   186  PHE186      0.0547
     70  CG         4.4880  -31.7200    5.1560 C.ar  186  PHE186     -0.0202
     71  CD1        5.2990  -30.6180    4.9010 C.ar  186  PHE186     -0.0042
     72  CD2        4.9490  -32.9850    4.8000 C.ar  186  PHE186     -0.0042
     73  CE1        6.5450  -30.7730    4.2970 C.ar  186  PHE186     -0.0003
     74  CE2        6.1970  -33.1530    4.2020 C.ar  186  PHE186     -0.0003
     75  CZ         6.9930  -32.0440    3.9450 C.ar  186  PHE186     -0.0000
     76  N          3.4900  -30.2670    8.8130 N.am  187  PHE187     -0.1976
     77  CA         4.2720  -29.4930    9.7810 C.3   187  PHE187      0.1639
     78  C          4.0060  -29.9250   11.2190 C.2   187  PHE187      0.2290
     79  O          4.4960  -29.3020   12.1610 O.2   187  PHE187     -0.2864
     80  CB         4.0120  -27.9940    9.6120 C.3   187  PHE187      0.0560
     81  CG         4.6560  -27.4100    8.3900 C.ar  187  PHE187     -0.0200
     82  CD1        5.9610  -26.9340    8.4410 C.ar  187  PHE187     -0.0042
     83  CD2        3.9640  -27.3520    7.1830 C.ar  187  PHE187     -0.0042
     84  CE1        6.5690  -26.3950    7.3040 C.ar  187  PHE187     -0.0003
     85  CE2        4.5600  -26.8230    6.0410 C.ar  187  PHE187     -0.0003
     86  CZ         5.8680  -26.3450    6.1040 C.ar  187  PHE187     -0.0000
     87  N         10.7810  -24.0450    6.4170 N.3   200  ILE200     -0.1245
     88  CA        11.2270  -25.1900    5.6220 C.3   200  ILE200      0.1561
     89  C         12.2760  -24.7880    4.5880 C.2   200  ILE200      0.2260
     90  O         12.1690  -23.7460    3.9410 O.2   200  ILE200     -0.2867
     91  CB        10.0240  -25.9310    4.9390 C.3   200  ILE200      0.0252
     92  CG1       10.4810  -27.2360    4.2620 C.3   200  ILE200      0.0019
     93  CG2        9.2790  -25.0030    3.9660 C.3   200  ILE200      0.0019
     94  CD1        9.3450  -28.0980    3.6850 C.3   200  ILE200      0.0001
     95  N         13.9950  -26.1980    1.0650 N.3   202  LEU202     -0.1245
     96  CA        13.6530  -27.1280   -0.0010 C.3   202  LEU202      0.1561
     97  C         14.9130  -27.7170   -0.6510 C.2   202  LEU202      0.2260
     98  O         14.8350  -28.4550   -1.6410 O.2   202  LEU202     -0.2867
     99  CB        12.7150  -26.4580   -1.0150 C.3   202  LEU202      0.0270
    100  CG        11.5040  -25.7160   -0.4220 C.3   202  LEU202      0.0019
    101  CD1       10.8810  -24.7960   -1.4580 C.3   202  LEU202      0.0001
    102  CD2       10.4620  -26.6730    0.1560 C.3   202  LEU202      0.0001
@<TRIPOS>BOND
     1    23    22    2
     2    22    21    1
     3    24    21    1
     4    24    25    1
     5    12    13    1
     6    21    20    1
     7    20    14   am
     8    14    13    1
     9    14    15    2
    10    25    26   ar
    11    25    27   ar
    12    13    16    1
    13    26    28   ar
    14    27    29   ar
    15    16    17    1
    16    16    18    1
    17    17    19    1
    18    28    30   ar
    19    29    30   ar
    20    98    97    2
    21   101   100    1
    22    40    39   ar
    23    40    38   ar
    24    11     9   ar
    25    11    10   ar
    26    99   100    1
    27    99    96    1
    28    39    37   ar
    29     9     7   ar
    30    97    96    1
    31   100   102    1
    32    10     8   ar
    33     7     6   ar
    34     3     2    1
    35     3     4    2
    36    96    95    1
    37    38    36   ar
    38     2     1    1
    39     2     5    1
    40    37    36   ar
    41     8     6   ar
    42     6     5    1
    43    36    35    1
    44    56    54    1
    45    54    53    1
    46    64    62    1
    47    55    53    1
    48    35    32    1
    49    53    50    1
    50    31    32    1
    51    62    61    1
    52    32    33    1
    53    50    49    1
    54    50    51    1
    55    94    92    1
    56    90    89    2
    57    75    74   ar
    58    75    73   ar
    59    93    91    1
    60    74    72   ar
    61    92    91    1
    62    73    71   ar
    63    61    63    1
    64    61    58    1
    65    51    52    2
    66    47    46    1
    67    89    88    1
    68    33    34    2
    69    72    70   ar
    70    71    70   ar
    71    57    58    1
    72    91    88    1
    73    70    69    1
    74    58    59    1
    75    46    48    1
    76    46    45    1
    77    88    87    1
    78    69    66    1
    79    85    86   ar
    80    85    83   ar
    81    86    84   ar
    82    59    60    2
    83    45    42    1
    84    42    41    1
    85    42    43    1
    86    83    81   ar
    87    66    65    1
    88    66    67    1
    89    84    82   ar
    90    67    68    2
    91    67    76   am
    92    43    44    2
    93    81    82   ar
    94    81    80    1
    95    76    77    1
    96    80    77    1
    97    77    78    1
    98    78    79    2
