@<TRIPOS>MOLECULE
tmp/3ueoC00.pdb
 177 173 0 0 0
SMALL
GASTEIGER

@<TRIPOS>ATOM
      1  N         19.4270   27.2500    6.8640 N.3    97  PHE97      -0.1227
      2  CA        18.5050   27.3280    5.7640 C.3    97  PHE97       0.1736
      3  C         17.7760   26.0120    5.5990 C.2    97  PHE97       0.2596
      4  O         18.2400   24.9570    6.0410 O.2    97  PHE97      -0.2718
      5  CB        19.2370   27.6960    4.4780 C.3    97  PHE97       0.0547
      6  CG        19.6870   29.1190    4.4410 C.ar   97  PHE97      -0.0202
      7  CD1       18.8300   30.1210    4.0270 C.ar   97  PHE97      -0.0042
      8  CD2       20.9540   29.4600    4.8380 C.ar   97  PHE97      -0.0042
      9  CE1       19.2330   31.4360    3.9990 C.ar   97  PHE97      -0.0003
     10  CE2       21.3680   30.7640    4.8170 C.ar   97  PHE97      -0.0003
     11  CZ        20.4960   31.7620    4.3980 C.ar   97  PHE97      -0.0000
     12  N         16.6110   26.0850    4.9810 N.am   98  SER98      -0.1938
     13  CA        15.9070   24.8910    4.6060 C.3    98  SER98       0.2055
     14  C         15.1940   25.1830    3.3020 C.2    98  SER98       0.2643
     15  O         14.7630   26.3100    3.0590 O.2    98  SER98      -0.2714
     16  CB        14.9450   24.4710    5.7020 C.3    98  SER98       0.2130
     17  OG        14.1640   23.3650    5.2870 O.3    98  SER98      -0.2179
     18  N         15.1310   24.1750    2.4450 N.am   99  GLN99      -0.1963
     19  CA        14.4370   24.2630    1.1680 C.3    99  GLN99       0.1733
     20  C         15.1510   25.1560    0.1390 C.2    99  GLN99       0.2616
     21  O         14.5780   25.5100   -0.9010 O.2    99  GLN99      -0.2715
     22  CB        12.9710   24.6670    1.3860 C.3    99  GLN99       0.0408
     23  CG        12.2800   23.7990    2.4210 C.3    99  GLN99       0.0908
     24  CD        11.0350   24.4230    2.9990 C.2    99  GLN99       0.2608
     25  OE1       10.7360   25.6000    2.7670 O.2    99  GLN99      -0.2717
     26  NE2       10.3020   23.6420    3.7770 N.am   99  GLN99      -0.0878
     27  N         16.4100   25.4920    0.4200 N.am  100  CYS100     -0.1954
     28  CA        17.2240   26.3120   -0.4970 C.3   100  CYS100      0.1843
     29  C         18.4670   25.5360   -0.9370 C.2   100  CYS100      0.2625
     30  O         19.1550   24.9350   -0.1060 O.2   100  CYS100     -0.2714
     31  CB        17.6640   27.6460    0.1490 C.3   100  CYS100      0.0997
     32  SG        16.3920   28.6150    1.0760 S.3   100  CYS100     -0.0797
     33  N         18.7610   25.5600   -2.2350 N.am  101  ALA101     -0.1977
     34  CA        19.8990   24.8120   -2.7640 C.3   101  ALA101      0.1597
     35  C         20.7590   25.6210   -3.7350 C.2   101  ALA101      0.2287
     36  O         20.3430   26.6700   -4.2270 O.2   101  ALA101     -0.2864
     37  CB        19.4190   23.5400   -3.4360 C.3   101  ALA101      0.0319
     38  N         21.2420   29.4880   -2.4770 N.3   105  LYS105     -0.1245
     39  CA        21.7080   29.2650   -1.1200 C.3   105  LYS105      0.1561
     40  C         23.0640   29.8850   -0.8770 C.2   105  LYS105      0.2260
     41  O         23.3250   30.3650    0.2170 O.2   105  LYS105     -0.2867
     42  CB        21.7900   27.7710   -0.8680 C.3   105  LYS105      0.0271
     43  CG        22.1810   27.3640    0.5280 C.3   105  LYS105      0.0035
     44  CD        22.1200   25.8670    0.5830 C.3   105  LYS105      0.0206
     45  CE        22.3470   25.3070    1.9600 C.3   105  LYS105      0.1093
     46  NZ        22.3680   23.8110    1.8620 N.3   105  LYS105     -0.1314
     47  N         25.0980   24.4580    8.3890 N.3   121  GLU121     -0.1231
     48  CA        24.3600   23.4910    7.5960 C.3   121  GLU121      0.1699
     49  C         23.2500   22.9040    8.4560 C.2   121  GLU121      0.2592
     50  O         22.0880   22.8160    8.0290 O.2   121  GLU121     -0.2718
     51  CB        25.3020   22.4130    7.0690 C.3   121  GLU121      0.0402
     52  CG        24.9010   21.8600    5.7020 C.3   121  GLU121      0.1161
     53  CD        24.7270   22.9470    4.6400 C.2   121  GLU121      0.3649
     54  OE1       25.4710   23.9490    4.6590 O.co2 121  GLU121     -0.2457
     55  OE2       23.8410   22.8000    3.7760 O.co2 121  GLU121     -0.2457
     56  N         23.6210   22.5550    9.6870 N.am  122  TYR122     -0.1962
     57  CA        22.7310   21.9100   10.6510 C.3   122  TYR122      0.1771
     58  C         21.9270   22.9020   11.5020 C.2   122  TYR122      0.2620
     59  O         22.4850   23.8290   12.0710 O.2   122  TYR122     -0.2715
     60  CB        23.5400   21.0080   11.5890 C.3   122  TYR122      0.0574
     61  CG        23.7970   19.6040   11.0880 C.ar  122  TYR122     -0.0198
     62  CD1       23.1380   18.5170   11.6560 C.ar  122  TYR122     -0.0009
     63  CD2       24.7260   19.3530   10.0740 C.ar  122  TYR122     -0.0009
     64  CE1       23.3780   17.2240   11.2190 C.ar  122  TYR122      0.0417
     65  CE2       24.9710   18.0640    9.6290 C.ar  122  TYR122      0.0417
     66  CZ        24.2920   17.0000   10.2050 C.ar  122  TYR122      0.1957
     67  OH        24.5130   15.7020    9.7740 O.3   122  TYR122     -0.2866
     68  N         20.6200   22.6720   11.5930 N.am  123  PHE123     -0.1960
     69  CA        19.7570   23.3650   12.5340 C.3   123  PHE123      0.1771
     70  C         19.9420   22.6630   13.8750 C.2   123  PHE123      0.2619
     71  O         19.7800   21.4620   13.9700 O.2   123  PHE123     -0.2715
     72  CB        18.3120   23.2910   12.0520 C.3   123  PHE123      0.0574
     73  CG        17.3820   24.2330   12.7490 C.ar  123  PHE123     -0.0200
     74  CD1       17.6120   25.6010   12.7350 C.ar  123  PHE123     -0.0042
     75  CD2       16.2460   23.7500   13.3970 C.ar  123  PHE123     -0.0042
     76  CE1       16.7230   26.4760   13.3810 C.ar  123  PHE123     -0.0003
     77  CE2       15.3680   24.6090   14.0410 C.ar  123  PHE123     -0.0003
     78  CZ        15.5980   25.9710   14.0290 C.ar  123  PHE123     -0.0000
     79  N         20.3020   23.4200   14.9070 N.am  124  VAL124     -0.1963
     80  CA        20.8480   22.8590   16.1410 C.3   124  VAL124      0.1727
     81  C         20.2200   23.5340   17.3460 C.2   124  VAL124      0.2616
     82  O         20.2060   24.7600   17.4530 O.2   124  VAL124     -0.2715
     83  CB        22.3610   23.1010   16.2040 C.3   124  VAL124      0.0290
     84  CG1       22.9120   22.6580   17.5320 C.3   124  VAL124      0.0023
     85  CG2       23.0650   22.4080   15.0290 C.3   124  VAL124      0.0023
     86  N         19.7070   22.7330   18.2630 N.am  125  ARG125     -0.1963
     87  CA        18.9040   23.2550   19.3620 C.3   125  ARG125      0.1729
     88  C         19.8050   23.6920   20.5100 C.2   125  ARG125      0.2616
     89  O         19.6230   24.7770   21.0550 O.2   125  ARG125     -0.2715
     90  CB        17.8820   22.1940   19.8200 C.3   125  ARG125      0.0348
     91  CG        17.0550   22.5750   21.0240 C.3   125  ARG125      0.0492
     92  CD        16.2070   21.4050   21.4960 C.3   125  ARG125      0.2205
     93  NE        15.4930   21.7500   22.7170 N.pl3 125  ARG125     -0.0865
     94  CZ        14.2670   21.3330   23.0100 C.cat 125  ARG125      0.5346
     95  NH1       13.6220   20.5410   22.1720 N.pl3 125  ARG125      0.1354
     96  NH2       13.6860   21.7070   24.1420 N.pl3 125  ARG125      0.1354
     97  N         20.7850   22.8520   20.8450 N.am  126  LYS126     -0.1977
     98  CA        21.7260   23.1140   21.9240 C.3   126  LYS126      0.1596
     99  C         23.1410   23.1020   21.3610 C.2   126  LYS126      0.2287
    100  O         23.4600   22.2690   20.5350 O.2   126  LYS126     -0.2864
    101  CB        21.5800   22.0520   23.0140 C.3   126  LYS126      0.0298
    102  CG        22.3190   22.3750   24.3120 C.3   126  LYS126      0.0038
    103  CD        22.5640   21.1190   25.1860 C.3   126  LYS126      0.0206
    104  CE        23.6930   20.2200   24.6310 C.3   126  LYS126      0.1093
    105  NZ        23.8870   18.9600   25.4050 N.3   126  LYS126     -0.1314
    106  N         26.8940   22.2490   20.9420 N.3   128  ASN128     -0.1240
    107  CA        27.7110   21.1020   21.3070 C.3   128  ASN128      0.1653
    108  C         29.1590   21.2980   20.8620 C.2   128  ASN128      0.2266
    109  O         29.4590   21.2170   19.6720 O.2   128  ASN128     -0.2867
    110  CB        27.1270   19.8120   20.7300 C.3   128  ASN128      0.1155
    111  CG        27.7530   18.5800   21.3490 C.2   128  ASN128      0.2627
    112  OD1       28.7120   18.0170   20.8120 O.2   128  ASN128     -0.2716
    113  ND2       27.2420   18.1810   22.5140 N.am  128  ASN128     -0.0877
    114  N         30.9060   18.3280   19.0750 N.3   131  LYS131     -0.1245
    115  CA        30.4250   18.1970   17.6970 C.3   131  LYS131      0.1561
    116  C         30.7890   19.3830   16.7900 C.2   131  LYS131      0.2260
    117  O         30.7250   19.2630   15.5650 O.2   131  LYS131     -0.2867
    118  CB        28.9070   18.0300   17.6750 C.3   131  LYS131      0.0271
    119  CG        28.3850   16.6320   17.9790 C.3   131  LYS131      0.0035
    120  CD        26.8440   16.6230   17.9750 C.3   131  LYS131      0.0206
    121  CE        26.2580   15.2110   17.8570 C.3   131  LYS131      0.1093
    122  NZ        26.2770   14.6810   16.4560 N.3   131  LYS131     -0.1314
    123  N         28.9630   22.2750   16.8440 N.3   133  MET133     -0.1245
    124  CA        27.7250   22.9510   16.4560 C.3   133  MET133      0.1570
    125  C         27.2910   23.9980   17.4710 C.2   133  MET133      0.2261
    126  O         27.1510   23.7030   18.6580 O.2   133  MET133     -0.2867
    127  CB        26.5840   21.9460   16.3230 C.3   133  MET133      0.0387
    128  CG        26.8140   20.8300   15.3230 C.3   133  MET133      0.0595
    129  SD        25.8480   19.3710   15.7520 S.3   133  MET133     -0.1393
    130  CE        26.2320   18.2790   14.3800 C.3   133  MET133      0.0692
    131  N          8.7840   19.7530    6.2350 N.3   146  GLY146     -0.1210
    132  CA        10.1120   19.2160    6.4190 C.3   146  GLY146      0.1956
    133  C         10.5780   19.2230    7.8540 C.2   146  GLY146      0.2613
    134  O         10.0030   19.9190    8.6990 O.2   146  GLY146     -0.2717
    135  N         11.6420   18.4610    8.1090 N.am  147  SER147     -0.1938
    136  CA        12.1690   18.2400    9.4560 C.3   147  SER147      0.2055
    137  C         12.7940   19.4860   10.0850 C.2   147  SER147      0.2642
    138  O         12.7890   19.6410   11.3000 O.2   147  SER147     -0.2714
    139  CB        13.1670   17.0760    9.4390 C.3   147  SER147      0.2130
    140  OG        12.8000   16.1310    8.4360 O.3   147  SER147     -0.2179
    141  N         13.3320   20.3850    9.2740 N.am  148  LYS148     -0.1977
    142  CA        13.9240   21.5850    9.8700 C.3   148  LYS148      0.1596
    143  C         12.8340   22.4630   10.4500 C.2   148  LYS148      0.2287
    144  O         12.9140   22.8670   11.6060 O.2   148  LYS148     -0.2864
    145  CB        14.8230   22.3350    8.8910 C.3   148  LYS148      0.0298
    146  CG        16.2720   21.8150    8.9080 C.3   148  LYS148      0.0038
    147  CD        17.1840   22.6850    8.0390 C.3   148  LYS148      0.0206
    148  CE        18.5790   22.0870    7.8970 C.3   148  LYS148      0.1093
    149  NZ        19.5370   23.0370    7.2230 N.3   148  LYS148     -0.1314
    150  N         11.3430   20.9870   13.7020 N.3   151  ALA151     -0.1245
    151  CA        12.2150   21.2370   14.8370 C.3   151  ALA151      0.1562
    152  C         12.0310   22.6820   15.3050 C.2   151  ALA151      0.2260
    153  O         11.9640   22.9540   16.5060 O.2   151  ALA151     -0.2867
    154  CB        13.6760   20.9710   14.4620 C.3   151  ALA151      0.0290
    155  N          8.9500   22.9420   17.2990 N.3   154  LYS154     -0.1231
    156  CA         9.0380   22.1670   18.5320 C.3   154  LYS154      0.1693
    157  C          9.9910   22.8810   19.4890 C.2   154  LYS154      0.2592
    158  O          9.7820   22.9250   20.6990 O.2   154  LYS154     -0.2718
    159  CB         9.4620   20.7200   18.2160 C.3   154  LYS154      0.0285
    160  CG         9.9780   19.9100   19.4130 C.3   154  LYS154      0.0035
    161  CD        10.2540   18.4330   19.0510 C.3   154  LYS154      0.0206
    162  CE        10.8960   17.6710   20.2260 C.3   154  LYS154      0.1093
    163  NZ        11.0530   16.1870   20.0220 N.3   154  LYS154     -0.1314
    164  N         11.0180   23.4950   18.9270 N.am  155  TRP155     -0.1976
    165  CA        12.0130   24.1830   19.7420 C.3   155  TRP155      0.1640
    166  C         11.6300   25.6280   20.0870 C.2   155  TRP155      0.2290
    167  O         12.3290   26.2660   20.8840 O.2   155  TRP155     -0.2864
    168  CB        13.3690   24.1590   19.0490 C.3   155  TRP155      0.0576
    169  CG        13.8960   22.7730   18.8210 C.ar  155  TRP155      0.0006
    170  CD1       13.4600   21.6190   19.4020 C.ar  155  TRP155      0.0946
    171  CD2       14.9620   22.4010   17.9390 C.ar  155  TRP155      0.0152
    172  NE1       14.1870   20.5520   18.9400 N.ar  155  TRP155     -0.2442
    173  CE2       15.1170   21.0070   18.0390 C.ar  155  TRP155      0.0810
    174  CE3       15.8060   23.1170   17.0790 C.ar  155  TRP155      0.0012
    175  CZ2       16.0850   20.3090   17.3080 C.ar  155  TRP155      0.0191
    176  CZ3       16.7550   22.4330   16.3620 C.ar  155  TRP155      0.0001
    177  CH2       16.8890   21.0380   16.4740 C.ar  155  TRP155      0.0015
@<TRIPOS>BOND
     1    36    35    2
     2    35    34    1
     3    37    34    1
     4    34    33    1
     5    38    39    1
     6    33    29   am
     7    39    40    1
     8    39    42    1
     9    29    28    1
    10    29    30    2
    11    21    20    2
    12    40    41    2
    13    42    43    1
    14    28    31    1
    15    28    27    1
    16    20    27   am
    17    20    19    1
    18    31    32    1
    19    43    44    1
    20    44    45    1
    21    19    22    1
    22    19    18    1
    23    22    23    1
    24    46    45    1
    25    23    24    1
    26    18    14   am
    27    25    24    2
    28    24    26   am
    29    15    14    2
    30    14    13    1
    31    55    53   ar
    32     9     7   ar
    33     9    11   ar
    34     7     6   ar
    35    11    10   ar
    36     6     5    1
    37     6     8   ar
    38     5     2    1
    39    13    12    1
    40    13    16    1
    41    53    54   ar
    42    53    52    1
    43    10     8   ar
    44    12     3   am
    45    17    16    1
    46     3     2    1
    47     3     4    2
    48    52    51    1
    49     2     1    1
    50   131   132    1
    51   132   133    1
    52    51    48    1
    53   149   148    1
    54    48    47    1
    55    48    49    1
    56   133   135   am
    57   133   134    2
    58   148   147    1
    59    50    49    2
    60   147   146    1
    61   135   136    1
    62   140   139    1
    63    49    56   am
    64   145   146    1
    65   145   142    1
    66   141   142    1
    67   141   137   am
    68   139   136    1
    69   136   137    1
    70    65    63   ar
    71    65    66   ar
    72    56    57    1
    73    67    66    1
    74   142   143    1
    75    63    61   ar
    76   137   138    2
    77    66    64   ar
    78   143   144    2
    79    57    58    1
    80    57    60    1
    81    61    60    1
    82    61    62   ar
    83    64    62   ar
    84    58    68   am
    85    58    59    2
    86    68    69    1
    87    72    69    1
    88    72    73    1
    89    69    70    1
    90    74    73   ar
    91    74    76   ar
    92    73    75   ar
    93    76    78   ar
    94    75    77   ar
    95   150   151    1
    96    70    71    2
    97    70    79   am
    98    78    77   ar
    99   130   129    1
   100   154   151    1
   101   151   152    1
   102    79    80    1
   103    85    83    1
   104   152   153    2
   105   128   129    1
   106   128   127    1
   107   117   116    2
   108    80    83    1
   109    80    81    1
   110    83    84    1
   111   127   124    1
   112   176   177   ar
   113   176   174   ar
   114   124   123    1
   115   124   125    1
   116   122   121    1
   117   177   175   ar
   118   116   115    1
   119   174   171   ar
   120   155   156    1
   121   175   173   ar
   122    81    82    2
   123    81    86   am
   124   125   126    2
   125   118   115    1
   126   118   119    1
   127   115   114    1
   128   121   120    1
   129   171   173   ar
   130   171   169   ar
   131   120   119    1
   132   173   172   ar
   133   159   156    1
   134   159   160    1
   135    86    87    1
   136   156   157    1
   137   169   168    1
   138   169   170   ar
   139   164   157   am
   140   164   165    1
   141   172   170   ar
   142   168   165    1
   143   161   160    1
   144   161   162    1
   145    87    90    1
   146    87    88    1
   147   157   158    2
   148   109   108    2
   149   165   166    1
   150    90    91    1
   151   163   162    1
   152   166   167    2
   153    88    97   am
   154    88    89    2
   155   100    99    2
   156   110   107    1
   157   110   111    1
   158   112   111    2
   159    97    98    1
   160   108   107    1
   161   106   107    1
   162    91    92    1
   163   111   113   am
   164    99    98    1
   165    92    93    1
   166    98   101    1
   167    95    94    1
   168    93    94    2
   169    94    96    1
   170   101   102    1
   171   102   103    1
   172   104   103    1
   173   104   105    1
