@<TRIPOS>MOLECULE
tmp/3ueoA00.pdb
 93 90 0 0 0
SMALL
GASTEIGER

@<TRIPOS>ATOM
      1  N         14.4310    5.4340    6.7140 N.3    98  PHE98      -0.1227
      2  CA        13.8240    6.3830    5.7950 C.3    98  PHE98       0.1736
      3  C         14.7200    7.5850    5.7070 C.2    98  PHE98       0.2596
      4  O         15.3930    7.9280    6.6660 O.2    98  PHE98      -0.2718
      5  CB        12.4240    6.8050    6.2410 C.3    98  PHE98       0.0547
      6  CG        11.4440    5.6800    6.2930 C.ar   98  PHE98      -0.0202
      7  CD1       10.8170    5.2380    5.1420 C.ar   98  PHE98      -0.0042
      8  CD2       11.1490    5.0560    7.4950 C.ar   98  PHE98      -0.0042
      9  CE1        9.9200    4.1790    5.1850 C.ar   98  PHE98      -0.0003
     10  CE2       10.2500    3.9970    7.5400 C.ar   98  PHE98      -0.0003
     11  CZ         9.6410    3.5600    6.3890 C.ar   98  PHE98      -0.0000
     12  N         14.7330    8.2000    4.5350 N.am   99  SER99      -0.1938
     13  CA        15.3930    9.4700    4.3170 C.3    99  SER99       0.2055
     14  C         14.3530   10.3820    3.6740 C.2    99  SER99       0.2643
     15  O         13.4330    9.8930    3.0190 O.2    99  SER99      -0.2714
     16  CB        16.6000    9.2850    3.3900 C.3    99  SER99       0.2130
     17  OG        17.2290   10.5130    3.0750 O.3    99  SER99      -0.2179
     18  N         14.4820   11.6910    3.8940 N.am  100  GLN100     -0.1963
     19  CA        13.6890   12.6820    3.1950 C.3   100  GLN100      0.1733
     20  C         12.1990   12.6390    3.5310 C.2   100  GLN100      0.2616
     21  O         11.3850   13.2010    2.7990 O.2   100  GLN100     -0.2715
     22  CB        13.9060   12.5390    1.6900 C.3   100  GLN100      0.0408
     23  CG        15.3740   12.6200    1.3140 C.3   100  GLN100      0.0908
     24  CD        15.6500   12.1530   -0.0960 C.2   100  GLN100      0.2608
     25  OE1       14.7640   11.6450   -0.7800 O.2   100  GLN100     -0.2717
     26  NE2       16.8830   12.3150   -0.5360 N.am  100  GLN100     -0.0878
     27  N         11.8460   11.9680    4.6280 N.am  101  CYS101     -0.1968
     28  CA        10.4490   11.8390    5.0640 C.3   101  CYS101      0.1712
     29  C         10.3020   12.4710    6.4390 C.2   101  CYS101      0.2296
     30  O         11.1570   12.3060    7.3050 O.2   101  CYS101     -0.2864
     31  CB        10.0140   10.3600    5.1510 C.3   101  CYS101      0.0983
     32  SG        10.0560    9.4360    3.6030 S.3   101  CYS101     -0.0798
     33  N          6.0430   10.1230    7.8390 N.3   106  LYS106     -0.1245
     34  CA         7.0540    9.2130    8.3300 C.3   106  LYS106      0.1561
     35  C          6.5150    8.2460    9.3740 C.2   106  LYS106      0.2260
     36  O          6.8820    7.0830    9.3630 O.2   106  LYS106     -0.2867
     37  CB         8.2530    9.9910    8.8640 C.3   106  LYS106      0.0271
     38  CG         9.4300    9.1340    9.2430 C.3   106  LYS106      0.0035
     39  CD        10.6260    9.9750    9.6460 C.3   106  LYS106      0.0206
     40  CE        11.6190    9.1130   10.3950 C.3   106  LYS106      0.1093
     41  NZ        12.9030    9.7910   10.6870 N.3   106  LYS106     -0.1314
     42  N         16.3400    4.4470   12.9740 N.3   122  GLU122     -0.1245
     43  CA        16.6060    5.8740   12.7700 C.3   122  GLU122      0.1567
     44  C         17.8860    6.1050   11.9690 C.2   122  GLU122      0.2260
     45  O         17.9010    6.8980   11.0130 O.2   122  GLU122     -0.2867
     46  CB        16.6750    6.6230   14.1010 C.3   122  GLU122      0.0388
     47  CG        16.7470    8.1350   13.9340 C.3   122  GLU122      0.1160
     48  CD        15.8440    8.6520   12.8060 C.2   122  GLU122      0.3649
     49  OE1       14.6140    8.3750   12.8330 O.co2 122  GLU122     -0.2457
     50  OE2       16.3740    9.3360   11.8940 O.co2 122  GLU122     -0.2457
     51  N         14.0380   11.1580   -3.2510 N.3   144  GLU144     -0.1231
     52  CA        14.7540   11.7420   -4.3830 C.3   144  GLU144      0.1699
     53  C         16.2400   11.4090   -4.3680 C.2   144  GLU144      0.2592
     54  O         16.7870   11.1120   -3.3120 O.2   144  GLU144     -0.2718
     55  CB        14.5590   13.2620   -4.3910 C.3   144  GLU144      0.0402
     56  CG        15.2380   13.9720   -3.2380 C.3   144  GLU144      0.1161
     57  CD        15.0840   15.4720   -3.3130 C.2   144  GLU144      0.3649
     58  OE1       15.4360   16.1590   -2.3310 O.co2 144  GLU144     -0.2457
     59  OE2       14.6050   15.9610   -4.3570 O.co2 144  GLU144     -0.2457
     60  N         16.8870   11.4760   -5.5340 N.am  145  ARG145     -0.1966
     61  CA        18.3190   11.1710   -5.6420 C.3   145  ARG145      0.1729
     62  C         19.1460   12.2440   -4.9690 C.2   145  ARG145      0.2617
     63  O         19.2470   13.3550   -5.4780 O.2   145  ARG145     -0.2715
     64  CB        18.7690   11.0630   -7.1070 C.3   145  ARG145      0.0348
     65  CG        18.7920    9.6580   -7.6820 C.3   145  ARG145      0.0492
     66  CD        19.3450    9.6380   -9.1060 C.3   145  ARG145      0.2205
     67  NE        18.6290   10.5560   -9.9860 N.pl3 145  ARG145     -0.0865
     68  CZ        17.4340   10.3150  -10.5280 C.cat 145  ARG145      0.5346
     69  NH1       16.8030    9.1740  -10.2860 N.pl3 145  ARG145      0.1354
     70  NH2       16.8610   11.2220  -11.3140 N.pl3 145  ARG145      0.1354
     71  N         19.7430   11.9190   -3.8290 N.am  146  GLY146     -0.1940
     72  CA        20.5750   12.8820   -3.1370 C.3   146  GLY146      0.2014
     73  C         20.5880   12.7490   -1.6290 C.2   146  GLY146      0.2639
     74  O         19.7150   12.1060   -1.0370 O.2   146  GLY146     -0.2714
     75  N         21.6020   13.3530   -1.0110 N.am  147  GLY147     -0.1939
     76  CA        21.7380   13.3260    0.4290 C.3   147  GLY147      0.2014
     77  C         22.6360   12.2340    0.9760 C.2   147  GLY147      0.2640
     78  O         22.8780   11.2070    0.3350 O.2   147  GLY147     -0.2714
     79  N         23.1010   12.4720    2.1950 N.am  148  SER148     -0.1935
     80  CA        24.0530   11.6310    2.9040 C.3   148  SER148      0.2055
     81  C         23.7470   10.1200    2.8570 C.2   148  SER148      0.2642
     82  O         24.5970    9.3160    2.4960 O.2   148  SER148     -0.2714
     83  CB        24.0930   12.1110    4.3500 C.3   148  SER148      0.2130
     84  OG        25.1370   11.4850    5.0520 O.3   148  SER148     -0.2179
     85  N         22.5200    9.7570    3.2210 N.am  149  LYS149     -0.1977
     86  CA        22.0890    8.3660    3.2700 C.3   149  LYS149      0.1596
     87  C         22.0930    7.7410    1.8870 C.2   149  LYS149      0.2287
     88  O         22.5620    6.6170    1.7080 O.2   149  LYS149     -0.2864
     89  CB        20.6970    8.2420    3.9010 C.3   149  LYS149      0.0298
     90  CG        20.6530    8.5730    5.3860 C.3   149  LYS149      0.0038
     91  CD        19.2600    8.4560    5.9730 C.3   149  LYS149      0.0206
     92  CE        19.2690    8.9590    7.4180 C.3   149  LYS149      0.1093
     93  NZ        17.9140    9.2700    7.9910 N.3   149  LYS149     -0.1314
@<TRIPOS>BOND
     1    70    68    1
     2    68    69    1
     3    68    67    2
     4    67    66    1
     5    66    65    1
     6    65    64    1
     7    64    61    1
     8    61    60    1
     9    61    62    1
    10    60    53   am
    11    63    62    2
    12    62    71   am
    13    55    52    1
    14    55    56    1
    15    52    53    1
    16    52    51    1
    17    53    54    2
    18    59    57   ar
    19    71    72    1
    20    57    56    1
    21    57    58   ar
    22    72    73    1
    23    73    74    2
    24    73    75   am
    25    75    76    1
    26    25    24    2
    27    26    24   am
    28    24    23    1
    29    78    77    2
    30    76    77    1
    31    77    79   am
    32    23    22    1
    33    22    19    1
    34    88    87    2
    35    87    86    1
    36    79    80    1
    37    82    81    2
    38    21    20    2
    39    81    80    1
    40    81    85   am
    41    80    83    1
    42    15    14    2
    43    17    16    1
    44    19    20    1
    45    19    18    1
    46    85    86    1
    47    86    89    1
    48    16    13    1
    49    20    27   am
    50    32    31    1
    51    14    18   am
    52    14    13    1
    53    89    90    1
    54    13    12    1
    55    83    84    1
    56    12     3   am
    57    27    28    1
    58    28    31    1
    59    28    29    1
    60     7     9   ar
    61     7     6   ar
    62     9    11   ar
    63    90    91    1
    64     3     2    1
    65     3     4    2
    66     2     5    1
    67     2     1    1
    68    91    92    1
    69     5     6    1
    70     6     8   ar
    71    11    10   ar
    72    29    30    2
    73    92    93    1
    74     8    10   ar
    75    33    34    1
    76    34    37    1
    77    34    35    1
    78    37    38    1
    79    38    39    1
    80    36    35    2
    81    39    40    1
    82    40    41    1
    83    45    44    2
    84    50    48   ar
    85    44    43    1
    86    43    42    1
    87    43    46    1
    88    48    49   ar
    89    48    47    1
    90    47    46    1
