@<TRIPOS>MOLECULE
tmp/3ueoB00.pdb
 102 99 0 0 0
SMALL
GASTEIGER

@<TRIPOS>ATOM
      1  N        -15.7390   24.8370   29.6470 N.3    98  PHE98      -0.1227
      2  CA       -14.6330   24.6830   30.5630 C.3    98  PHE98       0.1736
      3  C        -13.9060   26.0030   30.6550 C.2    98  PHE98       0.2596
      4  O        -13.8670   26.7690   29.6930 O.2    98  PHE98      -0.2718
      5  CB       -13.6720   23.5850   30.1010 C.3    98  PHE98       0.0547
      6  CG       -14.2910   22.2150   30.0500 C.ar   98  PHE98      -0.0202
      7  CD1      -14.4320   21.4620   31.2030 C.ar   98  PHE98      -0.0042
      8  CD2      -14.7100   21.6790   28.8420 C.ar   98  PHE98      -0.0042
      9  CE1      -15.0110   20.1910   31.1620 C.ar   98  PHE98      -0.0003
     10  CE2      -15.2740   20.4130   28.7830 C.ar   98  PHE98      -0.0003
     11  CZ       -15.4400   19.6620   29.9470 C.ar   98  PHE98      -0.0000
     12  N        -13.3430   26.2600   31.8280 N.am   99  SER99      -0.1938
     13  CA       -12.4600   27.3750   32.0360 C.3    99  SER99       0.2055
     14  C        -11.1910   26.7980   32.6790 C.2    99  SER99       0.2643
     15  O        -11.2480   25.7470   33.3230 O.2    99  SER99      -0.2714
     16  CB       -13.1190   28.3800   32.9690 C.3    99  SER99       0.2130
     17  OG       -12.2290   29.4220   33.3150 O.3    99  SER99      -0.2179
     18  N        -10.0600   27.4800   32.4820 N.am  100  GLN100     -0.1963
     19  CA        -8.8150   27.1740   33.1670 C.3   100  GLN100      0.1733
     20  C         -8.2360   25.7970   32.8230 C.2   100  GLN100      0.2616
     21  O         -7.3430   25.3090   33.5200 O.2   100  GLN100     -0.2715
     22  CB        -9.0100   27.3230   34.6740 C.3   100  GLN100      0.0408
     23  CG        -9.5430   28.6940   35.0510 C.3   100  GLN100      0.0908
     24  CD       -10.1170   28.7410   36.4500 C.2   100  GLN100      0.2608
     25  OE1      -10.2430   27.7150   37.1260 O.2   100  GLN100     -0.2717
     26  NE2      -10.4780   29.9350   36.8920 N.am  100  GLN100     -0.0878
     27  N         -8.7390   25.1760   31.7540 N.am  101  CYS101     -0.1968
     28  CA        -8.2640   23.8530   31.3040 C.3   101  CYS101      0.1712
     29  C         -7.6070   24.0100   29.9430 C.2   101  CYS101      0.2296
     30  O         -8.0930   24.7670   29.0980 O.2   101  CYS101     -0.2864
     31  CB        -9.4230   22.8480   31.1940 C.3   101  CYS101      0.0983
     32  SG       -10.2980   22.4810   32.7510 S.3   101  CYS101     -0.0798
     33  N         -7.9830   19.1500   28.5200 N.3   106  LYS106     -0.1245
     34  CA        -9.2380   19.6900   28.0300 C.3   106  LYS106      0.1561
     35  C         -9.8790   18.7910   26.9840 C.2   106  LYS106      0.2260
     36  O        -11.0860   18.6130   26.9860 O.2   106  LYS106     -0.2867
     37  CB        -9.0220   21.0930   27.4780 C.3   106  LYS106      0.0271
     38  CG       -10.2870   21.8010   27.0770 C.3   106  LYS106      0.0035
     39  CD        -9.9940   23.2510   26.6840 C.3   106  LYS106      0.0206
     40  CE       -11.2010   23.8170   25.9590 C.3   106  LYS106      0.1093
     41  NZ       -11.1190   25.2950   25.6800 N.3   106  LYS106     -0.1314
     42  N        -17.3940   26.1680   23.3780 N.3   122  GLU122     -0.1245
     43  CA       -16.2160   27.0060   23.5880 C.3   122  GLU122      0.1567
     44  C        -16.5520   28.2590   24.3890 C.2   122  GLU122      0.2260
     45  O        -15.8470   28.5970   25.3440 O.2   122  GLU122     -0.2867
     46  CB       -15.5590   27.3950   22.2600 C.3   122  GLU122      0.0388
     47  CG       -14.2060   28.0900   22.4350 C.3   122  GLU122      0.1160
     48  CD       -13.3620   27.4730   23.5590 C.2   122  GLU122      0.3649
     49  OE1      -13.0900   26.2430   23.5300 O.co2 122  GLU122     -0.2457
     50  OE2      -12.9750   28.2280   24.4760 O.co2 122  GLU122     -0.2457
     51  N        -11.1890   25.0860   37.4470 N.3   143  LYS143     -0.1231
     52  CA       -10.2100   24.6600   38.4430 C.3   143  LYS143      0.1693
     53  C        -10.1140   25.5390   39.7070 C.2   143  LYS143      0.2592
     54  O         -9.8170   25.0270   40.7840 O.2   143  LYS143     -0.2718
     55  CB        -8.8400   24.5290   37.7890 C.3   143  LYS143      0.0285
     56  CG        -8.7040   23.3060   36.8710 C.3   143  LYS143      0.0035
     57  CD        -7.3210   23.2700   36.2170 C.3   143  LYS143      0.0206
     58  CE        -7.1460   22.0540   35.3110 C.3   143  LYS143      0.1093
     59  NZ        -7.0140   20.7590   36.0650 N.3   143  LYS143     -0.1314
     60  N        -10.3680   26.8430   39.5960 N.am  144  GLU144     -0.1966
     61  CA       -10.1530   27.7280   40.7310 C.3   144  GLU144      0.1733
     62  C        -11.0880   28.9390   40.7210 C.2   144  GLU144      0.2616
     63  O        -11.6100   29.3180   39.6760 O.2   144  GLU144     -0.2715
     64  CB        -8.6950   28.1860   40.7510 C.3   144  GLU144      0.0429
     65  CG        -8.3170   29.1000   39.5940 C.3   144  GLU144      0.1163
     66  CD        -6.8810   29.5730   39.6740 C.2   144  GLU144      0.3649
     67  OE1       -6.3940   30.1820   38.6940 O.co2 144  GLU144     -0.2457
     68  OE2       -6.2450   29.3290   40.7220 O.co2 144  GLU144     -0.2457
     69  N        -11.2960   29.5470   41.8910 N.am  145  ARG145     -0.1963
     70  CA       -12.1540   30.7390   42.0140 C.3   145  ARG145      0.1729
     71  C        -11.5260   31.9600   41.3510 C.2   145  ARG145      0.2617
     72  O        -10.5490   32.5170   41.8590 O.2   145  ARG145     -0.2715
     73  CB       -12.4210   31.0800   43.4810 C.3   145  ARG145      0.0348
     74  CG       -13.6940   30.5070   44.0510 C.3   145  ARG145      0.0492
     75  CD       -13.9520   31.0170   45.4710 C.3   145  ARG145      0.2205
     76  NE       -12.8190   30.7540   46.3530 N.pl3 145  ARG145     -0.0865
     77  CZ       -12.5360   29.5650   46.8840 C.cat 145  ARG145      0.5346
     78  NH1      -13.3050   28.5170   46.6310 N.pl3 145  ARG145      0.1354
     79  NH2      -11.4760   29.4190   47.6690 N.pl3 145  ARG145      0.1354
     80  N        -12.0850   32.3850   40.2240 N.am  146  GLY146     -0.1940
     81  CA       -11.5530   33.5380   39.5270 C.3   146  GLY146      0.2014
     82  C        -11.6510   33.4760   38.0140 C.2   146  GLY146      0.2639
     83  O        -11.8250   32.4030   37.4220 O.2   146  GLY146     -0.2714
     84  N        -11.5330   34.6440   37.3860 N.am  147  GLY147     -0.1939
     85  CA       -11.6010   34.7330   35.9420 C.3   147  GLY147      0.2014
     86  C        -12.9660   35.1180   35.4000 C.2   147  GLY147      0.2640
     87  O        -14.0030   34.9340   36.0430 O.2   147  GLY147     -0.2714
     88  N        -12.9400   35.6440   34.1830 N.am  148  SER148     -0.1935
     89  CA       -14.0990   36.1680   33.4750 C.3   148  SER148      0.2055
     90  C        -15.3370   35.2580   33.5150 C.2   148  SER148      0.2642
     91  O        -16.4340   35.6890   33.8840 O.2   148  SER148     -0.2714
     92  CB       -13.6780   36.4020   32.0260 C.3   148  SER148      0.2130
     93  OG       -14.6740   37.1020   31.3250 O.3   148  SER148     -0.2179
     94  N        -15.1520   33.9950   33.1360 N.am  149  LYS149     -0.1977
     95  CA       -16.2430   33.0310   33.0840 C.3   149  LYS149      0.1596
     96  C        -16.8150   32.7780   34.4720 C.2   149  LYS149      0.2287
     97  O        -18.0270   32.7190   34.6540 O.2   149  LYS149     -0.2864
     98  CB       -15.7660   31.7170   32.4470 C.3   149  LYS149      0.0298
     99  CG       -15.3740   31.8420   30.9770 C.3   149  LYS149      0.0038
    100  CD       -14.9560   30.5090   30.3770 C.3   149  LYS149      0.0206
    101  CE       -14.4920   30.7280   28.9420 C.3   149  LYS149      0.1093
    102  NZ       -13.7050   29.6020   28.3530 N.3   149  LYS149     -0.1314
@<TRIPOS>BOND
     1    46    47    1
     2    46    43    1
     3    47    48    1
     4    42    43    1
     5    49    48   ar
     6    48    50   ar
     7    43    44    1
     8    44    45    2
     9    41    40    1
    10    40    39    1
    11    39    38    1
    12    35    36    2
    13    35    34    1
    14    38    37    1
    15    37    34    1
    16    34    33    1
    17   102   101    1
    18    10     8   ar
    19    10    11   ar
    20     8     6   ar
    21   101   100    1
    22    30    29    2
    23     1     2    1
    24     4     3    2
    25    29    28    1
    26    11     9   ar
    27     6     5    1
    28     6     7   ar
    29     5     2    1
    30   100    99    1
    31     2     3    1
    32     3    12   am
    33    99    98    1
    34     9     7   ar
    35    31    28    1
    36    31    32    1
    37    28    27    1
    38    93    92    1
    39    27    20   am
    40    12    13    1
    41    92    89    1
    42    13    14    1
    43    13    16    1
    44    98    95    1
    45    18    14   am
    46    18    19    1
    47    14    15    2
    48    20    19    1
    49    20    21    2
    50    16    17    1
    51    95    94    1
    52    95    96    1
    53    94    90   am
    54    19    22    1
    55    89    90    1
    56    89    88    1
    57    90    91    2
    58    88    86   am
    59    96    97    2
    60    22    23    1
    61    23    24    1
    62    58    59    1
    63    58    57    1
    64    86    85    1
    65    86    87    2
    66    85    84    1
    67    57    56    1
    68    24    26   am
    69    24    25    2
    70    56    55    1
    71    84    82   am
    72    83    82    2
    73    51    52    1
    74    55    52    1
    75    82    81    1
    76    52    53    1
    77    67    66   ar
    78    81    80    1
    79    65    66    1
    80    65    64    1
    81    60    53   am
    82    60    61    1
    83    66    68   ar
    84    63    62    2
    85    53    54    2
    86    80    71   am
    87    62    61    1
    88    62    69   am
    89    61    64    1
    90    71    72    2
    91    71    70    1
    92    69    70    1
    93    70    73    1
    94    73    74    1
    95    74    75    1
    96    75    76    1
    97    76    77    2
    98    78    77    1
    99    77    79    1
