@<TRIPOS>MOLECULE
tmp/3ueqA01.pdb
 208 199 0 0 0
SMALL
GASTEIGER

@<TRIPOS>ATOM
      1  N         63.2780   30.6650   23.3720 N.3   148  ASP148     -0.1239
      2  CA        63.6050   29.4510   22.6470 C.3   148  ASP148      0.1674
      3  C         64.8580   28.8070   23.2430 C.2   148  ASP148      0.2266
      4  O         65.8140   28.4160   22.5020 O.2   148  ASP148     -0.2867
      5  CB        63.8160   29.7370   21.1480 C.3   148  ASP148      0.1410
      6  CG        63.9330   28.4670   20.3190 C.2   148  ASP148      0.3668
      7  OD1       63.5100   27.3760   20.7950 O.co2 148  ASP148     -0.2456
      8  OD2       64.4360   28.5420   19.1570 O.co2 148  ASP148     -0.2456
      9  N         68.1040   30.4490   22.2490 N.3   151  TYR151     -0.1241
     10  CA        68.2890   30.6360   20.7860 C.3   151  TYR151      0.1605
     11  C         67.7220   31.9410   20.2360 C.2   151  TYR151      0.2264
     12  O         67.9320   32.2430   19.0620 O.2   151  TYR151     -0.2867
     13  CB        67.7470   29.4160   20.0240 C.3   151  TYR151      0.0534
     14  CG        68.7520   28.2860   20.0150 C.ar  151  TYR151     -0.0201
     15  CD1       68.6190   27.2040   20.8940 C.ar  151  TYR151     -0.0009
     16  CD2       69.8710   28.3140   19.1660 C.ar  151  TYR151     -0.0009
     17  CE1       69.5670   26.1510   20.9060 C.ar  151  TYR151      0.0417
     18  CE2       70.8620   27.2590   19.1920 C.ar  151  TYR151      0.0417
     19  CZ        70.6540   26.1690   20.0620 C.ar  151  TYR151      0.1957
     20  OH        71.5680   25.1360   20.1290 O.3   151  TYR151     -0.2866
     21  N         69.3320   34.5520   12.7860 N.3   191  HIS191     -0.1241
     22  CA        68.2540   35.3640   13.3830 C.3   191  HIS191      0.1621
     23  C         68.6950   35.8460   14.7370 C.2   191  HIS191      0.2264
     24  O         69.5760   35.2170   15.3540 O.2   191  HIS191     -0.2867
     25  CB        66.9490   34.5440   13.5230 C.3   191  HIS191      0.0745
     26  CG        67.1370   33.1820   14.1170 C.ar  191  HIS191      0.0817
     27  ND1       67.3070   32.0450   13.3600 N.ar  191  HIS191     -0.2268
     28  CD2       67.1920   32.7770   15.4180 C.ar  191  HIS191      0.1154
     29  CE1       67.5000   31.0080   14.1600 C.ar  191  HIS191      0.1986
     30  NE2       67.3940   31.4190   15.4160 N.ar  191  HIS191     -0.2212
     31  N         58.1230   26.0470    4.3190 N.3   230  ARG230     -0.1245
     32  CA        57.8500   25.0130    5.2850 C.3   230  ARG230      0.1563
     33  C         57.6820   25.6920    6.6490 C.2   230  ARG230      0.2260
     34  O         58.3770   26.7020    6.9750 O.2   230  ARG230     -0.2867
     35  CB        59.0740   24.0630    5.2830 C.3   230  ARG230      0.0307
     36  CG        59.0280   22.9590    6.3360 C.3   230  ARG230      0.0489
     37  CD        60.0750   21.8930    6.0170 C.3   230  ARG230      0.2205
     38  NE        61.4870   22.3420    6.2130 N.pl3 230  ARG230     -0.0865
     39  CZ        62.2680   22.0550    7.2450 C.cat 230  ARG230      0.5346
     40  NH1       61.7750   21.4730    8.3580 N.pl3 230  ARG230      0.1354
     41  NH2       63.5450   22.4440    7.1910 N.pl3 230  ARG230      0.1354
     42  N         58.2210   25.6100   10.5490 N.3   232  ILE232     -0.1231
     43  CA        59.0520   24.9400   11.5030 C.3   232  ILE232      0.1692
     44  C         58.3360   24.8200   12.8500 C.2   232  ILE232      0.2592
     45  O         58.3850   23.7170   13.4900 O.2   232  ILE232     -0.2718
     46  CB        60.4030   25.6830   11.7140 C.3   232  ILE232      0.0266
     47  CG1       61.1230   25.8680   10.3860 C.3   232  ILE232      0.0019
     48  CG2       61.2750   24.9180   12.6990 C.3   232  ILE232      0.0020
     49  CD1       61.5010   24.5570    9.6330 C.3   232  ILE232      0.0001
     50  N         57.6790   25.9150   13.3020 N.am  233  PHE233     -0.1976
     51  CA        56.9250   25.8740   14.5470 C.3   233  PHE233      0.1639
     52  C         55.4740   26.2650   14.2280 C.2   233  PHE233      0.2290
     53  O         55.0360   27.3760   14.5620 O.2   233  PHE233     -0.2864
     54  CB        57.5000   26.7700   15.6690 C.3   233  PHE233      0.0560
     55  CG        58.9100   26.4460   16.0780 C.ar  233  PHE233     -0.0200
     56  CD1       59.3390   25.1210   16.3110 C.ar  233  PHE233     -0.0042
     57  CD2       59.8260   27.4790   16.2740 C.ar  233  PHE233     -0.0042
     58  CE1       60.6730   24.8630   16.7230 C.ar  233  PHE233     -0.0003
     59  CE2       61.1130   27.2070   16.6570 C.ar  233  PHE233     -0.0003
     60  CZ        61.5560   25.9020   16.8550 C.ar  233  PHE233     -0.0000
     61  N         61.3600   30.9970   12.7270 N.3   254  PHE254     -0.1241
     62  CA        61.1760   30.2640   13.9820 C.3   254  PHE254      0.1605
     63  C         60.1220   30.8910   14.8810 C.2   254  PHE254      0.2264
     64  O         59.0160   31.1220   14.4060 O.2   254  PHE254     -0.2867
     65  CB        62.5460   30.0390   14.6240 C.3   254  PHE254      0.0534
     66  CG        63.4940   29.3390   13.6980 C.ar  254  PHE254     -0.0203
     67  CD1       63.3820   27.9500   13.5320 C.ar  254  PHE254     -0.0042
     68  CD2       64.4780   30.0370   12.9840 C.ar  254  PHE254     -0.0042
     69  CE1       64.2500   27.2270   12.6510 C.ar  254  PHE254     -0.0003
     70  CE2       65.3520   29.3320   12.1110 C.ar  254  PHE254     -0.0003
     71  CZ        65.2290   27.9410   11.9500 C.ar  254  PHE254     -0.0000
     72  N         61.9730   35.7530   17.0950 N.3   258  GLN258     -0.1245
     73  CA        63.2760   35.5250   16.4130 C.3   258  GLN258      0.1566
     74  C         63.1460   36.0560   14.9810 C.2   258  GLN258      0.2260
     75  O         62.3290   35.5700   14.1920 O.2   258  GLN258     -0.2867
     76  CB        63.6130   34.0060   16.3680 C.3   258  GLN258      0.0367
     77  CG        64.0720   33.4700   17.7490 C.3   258  GLN258      0.0905
     78  CD        63.9010   31.9530   17.8940 C.2   258  GLN258      0.2608
     79  OE1       62.7970   31.4170   17.7160 O.2   258  GLN258     -0.2717
     80  NE2       64.9750   31.2650   18.2410 N.am  258  GLN258     -0.0878
     81  N         78.8950   25.8890   16.2310 N.3   288  ARG288     -0.1245
     82  CA        77.6990   25.2280   15.7070 C.3   288  ARG288      0.1563
     83  C         76.8940   26.2600   14.9430 C.2   288  ARG288      0.2260
     84  O         76.3500   27.2230   15.5350 O.2   288  ARG288     -0.2867
     85  CB        76.8700   24.6530   16.8680 C.3   288  ARG288      0.0307
     86  CG        75.6740   23.8520   16.2990 C.3   288  ARG288      0.0489
     87  CD        74.8120   23.3630   17.5200 C.3   288  ARG288      0.2205
     88  NE        73.5370   22.7680   17.1690 N.pl3 288  ARG288     -0.0865
     89  CZ        72.4370   23.4850   16.8690 C.cat 288  ARG288      0.5346
     90  NH1       72.4640   24.8250   16.7770 N.pl3 288  ARG288      0.1354
     91  NH2       71.3190   22.8480   16.5770 N.pl3 288  ARG288      0.1354
     92  N         74.0620   27.4270   13.5450 N.3   290  ASP290     -0.1225
     93  CA        72.6360   27.2230   13.7400 C.3   290  ASP290      0.1805
     94  C         71.7840   27.6450   12.5320 C.2   290  ASP290      0.2597
     95  O         71.9230   28.7810   12.0350 O.2   290  ASP290     -0.2718
     96  CB        72.2080   28.0420   14.9410 C.3   290  ASP290      0.1424
     97  CG        70.7630   27.7640   15.3360 C.2   290  ASP290      0.3668
     98  OD1       70.5070   26.6070   15.7960 O.co2 290  ASP290     -0.2456
     99  OD2       69.8630   28.6620   15.1560 O.co2 290  ASP290     -0.2456
    100  N         70.9070   26.7610   12.0500 N.am  291  ALA291     -0.1979
    101  CA        69.9720   27.1130   10.9820 C.3   291  ALA291      0.1597
    102  C         70.6570   27.5420    9.6520 C.2   291  ALA291      0.2287
    103  O         70.2280   28.5070    8.9850 O.2   291  ALA291     -0.2864
    104  CB        68.9880   28.2440   11.4930 C.3   291  ALA291      0.0319
    105  N         70.5590   26.3200    6.8050 N.3   293  ALA293     -0.1231
    106  CA        69.7600   26.1620    5.5860 C.3   293  ALA293      0.1694
    107  C         68.9980   27.4630    5.2130 C.2   293  ALA293      0.2592
    108  O         68.6000   27.6440    4.0640 O.2   293  ALA293     -0.2718
    109  CB        68.7360   24.9620    5.7060 C.3   293  ALA293      0.0304
    110  N         68.7700   28.3380    6.1960 N.am  294  PHE294     -0.1976
    111  CA        67.7840   29.4140    6.0700 C.3   294  PHE294      0.1639
    112  C         68.3760   30.7590    5.7590 C.2   294  PHE294      0.2290
    113  O         67.6560   31.7150    5.6280 O.2   294  PHE294     -0.2864
    114  CB        66.9330   29.5070    7.3780 C.3   294  PHE294      0.0560
    115  CG        66.1940   28.2030    7.6730 C.ar  294  PHE294     -0.0200
    116  CD1       64.9200   28.0070    7.1220 C.ar  294  PHE294     -0.0042
    117  CD2       66.7890   27.1810    8.4380 C.ar  294  PHE294     -0.0042
    118  CE1       64.2010   26.8170    7.3770 C.ar  294  PHE294     -0.0003
    119  CE2       66.0730   25.9620    8.6540 C.ar  294  PHE294     -0.0003
    120  CZ        64.7950   25.8280    8.1530 C.ar  294  PHE294     -0.0000
    121  N         74.4530   22.4710   11.3030 N.3   332  GLU332     -0.1231
    122  CA        73.2520   21.9110   11.8770 C.3   332  GLU332      0.1699
    123  C         72.1910   22.1270   10.7750 C.2   332  GLU332      0.2592
    124  O         71.6720   23.3020   10.6420 O.2   332  GLU332     -0.2718
    125  CB        72.9000   22.6840   13.1330 C.3   332  GLU332      0.0402
    126  CG        71.7380   22.0700   13.8160 C.3   332  GLU332      0.1161
    127  CD        70.4400   22.8960   13.7110 C.2   332  GLU332      0.3649
    128  OE1       70.4790   24.0460   13.1300 O.co2 332  GLU332     -0.2457
    129  OE2       69.3850   22.3680   14.2510 O.co2 332  GLU332     -0.2457
    130  N         72.0430   21.1270    9.8940 N.am  333  ALA333     -0.1966
    131  CA        71.0920   21.1420    8.7790 C.3   333  ALA333      0.1728
    132  C         70.2520   19.8790    8.9330 C.2   333  ALA333      0.2616
    133  O         70.7480   18.7750    8.6740 O.2   333  ALA333     -0.2715
    134  CB        71.8160   21.1580    7.4070 C.3   333  ALA333      0.0334
    135  N         69.0280   20.0280    9.4260 N.am  334  ILE334     -0.1963
    136  CA        68.1090   18.9040    9.6070 C.3   334  ILE334      0.1727
    137  C         67.1150   18.9690    8.4700 C.2   334  ILE334      0.2616
    138  O         66.0070   19.5760    8.5720 O.2   334  ILE334     -0.2715
    139  CB        67.4270   18.9090   11.0390 C.3   334  ILE334      0.0290
    140  CG1       68.4220   19.3010   12.1630 C.3   334  ILE334      0.0022
    141  CG2       66.6800   17.6110   11.2920 C.3   334  ILE334      0.0023
    142  CD1       69.6520   18.3970   12.2950 C.3   334  ILE334      0.0001
    143  N         67.5640   18.4340    7.3300 N.am  335  VAL335     -0.1977
    144  CA        66.8440   18.6160    6.0610 C.3   335  VAL335      0.1596
    145  C         66.9460   17.3260    5.2610 C.2   335  VAL335      0.2287
    146  O         67.4870   16.3540    5.7550 O.2   335  VAL335     -0.2864
    147  CB        67.4370   19.8300    5.2280 C.3   335  VAL335      0.0276
    148  CG1       67.1670   21.1800    5.9340 C.3   335  VAL335      0.0022
    149  CG2       68.9590   19.6770    4.9800 C.3   335  VAL335      0.0022
    150  N         69.1030   18.4200   22.2000 N.3   396  HIS396     -0.1226
    151  CA        68.1420   19.2840   22.8780 C.3   396  HIS396      0.1752
    152  C         66.8400   19.4690   22.0880 C.2   396  HIS396      0.2596
    153  O         65.8360   20.0290   22.6030 O.2   396  HIS396     -0.2718
    154  CB        68.8370   20.6250   23.1010 C.3   396  HIS396      0.0759
    155  CG        69.0970   21.3620   21.8240 C.ar  396  HIS396      0.0818
    156  ND1       70.0750   20.9880   20.9310 N.ar  396  HIS396     -0.2268
    157  CD2       68.4510   22.4270   21.2720 C.ar  396  HIS396      0.1154
    158  CE1       70.0300   21.8120   19.8860 C.ar  396  HIS396      0.1986
    159  NE2       69.0340   22.6730   20.0630 N.ar  396  HIS396     -0.2212
    160  N         66.8320   19.0120   20.8290 N.am  397  ASP397     -0.1960
    161  CA        65.6600   19.1720   19.9730 C.3   397  ASP397      0.1840
    162  C         64.8610   17.8490   19.9080 C.2   397  ASP397      0.2622
    163  O         65.3350   16.7390   20.2500 O.2   397  ASP397     -0.2715
    164  CB        66.0300   19.6060   18.5300 C.3   397  ASP397      0.1450
    165  CG        66.2310   21.1070   18.3920 C.2   397  ASP397      0.3671
    166  OD1       65.6800   21.8960   19.2030 O.co2 397  ASP397     -0.2456
    167  OD2       67.0370   21.4810   17.4650 O.co2 397  ASP397     -0.2456
    168  N         63.6640   17.9950   19.4110 N.am  398  ASP398     -0.1971
    169  CA        62.8330   16.8550   19.0090 C.3   398  ASP398      0.1709
    170  C         63.5890   16.0340   17.9430 C.2   398  ASP398      0.2293
    171  O         64.5260   16.5210   17.2700 O.2   398  ASP398     -0.2864
    172  CB        61.5870   17.4430   18.3230 C.3   398  ASP398      0.1436
    173  CG        61.9520   18.5260   17.2900 C.2   398  ASP398      0.3671
    174  OD1       62.5960   19.5550   17.6470 O.co2 398  ASP398     -0.2456
    175  OD2       61.6350   18.3400   16.1160 O.co2 398  ASP398     -0.2456
    176  N         56.8890   15.6710   15.0100 N.3   450  ARG450     -0.1245
    177  CA        58.1830   15.2280   15.5470 C.3   450  ARG450      0.1563
    178  C         58.0090   14.7270   16.9710 C.2   450  ARG450      0.2260
    179  O         56.8990   14.8020   17.5310 O.2   450  ARG450     -0.2867
    180  CB        59.1930   16.4030   15.5110 C.3   450  ARG450      0.0307
    181  CG        59.5240   16.8530   14.0360 C.3   450  ARG450      0.0489
    182  CD        58.8370   18.1910   13.7090 C.3   450  ARG450      0.2205
    183  NE        59.5710   19.3380   14.2410 N.pl3 450  ARG450     -0.0865
    184  CZ        59.2780   20.6280   14.0020 C.cat 450  ARG450      0.5346
    185  NH1       58.2630   20.9840   13.2130 N.pl3 450  ARG450      0.1354
    186  NH2       60.0670   21.5870   14.5310 N.pl3 450  ARG450      0.1354
    187  N         59.6770   20.2230   23.7010 N.3   513  ARG513     -0.1245
    188  CA        61.1000   19.8860   23.7740 C.3   513  ARG513      0.1563
    189  C         61.6160   20.0150   25.2300 C.2   513  ARG513      0.2260
    190  O         62.5720   19.3620   25.6020 O.2   513  ARG513     -0.2867
    191  CB        61.8960   20.8100   22.8450 C.3   513  ARG513      0.0307
    192  CG        61.6060   20.5110   21.2940 C.3   513  ARG513      0.0489
    193  CD        62.3720   21.4960   20.4510 C.3   513  ARG513      0.2205
    194  NE        61.8960   22.8860   20.7030 N.pl3 513  ARG513     -0.0865
    195  CZ        62.4140   23.9610   20.1210 C.cat 513  ARG513      0.5346
    196  NH1       63.4610   23.8290   19.2640 N.pl3 513  ARG513      0.1354
    197  NH2       61.8980   25.1550   20.3610 N.pl3 513  ARG513      0.1354
    198  N         64.7100   18.0710   28.3670 N.3   517  ARG517     -0.1245
    199  CA        65.7570   18.9440   28.9030 C.3   517  ARG517      0.1563
    200  C         65.7520   18.9560   30.4370 C.2   517  ARG517      0.2260
    201  O         65.5890   20.0350   31.0520 O.2   517  ARG517     -0.2867
    202  CB        65.6000   20.3740   28.3660 C.3   517  ARG517      0.0307
    203  CG        65.6640   20.4500   26.8220 C.3   517  ARG517      0.0489
    204  CD        65.3140   21.8080   26.2530 C.3   517  ARG517      0.2205
    205  NE        65.2870   21.8120   24.7420 N.pl3 517  ARG517     -0.0865
    206  CZ        64.9300   22.8910   24.0230 C.cat 517  ARG517      0.5346
    207  NH1       64.5170   23.9870   24.6900 N.pl3 517  ARG517      0.1354
    208  NH2       64.9860   22.8910   22.6710 N.pl3 517  ARG517      0.1354
@<TRIPOS>BOND
     1   108   107    2
     2    31    32    1
     3   149   147    1
     4   107   106    1
     5   107   110   am
     6   147   148    1
     7   147   144    1
     8   145   146    2
     9   145   144    1
    10    35    32    1
    11    35    36    1
    12    32    33    1
    13   106   109    1
    14   106   105    1
    15   113   112    2
    16   112   111    1
    17    37    38    1
    18    37    36    1
    19   144   143    1
    20   111   110    1
    21   111   114    1
    22    38    39    2
    23    33    34    2
    24   116   118   ar
    25   116   115   ar
    26    41    39    1
    27    39    40    1
    28   143   137   am
    29   118   120   ar
    30   114   115    1
    31   134   131    1
    32   115   117   ar
    33   120   119   ar
    34   117   119   ar
    35   137   138    2
    36   137   136    1
    37   133   132    2
    38   131   132    1
    39   131   130    1
    40   132   135   am
    41   103   102    2
    42   135   136    1
    43   136   139    1
    44    49    47    1
    45   102   101    1
    46   130   123   am
    47    47    46    1
    48    42    43    1
    49   124   123    2
    50   123   122    1
    51   101   104    1
    52   101   100    1
    53   139   141    1
    54   139   140    1
    55   121   122    1
    56    43    46    1
    57    43    44    1
    58    46    48    1
    59   122   125    1
    60    71    70   ar
    61    71    69   ar
    62    95    94    2
    63   100    94   am
    64    70    68   ar
    65   140   142    1
    66    94    93    1
    67    69    67   ar
    68    61    62    1
    69    21    22    1
    70    44    50   am
    71    44    45    2
    72    68    66   ar
    73   128   127   ar
    74   125   126    1
    75   185   184    1
    76    50    51    1
    77    27    26   ar
    78    27    29   ar
    79    22    25    1
    80    22    23    1
    81    25    26    1
    82    67    66   ar
    83    92    93    1
    84    66    65    1
    85   182   181    1
    86   182   183    1
    87   127   126    1
    88   127   129   ar
    89    93    96    1
    90    62    65    1
    91    62    63    1
    92   184   183    2
    93   184   186    1
    94   181   180    1
    95    26    28   ar
    96    29    30   ar
    97    75    74    2
    98    52    51    1
    99    52    53    2
   100    64    63    2
   101    51    54    1
   102    23    24    2
   103    96    97    1
   104    83    84    2
   105    83    82    1
   106    74    73    1
   107   176   177    1
   108    99    97   ar
   109    97    98   ar
   110    30    28   ar
   111   180   177    1
   112   177   178    1
   113    54    55    1
   114    82    81    1
   115    82    85    1
   116    55    57   ar
   117    55    56   ar
   118   175   173   ar
   119    57    59   ar
   120    86    85    1
   121    86    87    1
   122    56    58   ar
   123    76    73    1
   124    76    77    1
   125    73    72    1
   126    91    89    1
   127    59    60   ar
   128    58    60   ar
   129    90    89    1
   130    89    88    2
   131   178   179    2
   132    88    87    1
   133   171   170    2
   134   173   174   ar
   135   173   172    1
   136   167   165   ar
   137    79    78    2
   138    77    78    1
   139    78    80   am
   140   170   169    1
   141   172   169    1
   142   165   164    1
   143   165   166   ar
   144   164   161    1
   145   169   168    1
   146    12    11    2
   147     8     6   ar
   148    16    18   ar
   149    16    14   ar
   150    18    19   ar
   151   196   195    1
   152   168   162   am
   153   158   159   ar
   154   158   156   ar
   155   162   161    1
   156   162   163    2
   157   161   160    1
   158    14    13    1
   159    14    15   ar
   160    13    10    1
   161    19    20    1
   162    19    17   ar
   163   159   157   ar
   164   195   197    1
   165   195   194    2
   166    11    10    1
   167     6     7   ar
   168     6     5    1
   169   193   194    1
   170   193   192    1
   171    10     9    1
   172   160   152   am
   173    15    17   ar
   174   156   155   ar
   175     5     2    1
   176   157   155   ar
   177   192   191    1
   178   155   154    1
   179   152   153    2
   180   152   151    1
   181   150   151    1
   182     4     3    2
   183     2     3    1
   184     2     1    1
   185   208   206    1
   186   191   188    1
   187   151   154    1
   188   187   188    1
   189   188   189    1
   190   206   207    1
   191   206   205    2
   192   205   204    1
   193   189   190    2
   194   204   203    1
   195   203   202    1
   196   202   199    1
   197   198   199    1
   198   199   200    1
   199   200   201    2
