@<TRIPOS>MOLECULE
tmp/3ueqA00.pdb
 81 78 0 0 0
SMALL
GASTEIGER

@<TRIPOS>ATOM
      1  N         79.6350   -1.5520    4.7720 N.3   562  THR562     -0.1203
      2  CA        78.6400   -2.4080    5.4310 C.3   562  THR562      0.1994
      3  C         78.8960   -3.8720    5.0980 C.2   562  THR562      0.2618
      4  O         79.5790   -4.1870    4.0790 O.2   562  THR562     -0.2717
      5  CB        77.1790   -2.0370    5.0130 C.3   562  THR562      0.1784
      6  OG1       77.0560   -2.0700    3.5630 O.3   562  THR562     -0.2211
      7  CG2       76.8560   -0.6120    5.5600 C.3   562  THR562      0.0376
      8  N         78.3590   -4.7280    5.9550 N.am  563  PHE563     -0.1961
      9  CA        78.4910   -6.1720    5.8320 C.3   563  PHE563      0.1771
     10  C         77.0430   -6.6990    5.8140 C.2   563  PHE563      0.2619
     11  O         76.2580   -6.3380    6.7000 O.2   563  PHE563     -0.2715
     12  CB        79.2900   -6.6450    7.0140 C.3   563  PHE563      0.0574
     13  CG        79.4240   -8.1500    7.1250 C.ar  563  PHE563     -0.0200
     14  CD1       80.5580   -8.7790    6.6030 C.ar  563  PHE563     -0.0042
     15  CD2       78.4310   -8.9320    7.7710 C.ar  563  PHE563     -0.0042
     16  CE1       80.7280  -10.2070    6.7310 C.ar  563  PHE563     -0.0003
     17  CE2       78.5760  -10.3970    7.8610 C.ar  563  PHE563     -0.0003
     18  CZ        79.7650  -10.9850    7.3570 C.ar  563  PHE563     -0.0000
     19  N         76.6700   -7.4860    4.7960 N.am  564  ASN564     -0.1972
     20  CA        75.2930   -7.9810    4.7110 C.3   564  ASN564      0.1688
     21  C         75.1700   -9.1320    5.6950 C.2   564  ASN564      0.2292
     22  O         75.8970  -10.1400    5.5980 O.2   564  ASN564     -0.2864
     23  CB        74.9930   -8.4550    3.2830 C.3   564  ASN564      0.1181
     24  CG        75.0380   -7.3000    2.2840 C.2   564  ASN564      0.2629
     25  OD1       74.4120   -6.2230    2.4700 O.2   564  ASN564     -0.2716
     26  ND2       75.7670   -7.5180    1.2100 N.am  564  ASN564     -0.0877
     27  N         72.5300  -10.9510    6.3140 N.3   566  ASN566     -0.1240
     28  CA        71.4400  -11.9000    5.9400 C.3   566  ASN566      0.1653
     29  C         70.4210  -12.1430    7.0210 C.2   566  ASN566      0.2266
     30  O         69.7180  -13.1560    6.9910 O.2   566  ASN566     -0.2867
     31  CB        72.0390  -13.2220    5.3760 C.3   566  ASN566      0.1155
     32  CG        72.8170  -12.9530    4.0970 C.2   566  ASN566      0.2627
     33  OD1       72.3190  -12.2400    3.2470 O.2   566  ASN566     -0.2716
     34  ND2       74.0360  -13.4610    3.9840 N.am  566  ASN566     -0.0877
     35  N         82.0330   -2.7510    8.8110 N.3   574  ILE574     -0.1245
     36  CA        83.4500   -2.9560    9.0680 C.3   574  ILE574      0.1561
     37  C         84.1910   -1.6330    9.0520 C.2   574  ILE574      0.2260
     38  O         84.0310   -0.8440    8.1190 O.2   574  ILE574     -0.2867
     39  CB        84.1030   -3.9920    8.0670 C.3   574  ILE574      0.0252
     40  CG1       83.3840   -5.3400    8.2530 C.3   574  ILE574      0.0019
     41  CG2       85.5850   -4.1870    8.4230 C.3   574  ILE574      0.0019
     42  CD1       83.8410   -6.4730    7.3080 C.3   574  ILE574      0.0001
     43  N         77.3910  -19.6710    7.3800 N.3   595  HIS595     -0.1226
     44  CA        77.5670  -19.4760    5.9560 C.3   595  HIS595      0.1752
     45  C         77.8590  -17.9960    5.6080 C.2   595  HIS595      0.2596
     46  O         78.7230  -17.7070    4.7910 O.2   595  HIS595     -0.2718
     47  CB        76.3080  -19.9780    5.2350 C.3   595  HIS595      0.0759
     48  CG        76.4390  -19.9960    3.7450 C.ar  595  HIS595      0.0818
     49  ND1       76.1870  -18.8940    2.9590 N.ar  595  HIS595     -0.2268
     50  CD2       76.7910  -20.9900    2.9000 C.ar  595  HIS595      0.1154
     51  CE1       76.3390  -19.2120    1.6900 C.ar  595  HIS595      0.1986
     52  NE2       76.7300  -20.4780    1.6200 N.ar  595  HIS595     -0.2212
     53  N         77.1150  -17.0610    6.2320 N.am  596  THR596     -0.1953
     54  CA        77.3610  -15.6120    6.0680 C.3   596  THR596      0.1897
     55  C         78.7820  -15.2400    6.5300 C.2   596  THR596      0.2313
     56  O         79.4140  -14.3810    5.9660 O.2   596  THR596     -0.2863
     57  CB        76.2910  -14.8490    6.9060 C.3   596  THR596      0.1794
     58  OG1       75.0260  -15.1480    6.3150 O.3   596  THR596     -0.2208
     59  CG2       76.5620  -13.2820    6.9110 C.3   596  THR596      0.0378
     60  N         81.6810  -17.0020    6.3920 N.3   598  GLN598     -0.1231
     61  CA        82.7550  -17.8330    5.8320 C.3   598  GLN598      0.1698
     62  C         84.0630  -17.0950    5.5460 C.2   598  GLN598      0.2592
     63  O         85.1140  -17.7080    5.5620 O.2   598  GLN598     -0.2718
     64  CB        82.2830  -18.4820    4.5260 C.3   598  GLN598      0.0381
     65  CG        81.2980  -19.6380    4.7630 C.3   598  GLN598      0.0905
     66  CD        80.7880  -20.1180    3.4320 C.2   598  GLN598      0.2608
     67  OE1       81.3860  -20.9930    2.8280 O.2   598  GLN598     -0.2717
     68  NE2       79.7590  -19.4620    2.9150 N.am  598  GLN598     -0.0878
     69  N         84.0130  -15.8150    5.2100 N.am  599  ALA599     -0.1966
     70  CA        85.2460  -15.1060    4.9010 C.3   599  ALA599      0.1728
     71  C         86.0020  -14.6090    6.1160 C.2   599  ALA599      0.2616
     72  O         87.1310  -14.0990    5.9820 O.2   599  ALA599     -0.2715
     73  CB        84.9310  -13.9380    3.9810 C.3   599  ALA599      0.0334
     74  N         85.4100  -14.7580    7.3060 N.am  600  MET600     -0.1977
     75  CA        85.9720  -14.1780    8.5230 C.3   600  MET600      0.1605
     76  C         86.9380  -15.1950    9.1780 C.2   600  MET600      0.2287
     77  O         86.8070  -16.4160    8.9850 O.2   600  MET600     -0.2864
     78  CB        84.8280  -13.8110    9.4820 C.3   600  MET600      0.0413
     79  CG        83.9520  -12.7030    8.9240 C.3   600  MET600      0.0598
     80  SD        84.8900  -11.1760    8.8320 S.3   600  MET600     -0.1393
     81  CE        84.7550  -10.5960    7.1890 C.3   600  MET600      0.0692
@<TRIPOS>BOND
     1    26    24   am
     2    52    51   ar
     3    52    50   ar
     4    51    49   ar
     5    24    25    2
     6    24    23    1
     7    67    66    2
     8    50    48   ar
     9    68    66   am
    10    49    48   ar
    11    33    32    2
    12    23    20    1
    13    66    65    1
    14     6     5    1
    15    48    47    1
    16    73    70    1
    17    34    32   am
    18     4     3    2
    19    32    31    1
    20    64    65    1
    21    64    61    1
    22    20    19    1
    23    20    21    1
    24     1     2    1
    25    46    45    2
    26    19    10   am
    27    70    69    1
    28    70    71    1
    29     5     2    1
    30     5     7    1
    31     3     2    1
    32     3     8   am
    33    69    62   am
    34    47    44    1
    35    31    28    1
    36    62    63    2
    37    62    61    1
    38    22    21    2
    39    45    44    1
    40    45    53   am
    41    10     9    1
    42    10    11    2
    43    61    60    1
    44     9     8    1
    45     9    12    1
    46    28    27    1
    47    28    29    1
    48    44    43    1
    49    56    55    2
    50    72    71    2
    51    54    53    1
    52    54    55    1
    53    54    57    1
    54    71    74   am
    55    58    57    1
    56    14    16   ar
    57    14    13   ar
    58    16    18   ar
    59    57    59    1
    60    30    29    2
    61    12    13    1
    62    13    15   ar
    63    81    80    1
    64    74    75    1
    65    42    40    1
    66    18    17   ar
    67    15    17   ar
    68    39    40    1
    69    39    41    1
    70    39    36    1
    71    38    37    2
    72    75    76    1
    73    75    78    1
    74    35    36    1
    75    80    79    1
    76    79    78    1
    77    77    76    2
    78    37    36    1
