@<TRIPOS>MOLECULE
tmp/3uerA00.pdb
 190 182 0 0 0
SMALL
GASTEIGER

@<TRIPOS>ATOM
      1  N         37.6720   25.2140  -20.5890 N.3   142  ASP142     -0.1239
      2  CA        36.6230   26.2430  -20.7220 C.3   142  ASP142      0.1674
      3  C         35.3330   25.8390  -19.9400 C.2   142  ASP142      0.2266
      4  O         34.2150   25.9150  -20.4560 O.2   142  ASP142     -0.2867
      5  CB        36.3540   26.5280  -22.2250 C.3   142  ASP142      0.1410
      6  CG        35.4800   27.7470  -22.4480 C.2   142  ASP142      0.3668
      7  OD1       35.4150   28.5740  -21.5080 O.co2 142  ASP142     -0.2456
      8  OD2       34.8710   27.8620  -23.5460 O.co2 142  ASP142     -0.2456
      9  N         33.1320   23.4360  -21.6390 N.3   145  TYR145     -0.1241
     10  CA        32.8050   23.7140  -23.0620 C.3   145  TYR145      0.1605
     11  C         33.7900   23.1660  -24.0940 C.2   145  TYR145      0.2264
     12  O         33.6530   23.4580  -25.3150 O.2   145  TYR145     -0.2867
     13  CB        32.5240   25.2280  -23.2970 C.3   145  TYR145      0.0534
     14  CG        31.1620   25.6290  -22.7410 C.ar  145  TYR145     -0.0201
     15  CD1       29.9900   25.3640  -23.4840 C.ar  145  TYR145     -0.0009
     16  CD2       31.0290   26.2890  -21.4970 C.ar  145  TYR145     -0.0009
     17  CE1       28.7240   25.7460  -23.0090 C.ar  145  TYR145      0.0417
     18  CE2       29.7550   26.6610  -20.9930 C.ar  145  TYR145      0.0417
     19  CZ        28.6130   26.3890  -21.7550 C.ar  145  TYR145      0.1957
     20  OH        27.3450   26.7140  -21.2870 O.3   145  TYR145     -0.2866
     21  N         31.8200   23.2090  -31.6460 N.3   185  HIS185     -0.1241
     22  CA        33.2780   22.7990  -31.6020 C.3   185  HIS185      0.1621
     23  C         33.4040   21.6670  -30.6120 C.2   185  HIS185      0.2264
     24  O         32.5610   21.5550  -29.7340 O.2   185  HIS185     -0.2867
     25  CB        34.1500   23.9850  -31.1300 C.3   185  HIS185      0.0745
     26  CG        33.5810   24.7140  -29.9320 C.ar  185  HIS185      0.0817
     27  ND1       32.7510   25.8210  -30.0480 N.ar  185  HIS185     -0.2268
     28  CD2       33.6740   24.4570  -28.5990 C.ar  185  HIS185      0.1154
     29  CE1       32.3610   26.2090  -28.8410 C.ar  185  HIS185      0.1986
     30  NE2       32.9300   25.4260  -27.9450 N.ar  185  HIS185     -0.2212
     31  N         37.1540   36.6520  -30.3890 N.3   226  ILE226     -0.1231
     32  CA        36.2410   36.4250  -29.2820 C.3   226  ILE226      0.1692
     33  C         37.0190   36.4000  -27.9730 C.2   226  ILE226      0.2592
     34  O         36.5960   36.9700  -26.9460 O.2   226  ILE226     -0.2718
     35  CB        35.4310   35.0850  -29.4260 C.3   226  ILE226      0.0266
     36  CG1       34.5730   35.0600  -30.7010 C.3   226  ILE226      0.0019
     37  CG2       34.6020   34.7660  -28.0970 C.3   226  ILE226      0.0020
     38  CD1       33.6390   36.2510  -30.8640 C.3   226  ILE226      0.0001
     39  N         38.1430   35.6980  -27.9870 N.am  227  PHE227     -0.1976
     40  CA        38.9260   35.5740  -26.7690 C.3   227  PHE227      0.1639
     41  C         40.3530   36.0660  -27.0700 C.2   227  PHE227      0.2290
     42  O         41.2810   35.2530  -27.0600 O.2   227  PHE227     -0.2864
     43  CB        39.0010   34.0930  -26.2940 C.3   227  PHE227      0.0560
     44  CG        37.6970   33.5310  -25.6970 C.ar  227  PHE227     -0.0200
     45  CD1       36.7790   34.3620  -25.0220 C.ar  227  PHE227     -0.0042
     46  CD2       37.4280   32.1680  -25.7940 C.ar  227  PHE227     -0.0042
     47  CE1       35.5690   33.8600  -24.4740 C.ar  227  PHE227     -0.0003
     48  CE2       36.2630   31.6260  -25.2390 C.ar  227  PHE227     -0.0003
     49  CZ        35.2930   32.4950  -24.5810 C.ar  227  PHE227     -0.0000
     50  N         37.3020   29.9180  -30.4800 N.3   253  PHE253     -0.1241
     51  CA        37.3940   30.1400  -29.0390 C.3   253  PHE253      0.1605
     52  C         38.8150   29.8020  -28.6200 C.2   253  PHE253      0.2264
     53  O         39.7820   30.3320  -29.2340 O.2   253  PHE253     -0.2867
     54  CB        36.2620   29.3560  -28.3520 C.3   253  PHE253      0.0534
     55  CG        34.8590   29.8380  -28.8270 C.ar  253  PHE253     -0.0203
     56  CD1       34.3700   31.0580  -28.4050 C.ar  253  PHE253     -0.0042
     57  CD2       34.1190   29.1060  -29.7470 C.ar  253  PHE253     -0.0042
     58  CE1       33.1140   31.5260  -28.7990 C.ar  253  PHE253     -0.0003
     59  CE2       32.9130   29.5490  -30.1940 C.ar  253  PHE253     -0.0003
     60  CZ        32.3860   30.7930  -29.7180 C.ar  253  PHE253     -0.0000
     61  N         39.7190   24.1700  -28.6510 N.3   257  GLN257     -0.1245
     62  CA        38.3260   24.0450  -29.1450 C.3   257  GLN257      0.1566
     63  C         38.3060   24.1580  -30.6780 C.2   257  GLN257      0.2260
     64  O         38.4520   25.2500  -31.2950 O.2   257  GLN257     -0.2867
     65  CB        37.3620   25.0290  -28.4780 C.3   257  GLN257      0.0367
     66  CG        36.9410   24.6120  -27.0590 C.3   257  GLN257      0.0905
     67  CD        36.5060   25.8050  -26.2290 C.2   257  GLN257      0.2608
     68  OE1       37.1490   26.8820  -26.2610 O.2   257  GLN257     -0.2717
     69  NE2       35.4170   25.6290  -25.4740 N.am  257  GLN257     -0.0878
     70  N         20.2340   23.6540  -24.7300 N.3   287  ARG287     -0.1245
     71  CA        20.7840   24.9950  -24.9840 C.3   287  ARG287      0.1563
     72  C         21.8340   24.7420  -26.0610 C.2   287  ARG287      0.2260
     73  O         22.7980   23.9230  -25.8740 O.2   287  ARG287     -0.2867
     74  CB        21.4340   25.5480  -23.6990 C.3   287  ARG287      0.0307
     75  CG        22.1910   26.8850  -23.8510 C.3   287  ARG287      0.0489
     76  CD        22.8490   27.3790  -22.4820 C.3   287  ARG287      0.2205
     77  NE        23.5690   28.6230  -22.6830 N.pl3 287  ARG287     -0.0865
     78  CZ        24.7820   28.7370  -23.2420 C.cat 287  ARG287      0.5346
     79  NH1       25.4610   27.6440  -23.6480 N.pl3 287  ARG287      0.1354
     80  NH2       25.3260   29.9570  -23.4030 N.pl3 287  ARG287      0.1354
     81  N         24.7560   25.7340  -27.5800 N.3   289  ASP289     -0.1225
     82  CA        25.9080   26.6220  -27.3300 C.3   289  ASP289      0.1805
     83  C         26.5420   27.1890  -28.6300 C.2   289  ASP289      0.2597
     84  O         26.8320   26.4210  -29.5630 O.2   289  ASP289     -0.2718
     85  CB        27.0090   25.8780  -26.5620 C.3   289  ASP289      0.1424
     86  CG        28.1700   26.8130  -26.1810 C.2   289  ASP289      0.3668
     87  OD1       27.8660   27.7240  -25.3670 O.co2 289  ASP289     -0.2456
     88  OD2       29.3560   26.6660  -26.6610 O.co2 289  ASP289     -0.2456
     89  N         26.8430   28.4840  -28.6590 N.am  290  ALA290     -0.1979
     90  CA        27.6170   29.0420  -29.7930 C.3   290  ALA290      0.1597
     91  C         26.8900   28.7880  -31.1240 C.2   290  ALA290      0.2287
     92  O         27.5120   28.7440  -32.1730 O.2   290  ALA290     -0.2864
     93  CB        29.0240   28.4400  -29.8350 C.3   290  ALA290      0.0319
     94  N         25.3000   30.5810  -33.1040 N.3   292  ALA292     -0.1231
     95  CA        25.4620   31.5810  -34.1700 C.3   292  ALA292      0.1694
     96  C         26.6700   31.2730  -35.0970 C.2   292  ALA292      0.2592
     97  O         26.7120   31.7560  -36.2640 O.2   292  ALA292     -0.2718
     98  CB        25.6390   33.0060  -33.5710 C.3   292  ALA292      0.0304
     99  N         27.6220   30.4910  -34.5760 N.am  293  PHE293     -0.1976
    100  CA        28.9510   30.3230  -35.1760 C.3   293  PHE293      0.1639
    101  C         28.9910   29.1530  -36.1760 C.2   293  PHE293      0.2290
    102  O         29.9850   28.9360  -36.8750 O.2   293  PHE293     -0.2864
    103  CB        29.9830   30.1230  -34.0680 C.3   293  PHE293      0.0560
    104  CG        30.2460   31.3850  -33.2670 C.ar  293  PHE293     -0.0200
    105  CD1       31.2580   32.2700  -33.6630 C.ar  293  PHE293     -0.0042
    106  CD2       29.4220   31.7390  -32.2000 C.ar  293  PHE293     -0.0042
    107  CE1       31.4720   33.4830  -32.9830 C.ar  293  PHE293     -0.0003
    108  CE2       29.6440   32.9440  -31.4660 C.ar  293  PHE293     -0.0003
    109  CZ        30.6600   33.8220  -31.8520 C.ar  293  PHE293     -0.0000
    110  N         21.0690   30.4760  -27.6810 N.3   331  GLU331     -0.1231
    111  CA        21.8070   31.5830  -27.1090 C.3   331  GLU331      0.1699
    112  C         22.5690   32.1820  -28.2960 C.2   331  GLU331      0.2592
    113  O         23.5340   31.5410  -28.8740 O.2   331  GLU331     -0.2718
    114  CB        22.7870   31.1060  -26.0160 C.3   331  GLU331      0.0402
    115  CG        23.6790   29.9120  -26.3990 C.3   331  GLU331      0.1161
    116  CD        25.0820   30.3600  -26.8740 C.2   331  GLU331      0.3649
    117  OE1       25.2530   30.5400  -28.0990 O.co2 331  GLU331     -0.2457
    118  OE2       25.9990   30.5500  -26.0370 O.co2 331  GLU331     -0.2457
    119  N         22.1040   33.3390  -28.7230 N.am  332  ALA332     -0.1966
    120  CA        22.7660   34.0710  -29.7490 C.3   332  ALA332      0.1728
    121  C         22.7150   35.5260  -29.3080 C.2   332  ALA332      0.2616
    122  O         21.6660   35.9700  -28.8410 O.2   332  ALA332     -0.2715
    123  CB        22.0600   33.8770  -31.0970 C.3   332  ALA332      0.0334
    124  N         23.8390   36.2440  -29.4260 N.am  333  ILE333     -0.1977
    125  CA        23.9220   37.6850  -29.1230 C.3   333  ILE333      0.1596
    126  C         23.9280   38.5020  -30.4420 C.2   333  ILE333      0.2287
    127  O         24.9760   38.6100  -31.1040 O.2   333  ILE333     -0.2864
    128  CB        25.1690   37.9930  -28.2210 C.3   333  ILE333      0.0276
    129  CG1       24.9900   37.3450  -26.8400 C.3   333  ILE333      0.0022
    130  CG2       25.3400   39.4980  -28.0240 C.3   333  ILE333      0.0022
    131  CD1       26.1620   37.5040  -25.9450 C.3   333  ILE333      0.0001
    132  N         26.9150   32.3230  -16.3720 N.3   400  HIS400     -0.1226
    133  CA        28.2720   31.8440  -16.2550 C.3   400  HIS400      0.1752
    134  C         29.2180   32.6900  -17.0520 C.2   400  HIS400      0.2596
    135  O         30.4030   32.5620  -16.8630 O.2   400  HIS400     -0.2718
    136  CB        28.3720   30.3770  -16.7430 C.3   400  HIS400      0.0759
    137  CG        28.1650   30.2390  -18.2090 C.ar  400  HIS400      0.0818
    138  ND1       26.9310   30.4050  -18.8100 N.ar  400  HIS400     -0.2268
    139  CD2       29.0590   30.0420  -19.2130 C.ar  400  HIS400      0.1154
    140  CE1       27.0650   30.2660  -20.1170 C.ar  400  HIS400      0.1986
    141  NE2       28.3420   30.0350  -20.3790 N.ar  400  HIS400     -0.2212
    142  N         28.7130   33.5380  -17.9670 N.am  401  ASP401     -0.1960
    143  CA        29.5840   34.3330  -18.8570 C.3   401  ASP401      0.1840
    144  C         29.7360   35.7800  -18.3680 C.2   401  ASP401      0.2622
    145  O         28.9250   36.2470  -17.5660 O.2   401  ASP401     -0.2715
    146  CB        29.0350   34.3200  -20.2630 C.3   401  ASP401      0.1450
    147  CG        29.6170   33.2060  -21.1040 C.2   401  ASP401      0.3671
    148  OD1       30.6030   32.5330  -20.7100 O.co2 401  ASP401     -0.2456
    149  OD2       29.0670   33.0220  -22.1750 O.co2 401  ASP401     -0.2456
    150  N         30.8000   36.4340  -18.8200 N.am  402  ASP402     -0.1971
    151  CA        31.0170   37.8700  -18.6810 C.3   402  ASP402      0.1709
    152  C         29.8510   38.5970  -19.3750 C.2   402  ASP402      0.2293
    153  O         29.0710   37.9710  -20.0910 O.2   402  ASP402     -0.2864
    154  CB        32.2850   38.2460  -19.4540 C.3   402  ASP402      0.1436
    155  CG        32.2320   37.7310  -20.9060 C.2   402  ASP402      0.3671
    156  OD1       32.0880   36.5110  -21.0430 O.co2 402  ASP402     -0.2456
    157  OD2       32.3280   38.5040  -21.9170 O.co2 402  ASP402     -0.2456
    158  N         34.6440   43.5590  -21.8780 N.3   454  ARG454     -0.1245
    159  CA        33.5200   42.9070  -21.2440 C.3   454  ARG454      0.1563
    160  C         33.8050   42.8940  -19.7560 C.2   454  ARG454      0.2260
    161  O         34.8950   43.2870  -19.3470 O.2   454  ARG454     -0.2867
    162  CB        33.3820   41.4920  -21.7800 C.3   454  ARG454      0.0307
    163  CG        32.8280   41.5170  -23.2730 C.3   454  ARG454      0.0489
    164  CD        33.8870   40.9030  -24.1810 C.3   454  ARG454      0.2205
    165  NE        33.8360   39.4430  -24.0790 N.pl3 454  ARG454     -0.0865
    166  CZ        34.5050   38.6230  -24.9090 C.cat 454  ARG454      0.5346
    167  NH1       35.2840   39.1570  -25.8590 N.pl3 454  ARG454      0.1354
    168  NH2       34.3750   37.2840  -24.8220 N.pl3 454  ARG454      0.1354
    169  N         36.1690   34.9480  -15.6430 N.3   525  ARG525     -0.1245
    170  CA        34.7630   34.5120  -15.4860 C.3   525  ARG525      0.1563
    171  C         34.5570   33.6290  -14.2600 C.2   525  ARG525      0.2260
    172  O         33.4410   33.5920  -13.6970 O.2   525  ARG525     -0.2867
    173  CB        34.2130   33.8210  -16.7420 C.3   525  ARG525      0.0307
    174  CG        34.1470   34.7180  -17.9380 C.3   525  ARG525      0.0489
    175  CD        33.6980   33.9560  -19.1880 C.3   525  ARG525      0.2205
    176  NE        34.7260   33.0190  -19.6160 N.pl3 525  ARG525     -0.0865
    177  CZ        34.5970   32.1700  -20.6510 C.cat 525  ARG525      0.5346
    178  NH1       33.4310   32.0680  -21.3340 N.pl3 525  ARG525      0.1354
    179  NH2       35.6240   31.3810  -20.9740 N.pl3 525  ARG525      0.1354
    180  N         31.6630   32.2920  -10.7160 N.3   529  ARG529     -0.1245
    181  CA        31.2010   30.9080  -10.7330 C.3   529  ARG529      0.1563
    182  C         31.6000   30.2730   -9.3890 C.2   529  ARG529      0.2260
    183  O         32.4410   29.4030   -9.3630 O.2   529  ARG529     -0.2867
    184  CB        31.8200   30.1420  -11.9080 C.3   529  ARG529      0.0307
    185  CG        31.6110   30.8550  -13.2480 C.3   529  ARG529      0.0489
    186  CD        32.4210   30.1160  -14.3450 C.3   529  ARG529      0.2205
    187  NE        32.1790   30.6780  -15.6860 N.pl3 529  ARG529     -0.0865
    188  CZ        32.8070   30.2760  -16.7940 C.cat 529  ARG529      0.5346
    189  NH1       33.8070   29.3590  -16.7270 N.pl3 529  ARG529      0.1354
    190  NH2       32.4990   30.8410  -17.9550 N.pl3 529  ARG529      0.1354
@<TRIPOS>BOND
     1   102   101    2
     2    97    96    2
     3   101   100    1
     4   100    99    1
     5   100   103    1
     6    96    99   am
     7    96    95    1
     8    95    98    1
     9    95    94    1
    10   103   104    1
    11   105   104   ar
    12   105   107   ar
    13   104   106   ar
    14   107   109   ar
    15   106   108   ar
    16    92    91    2
    17   109   108   ar
    18    21    22    1
    19    22    25    1
    20    22    23    1
    21    64    63    2
    22    25    26    1
    23    91    90    1
    24   127   126    2
    25   123   120    1
    26    38    36    1
    27    36    35    1
    28    63    62    1
    29    23    24    2
    30    50    51    1
    31   126   125    1
    32    31    32    1
    33    59    57   ar
    34    59    60   ar
    35    27    26   ar
    36    27    29   ar
    37    26    28   ar
    38    93    90    1
    39    90    89    1
    40   120   121    1
    41   120   119    1
    42    57    55   ar
    43    60    58   ar
    44    84    83    2
    45    35    32    1
    46    35    37    1
    47   124   121   am
    48   124   125    1
    49   121   122    2
    50    32    33    1
    51    53    52    2
    52    62    61    1
    53    62    65    1
    54   125   128    1
    55    51    52    1
    56    51    54    1
    57   113   112    2
    58    29    30   ar
    59    55    56   ar
    60    55    54    1
    61    58    56   ar
    62   119   112   am
    63    89    83   am
    64    83    82    1
    65    28    30   ar
    66    65    66    1
    67   112   111    1
    68   128   130    1
    69   128   129    1
    70   117   116   ar
    71    39    33   am
    72    39    40    1
    73    33    34    2
    74   110   111    1
    75    81    82    1
    76    82    85    1
    77   111   114    1
    78    41    42    2
    79    41    40    1
    80    66    67    1
    81   116   115    1
    82   116   118   ar
    83   129   131    1
    84    40    43    1
    85    88    86   ar
    86    85    86    1
    87   115   114    1
    88    43    44    1
    89    68    67    2
    90    67    69   am
    91    86    87   ar
    92    72    73    2
    93    72    71    1
    94   167   166    1
    95    46    44   ar
    96    46    48   ar
    97    44    45   ar
    98    12    11    2
    99    48    49   ar
   100    45    47   ar
   101    71    70    1
   102    71    74    1
   103   166   168    1
   104   166   165    2
   105    49    47   ar
   106   164   165    1
   107   164   163    1
   108    11    10    1
   109    75    74    1
   110    75    76    1
   111    79    78    1
   112     8     6   ar
   113    15    17   ar
   114    15    14   ar
   115    80    78    1
   116    13    10    1
   117    13    14    1
   118   163   162    1
   119    78    77    2
   120    10     9    1
   121    17    19   ar
   122    14    16   ar
   123    77    76    1
   124     6     5    1
   125     6     7   ar
   126     5     2    1
   127   149   147   ar
   128   157   155   ar
   129   158   159    1
   130   162   159    1
   131    19    20    1
   132    19    18   ar
   133    16    18   ar
   134   178   177    1
   135   159   160    1
   136   147   148   ar
   137   147   146    1
   138   156   155   ar
   139   179   177    1
   140   155   154    1
   141     2     1    1
   142     2     3    1
   143   177   176    2
   144     4     3    2
   145   141   140   ar
   146   141   139   ar
   147   146   143    1
   148   140   138   ar
   149   153   152    2
   150   160   161    2
   151   176   175    1
   152   154   151    1
   153   152   151    1
   154   139   137   ar
   155   175   174    1
   156   143   144    1
   157   143   142    1
   158   150   151    1
   159   150   144   am
   160   138   137   ar
   161   144   145    2
   162   137   136    1
   163   142   134   am
   164   190   188    1
   165   174   173    1
   166   134   135    2
   167   134   133    1
   168   188   189    1
   169   188   187    2
   170   136   133    1
   171   173   170    1
   172   132   133    1
   173   187   186    1
   174   169   170    1
   175   170   171    1
   176   186   185    1
   177   171   172    2
   178   185   184    1
   179   184   181    1
   180   181   180    1
   181   181   182    1
   182   182   183    2
