@<TRIPOS>MOLECULE
tmp/3uesB00.pdb
 145 146 0 0 0
SMALL
GASTEIGER

@<TRIPOS>ATOM
      1  N        -17.6230  -21.0810   35.4150 N.3    27  PHE27      -0.1241
      2  CA       -16.3920  -21.5760   34.7450 C.3    27  PHE27       0.1605
      3  C        -16.5660  -23.0610   34.5780 C.2    27  PHE27       0.2264
      4  O        -17.1420  -23.7250   35.4500 O.2    27  PHE27      -0.2867
      5  CB       -15.1730  -21.3770   35.7000 C.3    27  PHE27       0.0534
      6  CG       -14.0150  -20.5140   35.2090 C.ar   27  PHE27      -0.0203
      7  CD1      -13.6090  -20.5380   33.8600 C.ar   27  PHE27      -0.0042
      8  CD2      -13.2670  -19.8730   36.2040 C.ar   27  PHE27      -0.0042
      9  CE1      -12.4280  -19.7750   33.5190 C.ar   27  PHE27      -0.0003
     10  CE2      -12.0330  -19.1690   35.8700 C.ar   27  PHE27      -0.0003
     11  CZ       -11.7130  -19.0770   34.5150 C.ar   27  PHE27      -0.0000
     12  N        -13.7350  -25.9560   33.9920 N.3    29  HIS29      -0.1297
     13  CA       -12.3820  -26.4470   33.6890 C.3    29  HIS29       0.1306
     14  C        -12.5430  -27.8910   33.3090 C.3    29  HIS29       0.2013
     15  O        -13.0950  -28.7170   34.1380 O.3    29  HIS29      -0.2188
     16  CB       -11.5400  -26.3250   34.9190 C.3    29  HIS29       0.0691
     17  CG       -10.9660  -24.9600   35.1350 C.ar   29  HIS29       0.0814
     18  ND1      -11.7130  -23.8580   35.4030 N.ar   29  HIS29      -0.2268
     19  CD2       -9.6710  -24.5200   35.0880 C.ar   29  HIS29       0.1154
     20  CE1      -10.9100  -22.7350   35.4820 C.ar   29  HIS29       0.1986
     21  NE2       -9.6420  -23.1430   35.3160 N.ar   29  HIS29      -0.2212
     22  N         -4.2390  -30.5960   38.4430 N.3    39  GLU39      -0.1231
     23  CA        -4.6450  -29.1530   38.4600 C.3    39  GLU39       0.1699
     24  C         -3.8420  -28.4660   37.3640 C.2    39  GLU39       0.2592
     25  O         -4.4040  -27.6000   36.6160 O.2    39  GLU39      -0.2718
     26  CB        -4.3790  -28.4810   39.8200 C.3    39  GLU39       0.0402
     27  CG        -5.4850  -28.9400   40.8570 C.3    39  GLU39       0.1161
     28  CD        -6.8120  -28.3700   40.3610 C.2    39  GLU39       0.3649
     29  OE1       -6.8770  -27.0860   40.4580 O.co2  39  GLU39      -0.2457
     30  OE2       -7.6960  -29.1380   39.9130 O.co2  39  GLU39      -0.2457
     31  N         -2.4840  -28.5860   37.3680 N.am   40  TRP40      -0.1976
     32  CA        -1.6210  -28.1830   36.2070 C.3    40  TRP40       0.1640
     33  C         -1.0410  -29.4250   35.6030 C.2    40  TRP40       0.2290
     34  O         -0.3450  -30.1920   36.3260 O.2    40  TRP40      -0.2864
     35  CB        -0.5170  -27.3610   36.7320 C.3    40  TRP40       0.0576
     36  CG        -0.8740  -25.9040   37.0670 C.ar   40  TRP40       0.0006
     37  CD1       -2.1600  -25.3570   37.1260 C.ar   40  TRP40       0.0946
     38  CD2        0.0390  -24.8660   37.4720 C.ar   40  TRP40       0.0152
     39  NE1       -2.0960  -24.0480   37.4900 N.ar   40  TRP40      -0.2442
     40  CE2       -0.7250  -23.6710   37.7240 C.ar   40  TRP40       0.0810
     41  CE3        1.4250  -24.8080   37.6340 C.ar   40  TRP40       0.0012
     42  CZ2       -0.1390  -22.4490   38.1250 C.ar   40  TRP40       0.0191
     43  CZ3        1.9990  -23.6070   37.9800 C.ar   40  TRP40       0.0001
     44  CH2        1.2600  -22.4220   38.2170 C.ar   40  TRP40       0.0015
     45  N         -5.9940  -25.1680   28.5260 N.3    78  HIS78      -0.1226
     46  CA        -5.4230  -24.7570   29.7780 C.3    78  HIS78       0.1752
     47  C         -3.8990  -24.7650   29.6550 C.2    78  HIS78       0.2596
     48  O         -3.3620  -24.7170   28.5310 O.2    78  HIS78      -0.2718
     49  CB        -5.9620  -25.7180   30.8890 C.3    78  HIS78       0.0759
     50  CG        -5.8290  -25.1630   32.2860 C.ar   78  HIS78       0.0818
     51  ND1       -4.7900  -25.5410   33.1240 N.ar   78  HIS78      -0.2268
     52  CD2       -6.5350  -24.1530   32.9420 C.ar   78  HIS78       0.1154
     53  CE1       -4.8610  -24.8260   34.2550 C.ar   78  HIS78       0.1986
     54  NE2       -5.9580  -23.9670   34.1480 N.ar   78  HIS78      -0.2212
     55  N         -3.2220  -24.5940   30.7740 N.am   79  HIS79      -0.1975
     56  CA        -1.7600  -24.3230   30.6010 C.3    79  HIS79       0.1656
     57  C         -1.0360  -25.5230   29.9550 C.2    79  HIS79       0.2291
     58  O          0.0320  -25.3010   29.3130 O.2    79  HIS79      -0.2864
     59  CB        -1.1040  -24.1740   31.9770 C.3    79  HIS79       0.0771
     60  CG        -1.7660  -23.1690   32.9130 C.ar   79  HIS79       0.0820
     61  ND1       -2.3380  -21.9560   32.4850 N.ar   79  HIS79      -0.2267
     62  CD2       -1.8910  -23.1950   34.3070 C.ar   79  HIS79       0.1154
     63  CE1       -2.7820  -21.2610   33.5880 C.ar   79  HIS79       0.1986
     64  NE2       -2.5080  -21.9970   34.6880 N.ar   79  HIS79      -0.2212
     65  N        -11.7740  -19.3150   27.5410 N.3   124  TYR124     -0.1241
     66  CA       -10.5140  -19.2310   28.3040 C.3   124  TYR124      0.1605
     67  C         -9.5050  -19.9050   27.4000 C.2   124  TYR124      0.2264
     68  O         -9.7090  -21.0560   26.9910 O.2   124  TYR124     -0.2867
     69  CB       -10.7570  -20.0010   29.6450 C.3   124  TYR124      0.0534
     70  CG        -9.4490  -20.2080   30.4430 C.ar  124  TYR124     -0.0201
     71  CD1       -9.3000  -19.5960   31.6710 C.ar  124  TYR124     -0.0009
     72  CD2       -8.4590  -21.0990   30.0080 C.ar  124  TYR124     -0.0009
     73  CE1       -8.1030  -19.7580   32.4600 C.ar  124  TYR124      0.0417
     74  CE2       -7.3080  -21.2480   30.8360 C.ar  124  TYR124      0.0417
     75  CZ        -7.1720  -20.6230   32.0430 C.ar  124  TYR124      0.1957
     76  OH        -5.9640  -20.8560   32.7460 O.3   124  TYR124     -0.2866
     77  N        -11.0730  -14.7840   28.4660 N.3   163  TRP163     -0.1241
     78  CA       -10.4510  -14.7550   29.7620 C.3   163  TRP163      0.1605
     79  C         -9.0150  -15.1840   29.5920 C.2   163  TRP163      0.2264
     80  O         -8.7110  -16.2970   29.1100 O.2   163  TRP163     -0.2867
     81  CB       -11.2320  -15.7970   30.6390 C.3   163  TRP163      0.0550
     82  CG       -11.2830  -15.4560   32.1150 C.ar  163  TRP163      0.0003
     83  CD1      -12.3220  -14.7960   32.7640 C.ar  163  TRP163      0.0946
     84  CD2      -10.3570  -15.8530   33.1590 C.ar  163  TRP163      0.0152
     85  NE1      -12.0960  -14.7040   34.1060 N.ar  163  TRP163     -0.2442
     86  CE2      -10.8970  -15.3490   34.3990 C.ar  163  TRP163      0.0810
     87  CE3       -9.1150  -16.5770   33.1870 C.ar  163  TRP163      0.0012
     88  CZ2      -10.2920  -15.5610   35.6630 C.ar  163  TRP163      0.0191
     89  CZ3       -8.5080  -16.7600   34.4250 C.ar  163  TRP163      0.0001
     90  CH2       -9.0740  -16.3170   35.6580 C.ar  163  TRP163      0.0015
     91  N         -5.6490  -15.7170   31.3400 N.3   165  ASP165     -0.1239
     92  CA        -5.1050  -15.9830   32.6680 C.3   165  ASP165      0.1674
     93  C         -3.6230  -15.5610   32.7410 C.2   165  ASP165      0.2266
     94  O         -2.8730  -15.8060   31.7390 O.2   165  ASP165     -0.2867
     95  CB        -5.1790  -17.5520   32.9080 C.3   165  ASP165      0.1410
     96  CG        -5.0340  -17.9750   34.3680 C.2   165  ASP165      0.3668
     97  OD1       -4.3840  -17.3100   35.1190 O.co2 165  ASP165     -0.2456
     98  OD2       -5.6440  -19.0410   34.6420 O.co2 165  ASP165     -0.2456
     99  N         -1.5500  -16.5630   35.1150 N.3   167  ALA167     -0.1245
    100  CA        -0.6680  -17.5990   35.8110 C.3   167  ALA167      0.1562
    101  C          0.4140  -18.1640   34.8720 C.2   167  ALA167      0.2260
    102  O          0.1920  -18.4400   33.7330 O.2   167  ALA167     -0.2867
    103  CB        -1.5760  -18.7470   36.3520 C.3   167  ALA167      0.0290
    104  N         -8.0740  -16.3690   44.6360 N.3   210  GLU210     -0.1245
    105  CA        -8.9500  -17.4100   44.0350 C.3   210  GLU210      0.1567
    106  C         -9.6930  -18.2130   45.1190 C.2   210  GLU210      0.2260
    107  O        -10.1660  -19.2990   44.7800 O.2   210  GLU210     -0.2867
    108  CB        -8.1530  -18.2970   43.0020 C.3   210  GLU210      0.0388
    109  CG        -7.8740  -17.3960   41.7270 C.3   210  GLU210      0.1160
    110  CD        -7.2290  -18.0610   40.4780 C.2   210  GLU210      0.3649
    111  OE1       -7.6640  -17.7530   39.3410 O.co2 210  GLU210     -0.2457
    112  OE2       -6.3430  -18.9610   40.7200 O.co2 210  GLU210     -0.2457
    113  N        -13.1490  -14.9600   41.2050 N.3   263  ASP263     -0.1239
    114  CA       -13.2780  -16.3180   40.5810 C.3   263  ASP263      0.1674
    115  C        -12.8990  -17.3630   41.6270 C.2   263  ASP263      0.2266
    116  O        -11.9010  -17.2460   42.3030 O.2   263  ASP263     -0.2867
    117  CB       -12.3660  -16.4370   39.3360 C.3   263  ASP263      0.1410
    118  CG       -10.8590  -16.3400   39.6060 C.2   263  ASP263      0.3668
    119  OD1      -10.1500  -17.2480   38.9810 O.co2 263  ASP263     -0.2456
    120  OD2      -10.3900  -15.4630   40.3370 O.co2 263  ASP263     -0.2456
    121  N         -9.7190  -26.7900   40.6280 N.3   270  TRP270     -0.1227
    122  CA       -10.5080  -26.3520   39.4760 C.3   270  TRP270      0.1737
    123  C        -10.9450  -27.4300   38.6100 C.2   270  TRP270      0.2595
    124  O        -12.0430  -27.3940   38.0620 O.2   270  TRP270     -0.2718
    125  CB        -9.5930  -25.3960   38.6390 C.3   270  TRP270      0.0564
    126  CG        -9.2110  -24.1520   39.4310 C.ar  270  TRP270      0.0003
    127  CD1       -8.0290  -23.8740   40.0760 C.ar  270  TRP270      0.0946
    128  CD2       -9.9820  -22.9350   39.5150 C.ar  270  TRP270      0.0152
    129  NE1       -7.9750  -22.6040   40.6240 N.ar  270  TRP270     -0.2442
    130  CE2       -9.2340  -22.0130   40.3180 C.ar  270  TRP270      0.0810
    131  CE3      -11.2720  -22.5820   39.0900 C.ar  270  TRP270      0.0012
    132  CZ2       -9.6640  -20.7180   40.6250 C.ar  270  TRP270      0.0191
    133  CZ3      -11.7260  -21.2960   39.4190 C.ar  270  TRP270      0.0001
    134  CH2      -10.9700  -20.3990   40.2070 C.ar  270  TRP270      0.0015
    135  N        -10.0790  -28.4430   38.3980 N.am  271  PHE271     -0.1976
    136  CA       -10.5080  -29.5610   37.5880 C.3   271  PHE271      0.1639
    137  C        -11.2180  -30.6470   38.4700 C.2   271  PHE271      0.2290
    138  O        -11.1150  -30.5750   39.7280 O.2   271  PHE271     -0.2864
    139  CB        -9.2300  -30.1580   36.8140 C.3   271  PHE271      0.0560
    140  CG        -8.8560  -29.3390   35.6310 C.ar  271  PHE271     -0.0200
    141  CD1       -9.3960  -29.6560   34.4010 C.ar  271  PHE271     -0.0042
    142  CD2       -7.9790  -28.3080   35.8260 C.ar  271  PHE271     -0.0042
    143  CE1       -9.0280  -28.8760   33.2980 C.ar  271  PHE271     -0.0003
    144  CE2       -7.5910  -27.4770   34.7430 C.ar  271  PHE271     -0.0003
    145  CZ        -8.1520  -27.7800   33.5160 C.ar  271  PHE271     -0.0000
@<TRIPOS>BOND
     1    68    67    2
     2    67    66    1
     3    65    66    1
     4    66    69    1
     5    77    78    1
     6    45    46    1
     7    48    47    2
     8    80    79    2
     9    58    57    2
    10    79    78    1
    11    69    70    1
    12    47    46    1
    13    47    55   am
    14    78    81    1
    15    46    49    1
    16    57    56    1
    17    72    70   ar
    18    72    74   ar
    19    70    71   ar
    20    56    55    1
    21    56    59    1
    22    81    82    1
    23    74    75   ar
    24    49    50    1
    25    91    92    1
    26    71    73   ar
    27    94    93    2
    28    59    60    1
    29    75    73   ar
    30    75    76    1
    31    82    83   ar
    32    82    84   ar
    33    50    52   ar
    34    50    51   ar
    35    61    60   ar
    36    61    63   ar
    37    92    93    1
    38    92    95    1
    39    83    85   ar
    40    95    96    1
    41    60    62   ar
    42    52    54   ar
    43    51    53   ar
    44    84    87   ar
    45    84    86   ar
    46    87    89   ar
    47   143   145   ar
    48   143   141   ar
    49    14    13    1
    50    14    15    1
    51   145   144   ar
    52     9     7   ar
    53     9    11   ar
    54    63    64   ar
    55    13    12    1
    56    13    16    1
    57   102   101    2
    58     7     6   ar
    59    85    86   ar
    60    54    53   ar
    61    62    64   ar
    62    96    98   ar
    63    96    97   ar
    64    86    88   ar
    65   141   140   ar
    66    89    90   ar
    67    11    10   ar
    68     3     2    1
    69     3     4    2
    70   144   142   ar
    71     2     1    1
    72     2     5    1
    73   101   100    1
    74    16    17    1
    75    19    17   ar
    76    19    21   ar
    77    99   100    1
    78    17    18   ar
    79     6     5    1
    80     6     8   ar
    81    21    20   ar
    82    18    20   ar
    83    33    32    1
    84    33    34    2
    85   140   142   ar
    86   140   139    1
    87    90    88   ar
    88   100   103    1
    89    10     8   ar
    90    32    35    1
    91    32    31    1
    92    25    24    2
    93    35    36    1
    94   139   136    1
    95    36    37   ar
    96    36    38   ar
    97    37    39   ar
    98    24    31   am
    99    24    23    1
   100    38    41   ar
   101    38    40   ar
   102    39    40   ar
   103   136   135    1
   104   136   137    1
   105    41    43   ar
   106    40    42   ar
   107    43    44   ar
   108   124   123    2
   109    42    44   ar
   110   135   123   am
   111    22    23    1
   112    23    26    1
   113   137   138    2
   114   123   122    1
   115   125   126    1
   116   125   122    1
   117   119   118   ar
   118   131   133   ar
   119   131   128   ar
   120   117   118    1
   121   117   114    1
   122   111   110   ar
   123   133   134   ar
   124   126   128   ar
   125   126   127   ar
   126   122   121    1
   127   128   130   ar
   128   118   120   ar
   129    26    27    1
   130    30    28   ar
   131   127   129   ar
   132   134   132   ar
   133   130   129   ar
   134   130   132   ar
   135    28    29   ar
   136    28    27    1
   137   110   112   ar
   138   110   109    1
   139   114   113    1
   140   114   115    1
   141   115   116    2
   142   109   108    1
   143   108   105    1
   144   105   104    1
   145   105   106    1
   146   107   106    2
