@<TRIPOS>MOLECULE
tmp/3uetB00.pdb
 133 135 0 0 0
SMALL
GASTEIGER

@<TRIPOS>ATOM
      1  N          0.2920   36.9460   26.5700 N.3    26  PHE26      -0.1241
      2  CA         0.2490   36.0260   27.7130 C.3    26  PHE26       0.1605
      3  C         -1.2510   35.6310   27.8630 C.2    26  PHE26       0.2264
      4  O         -2.1140   36.5020   27.6580 O.2    26  PHE26      -0.2867
      5  CB         0.7060   36.8370   28.8990 C.3    26  PHE26       0.0534
      6  CG         1.7120   36.1260   29.7710 C.ar   26  PHE26      -0.0203
      7  CD1        1.7320   34.7260   29.8510 C.ar   26  PHE26      -0.0042
      8  CD2        2.5910   36.8370   30.5390 C.ar   26  PHE26      -0.0042
      9  CE1        2.6360   34.0870   30.6290 C.ar   26  PHE26      -0.0003
     10  CE2        3.5100   36.1780   31.3690 C.ar   26  PHE26      -0.0003
     11  CZ         3.5100   34.8000   31.4210 C.ar   26  PHE26      -0.0000
     12  N         -3.3120   34.3400   30.9080 N.3    28  HIS28      -0.1241
     13  CA        -3.4480   33.7420   32.2620 C.3    28  HIS28       0.1621
     14  C         -4.8850   33.2870   32.3790 C.2    28  HIS28       0.2264
     15  O         -5.8410   34.0620   32.2310 O.2    28  HIS28      -0.2867
     16  CB        -3.2000   34.7380   33.3470 C.3    28  HIS28       0.0745
     17  CG        -1.7400   34.9670   33.6480 C.ar   28  HIS28       0.0817
     18  ND1       -0.9100   35.5420   32.7830 N.ar   28  HIS28      -0.2268
     19  CD2       -0.9730   34.6910   34.8120 C.ar   28  HIS28       0.1154
     20  CE1        0.3410   35.6460   33.3360 C.ar   28  HIS28       0.1986
     21  NE2        0.2920   35.1230   34.5670 N.ar   28  HIS28      -0.2212
     22  N         -6.0820   36.3730   42.3290 N.3    38  GLU38      -0.1231
     23  CA        -4.8450   36.6190   41.6100 C.3    38  GLU38       0.1699
     24  C         -3.8520   35.4840   41.9070 C.2    38  GLU38       0.2592
     25  O         -3.0710   35.0780   41.0270 O.2    38  GLU38      -0.2718
     26  CB        -4.2400   38.0110   41.9480 C.3    38  GLU38       0.0402
     27  CG        -4.8370   39.1330   41.1200 C.3    38  GLU38       0.1161
     28  CD        -4.4370   38.9860   39.6320 C.2    38  GLU38       0.3649
     29  OE1       -3.2620   39.1830   39.2680 O.co2  38  GLU38      -0.2457
     30  OE2       -5.3100   38.6550   38.8300 O.co2  38  GLU38      -0.2457
     31  N         -3.8810   34.9830   43.1470 N.am   39  TRP39      -0.1976
     32  CA        -3.1470   33.7330   43.5260 C.3    39  TRP39       0.1640
     33  C         -4.1010   32.7130   44.0970 C.2    39  TRP39       0.2290
     34  O         -4.8870   33.0460   44.9590 O.2    39  TRP39      -0.2864
     35  CB        -2.0460   34.0260   44.5310 C.3    39  TRP39       0.0576
     36  CG        -0.7630   34.5730   43.8670 C.ar   39  TRP39       0.0006
     37  CD1       -0.5280   34.9020   42.4690 C.ar   39  TRP39       0.0946
     38  CD2        0.4930   34.9190   44.5690 C.ar   39  TRP39       0.0152
     39  NE1        0.7430   35.4110   42.2840 N.ar   39  TRP39      -0.2442
     40  CE2        1.4280   35.4380   43.5300 C.ar   39  TRP39       0.0810
     41  CE3        0.9360   34.8190   45.9110 C.ar   39  TRP39       0.0012
     42  CZ2        2.7370   35.8620   43.8690 C.ar   39  TRP39       0.0191
     43  CZ3        2.2510   35.2420   46.2260 C.ar   39  TRP39       0.0001
     44  CH2        3.1230   35.7530   45.2320 C.ar   39  TRP39       0.0015
     45  N         -0.6460   27.3190   36.7900 N.3    77  HIS77      -0.1226
     46  CA        -0.1730   28.4320   37.6460 C.3    77  HIS77       0.1752
     47  C          0.2270   27.9170   39.0320 C.2    77  HIS77       0.2596
     48  O          0.2660   26.6620   39.2550 O.2    77  HIS77      -0.2718
     49  CB        -1.2310   29.5650   37.6910 C.3    77  HIS77       0.0759
     50  CG        -0.6340   30.9120   37.9410 C.ar   77  HIS77       0.0818
     51  ND1       -0.5450   31.4490   39.1810 N.ar   77  HIS77      -0.2268
     52  CD2       -0.0200   31.8290   37.0570 C.ar   77  HIS77       0.1154
     53  CE1        0.0710   32.6670   39.0970 C.ar   77  HIS77       0.1986
     54  NE2        0.3760   32.8940   37.7890 N.ar   77  HIS77      -0.2212
     55  N          0.5820   28.8180   39.9710 N.am   78  HIS78      -0.1975
     56  CA         1.0730   28.3550   41.3280 C.3    78  HIS78       0.1656
     57  C          0.1110   27.5160   42.0830 C.2    78  HIS78       0.2291
     58  O          0.5100   26.7710   42.9800 O.2    78  HIS78      -0.2864
     59  CB         1.3930   29.5250   42.2630 C.3    78  HIS78       0.0771
     60  CG         2.1950   30.6190   41.6140 C.ar   78  HIS78       0.0820
     61  ND1        3.3040   30.3640   40.7920 N.ar   78  HIS78      -0.2267
     62  CD2        2.0940   32.0030   41.7190 C.ar   78  HIS78       0.1154
     63  CE1        3.8600   31.5360   40.4180 C.ar   78  HIS78       0.1986
     64  NE2        3.1050   32.5420   40.9570 N.ar   78  HIS78      -0.2212
     65  N          3.6470   28.1850   29.9180 N.3   123  TYR123     -0.1241
     66  CA         4.1340   28.6440   31.1970 C.3   123  TYR123      0.1605
     67  C          3.7780   27.4990   32.1410 C.2   123  TYR123      0.2264
     68  O          2.6220   27.0240   32.1130 O.2   123  TYR123     -0.2867
     69  CB         3.3530   29.9090   31.5070 C.3   123  TYR123      0.0534
     70  CG         3.3970   30.4000   32.9430 C.ar  123  TYR123     -0.0201
     71  CD1        3.9330   31.6660   33.2410 C.ar  123  TYR123     -0.0009
     72  CD2        2.8540   29.6420   33.9870 C.ar  123  TYR123     -0.0009
     73  CE1        3.9230   32.1570   34.5490 C.ar  123  TYR123      0.0417
     74  CE2        2.8850   30.1230   35.3150 C.ar  123  TYR123      0.0417
     75  CZ         3.4270   31.3800   35.5830 C.ar  123  TYR123      0.1957
     76  OH         3.4220   31.8520   36.8960 O.3   123  TYR123     -0.2866
     77  N          8.3110   29.4780   29.8120 N.3   162  TRP162     -0.1241
     78  CA         8.3550   30.7170   30.5710 C.3   162  TRP162      0.1605
     79  C          8.2830   30.2860   31.9980 C.2   162  TRP162      0.2264
     80  O          7.2820   29.7410   32.3960 O.2   162  TRP162     -0.2867
     81  CB         7.1230   31.5580   30.1910 C.3   162  TRP162      0.0550
     82  CG         7.2840   33.0200   30.3890 C.ar  162  TRP162      0.0003
     83  CD1        7.5940   33.9800   29.4160 C.ar  162  TRP162      0.0946
     84  CD2        7.1360   33.7850   31.6640 C.ar  162  TRP162      0.0152
     85  NE1        7.6780   35.2430   29.9990 N.ar  162  TRP162     -0.2442
     86  CE2        7.4280   35.1820   31.3420 C.ar  162  TRP162      0.0810
     87  CE3        6.8870   33.4390   33.0110 C.ar  162  TRP162      0.0012
     88  CZ2        7.3490   36.2140   32.3160 C.ar  162  TRP162      0.0191
     89  CZ3        6.8400   34.4900   34.0070 C.ar  162  TRP162      0.0001
     90  CH2        7.0620   35.8440   33.6470 C.ar  162  TRP162      0.0015
     91  N          8.6710   31.0420   35.9910 N.3   164  ALA164     -0.1245
     92  CA         8.6030   32.0370   37.1110 C.3   164  ALA164      0.1562
     93  C          9.3150   31.4410   38.3360 C.2   164  ALA164      0.2260
     94  O          9.3160   30.2250   38.5080 O.2   164  ALA164     -0.2867
     95  CB         7.1420   32.3380   37.4380 C.3   164  ALA164      0.0290
     96  N          6.8930   44.9390   35.8600 N.3   209  ALA209     -0.1245
     97  CA         5.6830   44.4000   35.2390 C.3   209  ALA209      0.1562
     98  C          4.6710   45.5040   34.9320 C.2   209  ALA209      0.2260
     99  O          3.4740   45.2440   34.7090 O.2   209  ALA209     -0.2867
    100  CB         5.0580   43.3080   36.1170 C.3   209  ALA209      0.0290
    101  N          7.0620   42.4750   30.1960 N.3   261  ASP261     -0.1239
    102  CA         5.7140   41.8570   30.3390 C.3   261  ASP261      0.1674
    103  C          4.7260   42.7730   31.1020 C.2   261  ASP261      0.2266
    104  O          5.0910   43.5230   32.0620 O.2   261  ASP261     -0.2867
    105  CB         5.7680   40.4840   31.0210 C.3   261  ASP261      0.1410
    106  CG         6.2450   40.6080   32.5190 C.2   261  ASP261      0.3668
    107  OD1        5.6170   40.0000   33.3930 O.co2 261  ASP261     -0.2456
    108  OD2        7.1810   41.4080   32.7860 O.co2 261  ASP261     -0.2456
    109  N         -3.6070   39.8920   36.5620 N.3   268  TRP268     -0.1227
    110  CA        -3.1060   39.0350   35.4920 C.3   268  TRP268      0.1737
    111  C         -4.2460   38.1350   35.0950 C.2   268  TRP268      0.2595
    112  O         -4.4720   37.8910   33.9000 O.2   268  TRP268     -0.2718
    113  CB        -1.9190   38.2430   35.9960 C.3   268  TRP268      0.0564
    114  CG        -0.6730   39.1000   36.1870 C.ar  268  TRP268      0.0003
    115  CD1       -0.1370   39.6790   37.3700 C.ar  268  TRP268      0.0946
    116  CD2        0.2320   39.4740   35.1270 C.ar  268  TRP268      0.0152
    117  NE1        1.0540   40.3380   37.0910 N.ar  268  TRP268     -0.2442
    118  CE2        1.3150   40.2730   35.7440 C.ar  268  TRP268      0.0810
    119  CE3        0.2740   39.2190   33.7750 C.ar  268  TRP268      0.0012
    120  CZ2        2.3580   40.8150   34.9770 C.ar  268  TRP268      0.0191
    121  CZ3        1.3650   39.7560   32.9970 C.ar  268  TRP268      0.0001
    122  CH2        2.3920   40.5010   33.5870 C.ar  268  TRP268      0.0015
    123  N         -4.9960   37.6480   36.0780 N.am  269  PHE269     -0.1976
    124  CA        -6.1960   36.8470   35.7760 C.3   269  PHE269      0.1639
    125  C         -7.4130   37.7920   35.5510 C.2   269  PHE269      0.2290
    126  O         -7.3630   38.9770   35.9120 O.2   269  PHE269     -0.2864
    127  CB        -6.4550   35.7750   36.8900 C.3   269  PHE269      0.0560
    128  CG        -5.4650   34.6520   36.8620 C.ar  269  PHE269     -0.0200
    129  CD1       -5.7100   33.4790   36.0580 C.ar  269  PHE269     -0.0042
    130  CD2       -4.2480   34.7380   37.5670 C.ar  269  PHE269     -0.0042
    131  CE1       -4.7790   32.4480   36.0120 C.ar  269  PHE269     -0.0003
    132  CE2       -3.2920   33.7060   37.5070 C.ar  269  PHE269     -0.0003
    133  CZ        -3.5510   32.5610   36.7490 C.ar  269  PHE269     -0.0000
@<TRIPOS>BOND
     1     1     2    1
     2     4     3    2
     3     2     3    1
     4     2     5    1
     5     5     6    1
     6    83    85   ar
     7    83    82   ar
     8     6     7   ar
     9     6     8   ar
    10    77    78    1
    11     7     9   ar
    12    65    66    1
    13    85    86   ar
    14    81    82    1
    15    81    78    1
    16   101   102    1
    17   102   105    1
    18   102   103    1
    19    82    84   ar
    20     8    10   ar
    21    78    79    1
    22     9    11   ar
    23    12    13    1
    24   105   106    1
    25   103   104    2
    26    66    69    1
    27    66    67    1
    28    86    84   ar
    29    86    88   ar
    30    10    11   ar
    31    69    70    1
    32    84    87   ar
    33    79    80    2
    34    68    67    2
    35    15    14    2
    36    13    14    1
    37    13    16    1
    38    88    90   ar
    39   106   108   ar
    40   106   107   ar
    41    18    20   ar
    42    18    17   ar
    43    70    71   ar
    44    70    72   ar
    45   121   122   ar
    46   121   119   ar
    47    87    89   ar
    48    71    73   ar
    49    20    21   ar
    50    16    17    1
    51   122   120   ar
    52    90    89   ar
    53    17    19   ar
    54   119   116   ar
    55   112   111    2
    56    72    74   ar
    57    73    75   ar
    58    21    19   ar
    59    99    98    2
    60    98    97    1
    61   120   118   ar
    62   111   110    1
    63   111   123   am
    64   116   118   ar
    65   116   114   ar
    66    97    96    1
    67    97   100    1
    68    74    75   ar
    69   110   113    1
    70   110   109    1
    71   125   124    1
    72   125   126    2
    73    75    76    1
    74   118   117   ar
    75   124   123    1
    76   124   127    1
    77    91    92    1
    78   113   114    1
    79   131   129   ar
    80   131   133   ar
    81   129   128   ar
    82   114   115   ar
    83   133   132   ar
    84    45    46    1
    85   128   127    1
    86   128   130   ar
    87    52    54   ar
    88    52    50   ar
    89   117   115   ar
    90    92    95    1
    91    92    93    1
    92   132   130   ar
    93    46    49    1
    94    46    47    1
    95    49    50    1
    96    54    53   ar
    97    50    51   ar
    98    93    94    2
    99    30    28   ar
   100    47    48    2
   101    47    55   am
   102    53    51   ar
   103    29    28   ar
   104    28    27    1
   105    55    56    1
   106    63    61   ar
   107    63    64   ar
   108    61    60   ar
   109    64    62   ar
   110    25    24    2
   111    27    26    1
   112    56    57    1
   113    56    59    1
   114    23    24    1
   115    23    26    1
   116    23    22    1
   117    60    62   ar
   118    60    59    1
   119    24    31   am
   120    57    58    2
   121    39    37   ar
   122    39    40   ar
   123    37    36   ar
   124    31    32    1
   125    32    33    1
   126    32    35    1
   127    40    42   ar
   128    40    38   ar
   129    36    35    1
   130    36    38   ar
   131    42    44   ar
   132    33    34    2
   133    38    41   ar
   134    44    43   ar
   135    41    43   ar
