@<TRIPOS>MOLECULE
tmp/3uetA00.pdb
 181 181 0 0 0
SMALL
GASTEIGER

@<TRIPOS>ATOM
      1  N         40.6810   17.0820    8.8350 N.3    26  PHE26      -0.1298
      2  CA        41.5450   17.5900    9.9090 C.3    26  PHE26       0.1290
      3  C         42.8660   18.0380    9.1740 C.3    26  PHE26       0.2013
      4  O         43.2880   17.3980    8.1360 O.3    26  PHE26      -0.2188
      5  CB        41.7540   16.4130   10.8980 C.3    26  PHE26       0.0480
      6  CG        41.5620   16.7590   12.3760 C.ar   26  PHE26      -0.0206
      7  CD1       41.7180   18.0310   12.8370 C.ar   26  PHE26      -0.0042
      8  CD2       41.2760   15.7440   13.2930 C.ar   26  PHE26      -0.0042
      9  CE1       41.5820   18.3150   14.2010 C.ar   26  PHE26      -0.0003
     10  CE2       41.1590   16.0180   14.6820 C.ar   26  PHE26      -0.0003
     11  CZ        41.2590   17.2980   15.1030 C.ar   26  PHE26      -0.0000
     12  N         46.5800   18.6700   10.5840 N.3    28  HIS28      -0.1241
     13  CA        47.5870   18.8030   11.6650 C.3    28  HIS28       0.1621
     14  C         48.8240   19.3360   10.9830 C.2    28  HIS28       0.2264
     15  O         49.3970   18.6780   10.1580 O.2    28  HIS28      -0.2867
     16  CB        47.8220   17.4600   12.3830 C.3    28  HIS28       0.0745
     17  CG        46.8250   17.1430   13.5210 C.ar   28  HIS28       0.0817
     18  ND1       45.5240   16.7540   13.2880 N.ar   28  HIS28      -0.2268
     19  CD2       47.0020   17.0750   14.9290 C.ar   28  HIS28       0.1154
     20  CE1       44.9190   16.4910   14.4650 C.ar   28  HIS28       0.1986
     21  NE2       45.8070   16.6710   15.4600 N.ar   28  HIS28      -0.2212
     22  N         55.1580   13.7790   16.8110 N.3    38  GLU38      -0.1231
     23  CA        53.6820   13.7730   17.1210 C.3    38  GLU38       0.1699
     24  C         53.2550   14.6790   18.2460 C.2    38  GLU38       0.2592
     25  O         52.1680   15.2380   18.1820 O.2    38  GLU38      -0.2718
     26  CB        53.1860   12.3720   17.4120 C.3    38  GLU38       0.0402
     27  CG        53.1710   11.4740   16.1940 C.3    38  GLU38       0.1161
     28  CD        52.0820   11.9490   15.2240 C.2    38  GLU38       0.3649
     29  OE1       50.8740   11.8120   15.5350 O.co2  38  GLU38      -0.2457
     30  OE2       52.4490   12.5400   14.2070 O.co2  38  GLU38      -0.2457
     31  N         54.0800   14.7860   19.2890 N.am   39  TRP39      -0.1976
     32  CA        53.9280   15.8140   20.2980 C.3    39  TRP39       0.1640
     33  C         55.1380   16.6630   20.3630 C.2    39  TRP39       0.2290
     34  O         56.2310   16.1500   20.3190 O.2    39  TRP39      -0.2864
     35  CB        53.7300   15.1690   21.6490 C.3    39  TRP39       0.0576
     36  CG        52.3240   14.6550   21.8410 C.ar   39  TRP39       0.0006
     37  CD1       51.2700   14.6080   20.8850 C.ar   39  TRP39       0.0946
     38  CD2       51.7660   14.0350   23.0680 C.ar   39  TRP39       0.0152
     39  NE1       50.1440   14.0550   21.4420 N.ar   39  TRP39      -0.2442
     40  CE2       50.3680   13.6690   22.7440 C.ar   39  TRP39       0.0810
     41  CE3       52.2580   13.7970   24.3710 C.ar   39  TRP39       0.0012
     42  CZ2       49.5080   13.0870   23.6980 C.ar   39  TRP39       0.0191
     43  CZ3       51.3970   13.2010   25.3190 C.ar   39  TRP39       0.0001
     44  CH2       50.0540   12.8420   24.9890 C.ar   39  TRP39       0.0015
     45  N         48.6160   23.4690   18.6280 N.3    77  HIS77      -0.1226
     46  CA        48.7090   22.1560   19.1920 C.3    77  HIS77       0.1752
     47  C         49.3310   22.1770   20.6170 C.2    77  HIS77       0.2596
     48  O         49.5460   23.2650   21.1520 O.2    77  HIS77      -0.2718
     49  CB        49.4150   21.2320   18.1940 C.3    77  HIS77       0.0759
     50  CG        48.9880   19.8020   18.3220 C.ar   77  HIS77       0.0818
     51  ND1       49.7480   18.8870   18.9330 N.ar   77  HIS77      -0.2268
     52  CD2       47.8230   19.1480   17.9260 C.ar   77  HIS77       0.1154
     53  CE1       49.1400   17.6950   18.9040 C.ar   77  HIS77       0.1986
     54  NE2       47.9580   17.8440   18.2910 N.ar   77  HIS77      -0.2212
     55  N         49.5560   21.0170   21.2460 N.am   78  HIS78      -0.1975
     56  CA        50.0250   20.9610   22.6880 C.3    78  HIS78       0.1656
     57  C         51.3300   21.7560   22.8870 C.2    78  HIS78       0.2291
     58  O         51.5920   22.2710   23.9630 O.2    78  HIS78      -0.2864
     59  CB        50.1790   19.4790   23.1990 C.3    78  HIS78       0.0771
     60  CG        49.0330   18.5660   22.8430 C.ar   78  HIS78       0.0820
     61  ND1       47.7360   18.9990   22.7380 N.ar   78  HIS78      -0.2267
     62  CD2       48.9980   17.1960   22.5920 C.ar   78  HIS78       0.1154
     63  CE1       46.9180   17.9440   22.4650 C.ar   78  HIS78       0.1986
     64  NE2       47.6850   16.8500   22.3450 N.ar   78  HIS78      -0.2212
     65  N         41.1450   24.1180   15.8200 N.3   123  TYR123     -0.1241
     66  CA        41.5600   23.2660   16.9060 C.3   123  TYR123      0.1605
     67  C         42.4740   24.1630   17.7240 C.2   123  TYR123      0.2264
     68  O         43.4580   24.7320   17.1480 O.2   123  TYR123     -0.2867
     69  CB        42.3940   22.1660   16.2810 C.3   123  TYR123      0.0534
     70  CG        43.0520   21.1870   17.2360 C.ar  123  TYR123     -0.0201
     71  CD1       42.6540   19.8680   17.2440 C.ar  123  TYR123     -0.0009
     72  CD2       44.1690   21.5700   18.0240 C.ar  123  TYR123     -0.0009
     73  CE1       43.2960   18.9250   18.0650 C.ar  123  TYR123      0.0417
     74  CE2       44.8120   20.6590   18.8610 C.ar  123  TYR123      0.0417
     75  CZ        44.3590   19.3380   18.9000 C.ar  123  TYR123      0.1957
     76  OH        44.9460   18.3800   19.6930 O.3   123  TYR123     -0.2866
     77  N         37.2380   22.6520   18.2700 N.3   162  TRP162     -0.1241
     78  CA        37.5300   21.2830   18.5780 C.3   162  TRP162      0.1605
     79  C         38.4720   21.3470   19.7510 C.2   162  TRP162      0.2264
     80  O         39.5870   21.8590   19.6080 O.2   162  TRP162     -0.2867
     81  CB        38.2060   20.6550   17.3540 C.3   162  TRP162      0.0550
     82  CG        37.9880   19.1700   17.1660 C.ar  162  TRP162      0.0003
     83  CD1       37.0270   18.5530   16.4400 C.ar  162  TRP162      0.0946
     84  CD2       38.7830   18.0820   17.7360 C.ar  162  TRP162      0.0152
     85  NE1       37.1590   17.1720   16.4890 N.ar  162  TRP162     -0.2442
     86  CE2       38.2110   16.8320   17.2160 C.ar  162  TRP162      0.0810
     87  CE3       39.8920   18.0250   18.5510 C.ar  162  TRP162      0.0012
     88  CZ2       38.7190   15.5840   17.5510 C.ar  162  TRP162      0.0191
     89  CZ3       40.3920   16.7570   18.8860 C.ar  162  TRP162      0.0001
     90  CH2       39.8380   15.5740   18.3530 C.ar  162  TRP162      0.0015
     91  N         40.6410   19.3650   22.3660 N.3   164  ALA164     -0.1231
     92  CA        41.2340   18.0280   22.5770 C.3   164  ALA164      0.1694
     93  C         41.3720   17.6630   24.0590 C.2   164  ALA164      0.2593
     94  O         41.6440   18.5060   24.9360 O.2   164  ALA164     -0.2718
     95  CB        42.5530   17.8530   21.8720 C.3   164  ALA164      0.0304
     96  N         41.1190   16.3980   24.3220 N.am  165  GLY165     -0.1942
     97  CA        41.1890   15.9600   25.6830 C.3   165  GLY165      0.2014
     98  C         42.6140   15.6320   26.0790 C.2   165  GLY165      0.2638
     99  O         42.8900   15.6150   27.2810 O.2   165  GLY165     -0.2714
    100  N         43.5220   15.3890   25.1000 N.am  166  ALA166     -0.1977
    101  CA        44.8880   14.8630   25.4420 C.3   166  ALA166      0.1597
    102  C         45.6290   15.6750   26.5870 C.2   166  ALA166      0.2287
    103  O         45.6320   16.8890   26.6090 O.2   166  ALA166     -0.2864
    104  CB        45.7760   14.6530   24.1830 C.3   166  ALA166      0.0319
    105  N         34.1850   17.3460   21.3600 N.3   198  VAL198     -0.1245
    106  CA        35.0420   16.4620   22.1480 C.3   198  VAL198      0.1561
    107  C         34.9340   16.9640   23.5970 C.2   198  VAL198      0.2260
    108  O         34.0560   16.4680   24.3360 O.2   198  VAL198     -0.2867
    109  CB        36.4810   16.2750   21.6140 C.3   198  VAL198      0.0252
    110  CG1       37.2710   15.3100   22.5340 C.3   198  VAL198      0.0019
    111  CG2       36.4490   15.7130   20.1880 C.3   198  VAL198      0.0019
    112  N         33.3180   12.7650   20.7530 N.3   205  TRP205     -0.1241
    113  CA        34.3780   11.8850   20.2540 C.3   205  TRP205      0.1605
    114  C         33.9020   10.4410   20.1910 C.2   205  TRP205      0.2264
    115  O         33.4420    9.9010   21.2070 O.2   205  TRP205     -0.2867
    116  CB        35.6080   12.0000   21.1650 C.3   205  TRP205      0.0550
    117  CG        36.7320   11.0420   20.7740 C.ar  205  TRP205      0.0003
    118  CD1       37.2510   10.8150   19.4740 C.ar  205  TRP205      0.0946
    119  CD2       37.4520   10.1310   21.6240 C.ar  205  TRP205      0.0152
    120  NE1       38.1710    9.8580   19.4970 N.ar  205  TRP205     -0.2442
    121  CE2       38.3850    9.4260   20.7570 C.ar  205  TRP205      0.0810
    122  CE3       37.4420    9.8420   22.9950 C.ar  205  TRP205      0.0012
    123  CZ2       39.2690    8.4580   21.2470 C.ar  205  TRP205      0.0191
    124  CZ3       38.3510    8.8700   23.4780 C.ar  205  TRP205      0.0001
    125  CH2       39.2470    8.1960   22.6230 C.ar  205  TRP205      0.0015
    126  N         40.4130    6.2180   17.7150 N.3   209  ALA209     -0.1245
    127  CA        41.0250    7.1010   16.6930 C.3   209  ALA209      0.1562
    128  C         41.3810    6.3270   15.4590 C.2   209  ALA209      0.2260
    129  O         42.1600    6.7980   14.6570 O.2   209  ALA209     -0.2867
    130  CB        42.2960    7.7190   17.2930 C.3   209  ALA209      0.0290
    131  N         35.4400   13.6080   28.5490 N.3   229  GLU229     -0.1245
    132  CA        36.8000   13.8260   28.0540 C.3   229  GLU229      0.1567
    133  C         37.4740   14.9720   28.8360 C.2   229  GLU229      0.2260
    134  O         38.6550   15.2530   28.6340 O.2   229  GLU229     -0.2867
    135  CB        36.7890   14.0450   26.4990 C.3   229  GLU229      0.0388
    136  CG        36.2480   12.8530   25.6940 C.3   229  GLU229      0.1160
    137  CD        37.0600   11.5710   25.9720 C.2   229  GLU229      0.3649
    138  OE1       38.3150   11.6650   25.9080 O.co2 229  GLU229     -0.2457
    139  OE2       36.4960   10.4650   26.2130 O.co2 229  GLU229     -0.2457
    140  N         34.4040    5.3530   25.0300 N.3   236  GLN236     -0.1245
    141  CA        34.8490    4.1100   24.4030 C.3   236  GLN236      0.1566
    142  C         33.8360    2.9940   24.5290 C.2   236  GLN236      0.2260
    143  O         33.9230    2.0710   23.7410 O.2   236  GLN236     -0.2867
    144  CB        36.1820    3.5470   25.0140 C.3   236  GLN236      0.0367
    145  CG        37.4500    4.3200   24.7530 C.3   236  GLN236      0.0905
    146  CD        37.7490    5.4240   25.7720 C.2   236  GLN236      0.2608
    147  OE1       36.9110    5.8140   26.6390 O.2   236  GLN236     -0.2717
    148  NE2       38.9700    5.9640   25.6640 N.am  236  GLN236     -0.0878
    149  N         37.0510   10.1360   14.2040 N.3   261  ASP261     -0.1239
    150  CA        38.2290   10.8440   13.7200 C.3   261  ASP261      0.1674
    151  C         39.3400    9.8360   13.4580 C.2   261  ASP261      0.2266
    152  O         39.4910    8.8700   14.2140 O.2   261  ASP261     -0.2867
    153  CB        38.7150   11.9070   14.7270 C.3   261  ASP261      0.1410
    154  CG        39.1540   11.2820   16.0710 C.2   261  ASP261      0.3668
    155  OD1       40.2430   11.5860   16.5500 O.co2 261  ASP261     -0.2456
    156  OD2       38.4320   10.4260   16.6070 O.co2 261  ASP261     -0.2456
    157  N         49.3470   11.7100   13.1970 N.3   268  TRP268     -0.1227
    158  CA        48.6050   12.9360   12.8530 C.3   268  TRP268      0.1737
    159  C         49.4410   13.9600   12.0930 C.2   268  TRP268      0.2595
    160  O         48.9340   14.6080   11.1790 O.2   268  TRP268     -0.2718
    161  CB        48.0410   13.5760   14.1220 C.3   268  TRP268      0.0564
    162  CG        47.1330   12.6220   14.8460 C.ar  268  TRP268      0.0003
    163  CD1       47.4570   11.7600   15.9000 C.ar  268  TRP268      0.0946
    164  CD2       45.7200   12.3910   14.5760 C.ar  268  TRP268      0.0152
    165  NE1       46.3650   10.9930   16.2580 N.ar  268  TRP268     -0.2442
    166  CE2       45.2800   11.3540   15.5300 C.ar  268  TRP268      0.0810
    167  CE3       44.7760   12.9740   13.7180 C.ar  268  TRP268      0.0012
    168  CZ2       43.9600   10.9270   15.5780 C.ar  268  TRP268      0.0191
    169  CZ3       43.4750   12.5050   13.7500 C.ar  268  TRP268      0.0001
    170  CH2       43.0670   11.5230   14.6480 C.ar  268  TRP268      0.0015
    171  N         50.7070   14.1520   12.4870 N.am  269  PHE269     -0.1976
    172  CA        51.5830   15.0750   11.7300 C.3   269  PHE269      0.1639
    173  C         52.2600   14.3070   10.5720 C.2   269  PHE269      0.2290
    174  O         52.2270   13.0410   10.5690 O.2   269  PHE269     -0.2864
    175  CB        52.5590   15.8300   12.6340 C.3   269  PHE269      0.0560
    176  CG        51.8930   16.8220   13.4910 C.ar  269  PHE269     -0.0200
    177  CD1       51.6850   18.1050   13.0370 C.ar  269  PHE269     -0.0042
    178  CD2       51.3510   16.4540   14.7180 C.ar  269  PHE269     -0.0042
    179  CE1       50.9880   19.0200   13.8320 C.ar  269  PHE269     -0.0003
    180  CE2       50.6570   17.3690   15.5310 C.ar  269  PHE269     -0.0003
    181  CZ        50.4950   18.6690   15.0830 C.ar  269  PHE269     -0.0000
@<TRIPOS>BOND
     1     4     3    1
     2     1     2    1
     3     3     2    1
     4     2     5    1
     5    15    14    2
     6   174   173    2
     7   173   172    1
     8    12    13    1
     9     5     6    1
    10    14    13    1
    11   160   159    2
    12    13    16    1
    13   172   171    1
    14   172   175    1
    15   159   171   am
    16   159   158    1
    17     6     7   ar
    18     6     8   ar
    19    16    17    1
    20   175   176    1
    21     7     9   ar
    22   158   157    1
    23   158   161    1
    24   177   176   ar
    25   177   179   ar
    26    18    17   ar
    27    18    20   ar
    28     8    10   ar
    29   151   150    1
    30   151   152    2
    31   176   178   ar
    32    17    19   ar
    33   167   169   ar
    34   167   164   ar
    35   150   149    1
    36   150   153    1
    37   169   170   ar
    38   179   181   ar
    39   161   162    1
    40     9    11   ar
    41    30    28   ar
    42    20    21   ar
    43   164   162   ar
    44   164   166   ar
    45   170   168   ar
    46   129   128    2
    47    10    11   ar
    48   178   180   ar
    49   153   154    1
    50   162   163   ar
    51    19    21   ar
    52   181   180   ar
    53    28    29   ar
    54    28    27    1
    55   128   127    1
    56   166   168   ar
    57   166   165   ar
    58    65    66    1
    59   163   165   ar
    60   154   155   ar
    61   154   156   ar
    62    27    26    1
    63    69    66    1
    64    69    70    1
    65    83    85   ar
    66    83    82   ar
    67    85    86   ar
    68   127   130    1
    69   127   126    1
    70    22    23    1
    71    66    67    1
    72    23    26    1
    73    23    24    1
    74    68    67    2
    75    82    81    1
    76    82    84   ar
    77    86    88   ar
    78    86    84   ar
    79    70    71   ar
    80    70    72   ar
    81    71    73   ar
    82    81    78    1
    83    88    90   ar
    84    84    87   ar
    85    52    54   ar
    86    52    50   ar
    87    72    74   ar
    88    73    75   ar
    89    25    24    2
    90    49    50    1
    91    49    46    1
    92    24    31   am
    93    77    78    1
    94    54    53   ar
    95    50    51   ar
    96    90    89   ar
    97    87    89   ar
    98    78    79    1
    99    45    46    1
   100    74    75   ar
   101    75    76    1
   102    53    51   ar
   103    46    47    1
   104    31    32    1
   105   118   120   ar
   106   118   117   ar
   107   120   121   ar
   108    80    79    2
   109   111   109    1
   110   114   113    1
   111   114   115    2
   112   113   112    1
   113   113   116    1
   114    32    33    1
   115    32    35    1
   116    34    33    2
   117    47    48    2
   118    47    55   am
   119   121   123   ar
   120   121   119   ar
   121   117   116    1
   122   117   119   ar
   123    37    39   ar
   124    37    36   ar
   125    55    56    1
   126   123   125   ar
   127   105   106    1
   128    39    40   ar
   129   109   106    1
   130   109   110    1
   131   119   122   ar
   132    35    36    1
   133    36    38   ar
   134    95    92    1
   135   106   107    1
   136    64    63   ar
   137    64    62   ar
   138    91    92    1
   139    63    61   ar
   140    92    93    1
   141    62    60   ar
   142   125   124   ar
   143    56    57    1
   144    56    59    1
   145    61    60   ar
   146    40    38   ar
   147    40    42   ar
   148    60    59    1
   149    57    58    2
   150   122   124   ar
   151    38    41   ar
   152   107   108    2
   153    42    44   ar
   154   143   142    2
   155    93    96   am
   156    93    94    2
   157   104   101    1
   158    96    97    1
   159    41    43   ar
   160   141   142    1
   161   141   144    1
   162   141   140    1
   163   145   144    1
   164   145   146    1
   165    44    43   ar
   166   100   101    1
   167   100    98   am
   168   101   102    1
   169   148   146   am
   170    97    98    1
   171   136   137    1
   172   136   135    1
   173   146   147    2
   174   138   137   ar
   175   137   139   ar
   176    98    99    2
   177   135   132    1
   178   102   103    2
   179   132   131    1
   180   132   133    1
   181   134   133    2
