@<TRIPOS>MOLECULE
tmp/3uetB01.pdb
 127 125 0 0 0
SMALL
GASTEIGER

@<TRIPOS>ATOM
      1  N         -6.0820   36.3730   42.3290 N.3    38  GLU38      -0.1231
      2  CA        -4.8450   36.6190   41.6100 C.3    38  GLU38       0.1699
      3  C         -3.8520   35.4840   41.9070 C.2    38  GLU38       0.2592
      4  O         -3.0710   35.0780   41.0270 O.2    38  GLU38      -0.2718
      5  CB        -4.2400   38.0110   41.9480 C.3    38  GLU38       0.0402
      6  CG        -4.8370   39.1330   41.1200 C.3    38  GLU38       0.1161
      7  CD        -4.4370   38.9860   39.6320 C.2    38  GLU38       0.3649
      8  OE1       -3.2620   39.1830   39.2680 O.co2  38  GLU38      -0.2457
      9  OE2       -5.3100   38.6550   38.8300 O.co2  38  GLU38      -0.2457
     10  N         -3.8810   34.9830   43.1470 N.am   39  TRP39      -0.1976
     11  CA        -3.1470   33.7330   43.5260 C.3    39  TRP39       0.1640
     12  C         -4.1010   32.7130   44.0970 C.2    39  TRP39       0.2290
     13  O         -4.8870   33.0460   44.9590 O.2    39  TRP39      -0.2864
     14  CB        -2.0460   34.0260   44.5310 C.3    39  TRP39       0.0576
     15  CG        -0.7630   34.5730   43.8670 C.ar   39  TRP39       0.0006
     16  CD1       -0.5280   34.9020   42.4690 C.ar   39  TRP39       0.0946
     17  CD2        0.4930   34.9190   44.5690 C.ar   39  TRP39       0.0152
     18  NE1        0.7430   35.4110   42.2840 N.ar   39  TRP39      -0.2442
     19  CE2        1.4280   35.4380   43.5300 C.ar   39  TRP39       0.0810
     20  CE3        0.9360   34.8190   45.9110 C.ar   39  TRP39       0.0012
     21  CZ2        2.7370   35.8620   43.8690 C.ar   39  TRP39       0.0191
     22  CZ3        2.2510   35.2420   46.2260 C.ar   39  TRP39       0.0001
     23  CH2        3.1230   35.7530   45.2320 C.ar   39  TRP39       0.0015
     24  N          0.5820   28.8180   39.9710 N.3    78  HIS78      -0.1241
     25  CA         1.0730   28.3550   41.3280 C.3    78  HIS78       0.1621
     26  C          0.1110   27.5160   42.0830 C.2    78  HIS78       0.2264
     27  O          0.5100   26.7710   42.9800 O.2    78  HIS78      -0.2867
     28  CB         1.3930   29.5250   42.2630 C.3    78  HIS78       0.0745
     29  CG         2.1950   30.6190   41.6140 C.ar   78  HIS78       0.0817
     30  ND1        3.3040   30.3640   40.7920 N.ar   78  HIS78      -0.2268
     31  CD2        2.0940   32.0030   41.7190 C.ar   78  HIS78       0.1154
     32  CE1        3.8600   31.5360   40.4180 C.ar   78  HIS78       0.1986
     33  NE2        3.1050   32.5420   40.9570 N.ar   78  HIS78      -0.2212
     34  N          8.3110   29.4780   29.8120 N.3   162  TRP162     -0.1241
     35  CA         8.3550   30.7170   30.5710 C.3   162  TRP162      0.1605
     36  C          8.2830   30.2860   31.9980 C.2   162  TRP162      0.2264
     37  O          7.2820   29.7410   32.3960 O.2   162  TRP162     -0.2867
     38  CB         7.1230   31.5580   30.1910 C.3   162  TRP162      0.0550
     39  CG         7.2840   33.0200   30.3890 C.ar  162  TRP162      0.0003
     40  CD1        7.5940   33.9800   29.4160 C.ar  162  TRP162      0.0946
     41  CD2        7.1360   33.7850   31.6640 C.ar  162  TRP162      0.0152
     42  NE1        7.6780   35.2430   29.9990 N.ar  162  TRP162     -0.2442
     43  CE2        7.4280   35.1820   31.3420 C.ar  162  TRP162      0.0810
     44  CE3        6.8870   33.4390   33.0110 C.ar  162  TRP162      0.0012
     45  CZ2        7.3490   36.2140   32.3160 C.ar  162  TRP162      0.0191
     46  CZ3        6.8400   34.4900   34.0070 C.ar  162  TRP162      0.0001
     47  CH2        7.0620   35.8440   33.6470 C.ar  162  TRP162      0.0015
     48  N          8.6710   31.0420   35.9910 N.3   164  ALA164     -0.1231
     49  CA         8.6030   32.0370   37.1110 C.3   164  ALA164      0.1694
     50  C          9.3150   31.4410   38.3360 C.2   164  ALA164      0.2593
     51  O          9.3160   30.2250   38.5080 O.2   164  ALA164     -0.2718
     52  CB         7.1420   32.3380   37.4380 C.3   164  ALA164      0.0304
     53  N         10.0020   32.2270   39.1640 N.am  165  GLY165     -0.1942
     54  CA        10.9530   31.5540   40.0900 C.3   165  GLY165      0.2014
     55  C         10.4960   31.3270   41.5340 C.2   165  GLY165      0.2638
     56  O         11.1790   30.6260   42.3010 O.2   165  GLY165     -0.2714
     57  N          9.3650   31.9530   41.9090 N.am  166  ALA166     -0.1977
     58  CA         8.8410   31.9420   43.2900 C.3   166  ALA166      0.1597
     59  C          8.9120   30.5170   43.8900 C.2   166  ALA166      0.2287
     60  O          8.8710   29.4810   43.1590 O.2   166  ALA166     -0.2864
     61  CB         7.4110   32.5550   43.3730 C.3   166  ALA166      0.0319
     62  N         12.9860   34.1140   31.5080 N.3   198  VAL198     -0.1245
     63  CA        12.9410   34.6690   32.8970 C.3   198  VAL198      0.1561
     64  C         13.8320   33.8680   33.8220 C.2   198  VAL198      0.2260
     65  O         15.0230   34.2110   34.0060 O.2   198  VAL198     -0.2867
     66  CB        11.5040   34.7970   33.4940 C.3   198  VAL198      0.0252
     67  CG1       11.5270   35.4670   34.8760 C.3   198  VAL198      0.0019
     68  CG2       10.6280   35.5830   32.5700 C.3   198  VAL198      0.0019
     69  N         13.6840   38.7190   31.9180 N.3   205  TRP205     -0.1241
     70  CA        12.6680   39.6400   32.4720 C.3   205  TRP205      0.1605
     71  C         13.1520   41.0840   32.4790 C.2   205  TRP205      0.2264
     72  O         14.1760   41.3760   33.0700 O.2   205  TRP205     -0.2867
     73  CB        12.3330   39.2290   33.9110 C.3   205  TRP205      0.0550
     74  CG        11.2770   40.1350   34.5140 C.ar  205  TRP205      0.0003
     75  CD1       10.1140   40.5760   33.9050 C.ar  205  TRP205      0.0946
     76  CD2       11.2590   40.7060   35.8680 C.ar  205  TRP205      0.0152
     77  NE1        9.3860   41.3440   34.7690 N.ar  205  TRP205     -0.2442
     78  CE2       10.0310   41.4860   35.9590 C.ar  205  TRP205      0.0810
     79  CE3       12.1410   40.6520   36.9950 C.ar  205  TRP205      0.0012
     80  CZ2        9.6590   42.1650   37.1460 C.ar  205  TRP205      0.0191
     81  CZ3       11.7530   41.3160   38.1940 C.ar  205  TRP205      0.0001
     82  CH2       10.5550   42.0740   38.2560 C.ar  205  TRP205      0.0015
     83  N          6.8930   44.9390   35.8600 N.3   209  ALA209     -0.1245
     84  CA         5.6830   44.4000   35.2390 C.3   209  ALA209      0.1562
     85  C          4.6710   45.5040   34.9320 C.2   209  ALA209      0.2260
     86  O          3.4740   45.2440   34.7090 O.2   209  ALA209     -0.2867
     87  CB         5.0580   43.3080   36.1170 C.3   209  ALA209      0.0290
     88  N         16.6800   35.7910   38.7020 N.3   229  GLU229     -0.1245
     89  CA        15.3440   35.3910   39.1850 C.3   229  GLU229      0.1567
     90  C         15.2350   33.9860   39.8350 C.2   229  GLU229      0.2260
     91  O         14.1560   33.5460   40.2290 O.2   229  GLU229     -0.2867
     92  CB        14.3410   35.5370   38.0490 C.3   229  GLU229      0.0388
     93  CG        14.3560   36.9470   37.4090 C.3   229  GLU229      0.1160
     94  CD        14.1670   38.0670   38.4470 C.2   229  GLU229      0.3649
     95  OE1       13.1800   38.0050   39.2280 O.co2 229  GLU229     -0.2457
     96  OE2       14.9960   39.0140   38.4880 O.co2 229  GLU229     -0.2457
     97  N         16.1540   44.4780   37.9180 N.3   236  GLN236     -0.1245
     98  CA        15.5790   45.7900   38.0690 C.3   236  GLN236      0.1566
     99  C         16.4960   46.9440   37.8790 C.2   236  GLN236      0.2260
    100  O         16.0010   48.0470   37.7820 O.2   236  GLN236     -0.2867
    101  CB        15.1010   46.0100   39.5270 C.3   236  GLN236      0.0367
    102  CG        13.8300   45.2930   39.9230 C.3   236  GLN236      0.0905
    103  CD        14.1070   43.9530   40.5550 C.2   236  GLN236      0.2608
    104  OE1       15.2340   43.4070   40.4630 O.2   236  GLN236     -0.2717
    105  NE2       13.0930   43.4070   41.2230 N.am  236  GLN236     -0.0878
    106  N          7.0620   42.4750   30.1960 N.3   261  ASP261     -0.1239
    107  CA         5.7140   41.8570   30.3390 C.3   261  ASP261      0.1674
    108  C          4.7260   42.7730   31.1020 C.2   261  ASP261      0.2266
    109  O          5.0910   43.5230   32.0620 O.2   261  ASP261     -0.2867
    110  CB         5.7680   40.4840   31.0210 C.3   261  ASP261      0.1410
    111  CG         6.2450   40.6080   32.5190 C.2   261  ASP261      0.3668
    112  OD1        5.6170   40.0000   33.3930 O.co2 261  ASP261     -0.2456
    113  OD2        7.1810   41.4080   32.7860 O.co2 261  ASP261     -0.2456
    114  N         -3.6070   39.8920   36.5620 N.3   268  TRP268     -0.1241
    115  CA        -3.1060   39.0350   35.4920 C.3   268  TRP268      0.1605
    116  C         -4.2460   38.1350   35.0950 C.2   268  TRP268      0.2264
    117  O         -4.4720   37.8910   33.9000 O.2   268  TRP268     -0.2867
    118  CB        -1.9190   38.2430   35.9960 C.3   268  TRP268      0.0550
    119  CG        -0.6730   39.1000   36.1870 C.ar  268  TRP268      0.0003
    120  CD1       -0.1370   39.6790   37.3700 C.ar  268  TRP268      0.0946
    121  CD2        0.2320   39.4740   35.1270 C.ar  268  TRP268      0.0152
    122  NE1        1.0540   40.3380   37.0910 N.ar  268  TRP268     -0.2442
    123  CE2        1.3150   40.2730   35.7440 C.ar  268  TRP268      0.0810
    124  CE3        0.2740   39.2190   33.7750 C.ar  268  TRP268      0.0012
    125  CZ2        2.3580   40.8150   34.9770 C.ar  268  TRP268      0.0191
    126  CZ3        1.3650   39.7560   32.9970 C.ar  268  TRP268      0.0001
    127  CH2        2.3920   40.5010   33.5870 C.ar  268  TRP268      0.0015
@<TRIPOS>BOND
     1    40    42   ar
     2    40    39   ar
     3    34    35    1
     4    42    43   ar
     5    38    39    1
     6    38    35    1
     7   106   107    1
     8   107   110    1
     9   107   108    1
    10    39    41   ar
    11    35    36    1
    12   110   111    1
    13   108   109    2
    14    43    41   ar
    15    43    45   ar
    16    62    63    1
    17    41    44   ar
    18    69    70    1
    19    36    37    2
    20    45    47   ar
    21    70    71    1
    22    70    73    1
    23    71    72    2
    24   111   113   ar
    25   111   112   ar
    26    68    66    1
    27    63    66    1
    28    63    64    1
    29   126   127   ar
    30   126   124   ar
    31    44    46   ar
    32    66    67    1
    33   127   125   ar
    34    47    46   ar
    35   124   121   ar
    36    64    65    2
    37   117   116    2
    38    75    74   ar
    39    75    77   ar
    40    73    74    1
    41    74    76   ar
    42    86    85    2
    43    77    78   ar
    44    85    84    1
    45   125   123   ar
    46   116   115    1
    47   121   123   ar
    48   121   119   ar
    49    84    83    1
    50    84    87    1
    51   115   118    1
    52   115   114    1
    53   123   122   ar
    54    76    78   ar
    55    76    79   ar
    56    78    80   ar
    57    48    49    1
    58   118   119    1
    59   119   120   ar
    60    79    81   ar
    61   122   120   ar
    62    49    52    1
    63    49    50    1
    64    80    82   ar
    65    93    92    1
    66    93    94    1
    67   100    99    2
    68    99    98    1
    69    97    98    1
    70    92    89    1
    71    98   101    1
    72    81    82   ar
    73    50    51    2
    74    50    53   am
    75    94    96   ar
    76    94    95   ar
    77    88    89    1
    78     9     7   ar
    79    53    54    1
    80    89    90    1
    81     8     7   ar
    82   101   102    1
    83     7     6    1
    84    90    91    2
    85   102   103    1
    86    24    25    1
    87    54    55    1
    88    32    30   ar
    89    32    33   ar
    90   104   103    2
    91   103   105   am
    92    30    29   ar
    93    33    31   ar
    94     4     3    2
    95     6     5    1
    96    25    26    1
    97    25    28    1
    98    55    57   am
    99    55    56    2
   100     2     3    1
   101     2     5    1
   102     2     1    1
   103    29    31   ar
   104    29    28    1
   105     3    10   am
   106    57    58    1
   107    26    27    2
   108    18    16   ar
   109    18    19   ar
   110    16    15   ar
   111    10    11    1
   112    60    59    2
   113    58    61    1
   114    58    59    1
   115    11    12    1
   116    11    14    1
   117    19    21   ar
   118    19    17   ar
   119    15    14    1
   120    15    17   ar
   121    21    23   ar
   122    12    13    2
   123    17    20   ar
   124    23    22   ar
   125    20    22   ar
