@<TRIPOS>MOLECULE
tmp/3uevA00.pdb
 168 150 0 0 0
SMALL
GASTEIGER

@<TRIPOS>ATOM
      1  N         -4.6040   23.7610    9.3160 N.3    12  ILE12      -0.1245
      2  CA        -3.7990   22.6650    9.8430 C.3    12  ILE12       0.1561
      3  C         -2.2960   22.9270    9.7160 C.2    12  ILE12       0.2260
      4  O         -1.5070   22.5150   10.5680 O.2    12  ILE12      -0.2867
      5  CB        -4.2140   21.2880    9.2380 C.3    12  ILE12       0.0252
      6  CG1       -3.7390   20.1020   10.1130 C.3    12  ILE12       0.0019
      7  CG2       -3.7820   21.1520    7.8040 C.3    12  ILE12       0.0019
      8  CD1       -4.3190   20.0720   11.5670 C.3    12  ILE12       0.0001
      9  N         -0.5200   24.3160   12.7430 N.3    15  VAL15      -0.1245
     10  CA        -0.2440   23.5160   13.9730 C.3    15  VAL15       0.1561
     11  C          1.0760   22.7200   13.8820 C.2    15  VAL15       0.2260
     12  O          1.4200   21.9890   14.7950 O.2    15  VAL15      -0.2867
     13  CB        -1.3950   22.5640   14.3890 C.3    15  VAL15       0.0252
     14  CG1       -2.7150   23.3050   14.3820 C.3    15  VAL15       0.0019
     15  CG2       -1.4440   21.3410   13.4860 C.3    15  VAL15       0.0019
     16  N         -3.4130    2.4550   27.4370 N.3    38  PRO38      -0.2102
     17  CA        -3.4650    2.5990   25.9660 C.3    38  PRO38       0.1504
     18  C         -3.4580    4.0440   25.4140 C.2    38  PRO38       0.2575
     19  O         -2.9200    4.2780   24.3240 O.2    38  PRO38      -0.2718
     20  CB        -4.7560    1.8830   25.5710 C.3    38  PRO38       0.0282
     21  CG        -5.2800    1.2280   26.7970 C.3    38  PRO38       0.0208
     22  CD        -4.6070    1.7920   27.9870 C.3    38  PRO38       0.0893
     23  N         -4.0450    5.0020   26.1350 N.am   39  LEU39      -0.1980
     24  CA        -4.0790    6.3840   25.6300 C.3    39  LEU39       0.1596
     25  C         -3.1060    7.3340   26.3160 C.2    39  LEU39       0.2287
     26  O         -3.1400    8.5770   26.0910 O.2    39  LEU39      -0.2864
     27  CB        -5.5040    6.9410   25.6110 C.3    39  LEU39       0.0297
     28  CG        -6.3880    6.8050   24.3500 C.3    39  LEU39       0.0022
     29  CD1       -5.8930    5.9700   23.1980 C.3    39  LEU39       0.0001
     30  CD2       -7.8030    6.3960   24.7380 C.3    39  LEU39       0.0001
     31  N         -0.3030    8.8580   25.8660 N.3    41  VAL41      -0.1245
     32  CA         0.6310    9.1530   24.7740 C.3    41  VAL41       0.1561
     33  C          1.0650   10.5970   24.8960 C.2    41  VAL41       0.2260
     34  O          0.2510   11.4450   25.2030 O.2    41  VAL41      -0.2867
     35  CB         0.0140    8.8380   23.3730 C.3    41  VAL41       0.0252
     36  CG1       -0.3150    7.3910   23.3320 C.3    41  VAL41       0.0019
     37  CG2       -1.2720    9.7070   23.0750 C.3    41  VAL41       0.0019
     38  N          2.7370   13.8630   23.1630 N.3    43  VAL43      -0.1245
     39  CA         2.9310   14.3990   21.8330 C.3    43  VAL43       0.1561
     40  C          4.2550   15.1260   21.8170 C.2    43  VAL43       0.2260
     41  O          4.6110   15.7980   22.8010 O.2    43  VAL43      -0.2867
     42  CB         1.8030   15.3420   21.4410 C.3    43  VAL43       0.0252
     43  CG1        2.1390   16.0770   20.1120 C.3    43  VAL43       0.0019
     44  CG2        0.5030   14.5810   21.3430 C.3    43  VAL43       0.0019
     45  N          3.9130   17.9160   15.6620 N.3    46  LEU46      -0.1245
     46  CA         2.8890   17.7140   14.6570 C.3    46  LEU46       0.1561
     47  C          3.4610   18.0800   13.2940 C.2    46  LEU46       0.2260
     48  O          4.0040   19.1780   13.1120 O.2    46  LEU46      -0.2867
     49  CB         1.6520   18.5750   14.9690 C.3    46  LEU46       0.0270
     50  CG         0.8940   18.1500   16.2320 C.3    46  LEU46       0.0019
     51  CD1       -0.3120   19.0660   16.4460 C.3    46  LEU46       0.0001
     52  CD2        0.5100   16.7120   16.1290 C.3    46  LEU46       0.0001
     53  N         -2.1450   14.7020    8.7900 N.3    54  LEU54      -0.1245
     54  CA        -1.3810   15.1180    9.9520 C.3    54  LEU54       0.1561
     55  C         -0.5850   13.9380   10.4550 C.2    54  LEU54       0.2260
     56  O         -1.1640   12.9520   10.9490 O.2    54  LEU54      -0.2867
     57  CB        -2.3210   15.6030   11.0650 C.3    54  LEU54       0.0270
     58  CG        -1.7700   16.2980   12.3160 C.3    54  LEU54       0.0019
     59  CD1       -1.0850   17.6300   12.0140 C.3    54  LEU54       0.0001
     60  CD2       -2.9460   16.4940   13.2960 C.3    54  LEU54       0.0001
     61  N          1.8380   12.5300   13.2710 N.3    56  ILE56      -0.1245
     62  CA         2.0980   12.8020   14.6720 C.3    56  ILE56       0.1561
     63  C          3.2960   11.9680   15.1070 C.2    56  ILE56       0.2260
     64  O          3.3360   10.7490   14.8710 O.2    56  ILE56      -0.2867
     65  CB         0.8530   12.4750   15.5610 C.3    56  ILE56       0.0252
     66  CG1       -0.4270   13.0760   14.9390 C.3    56  ILE56       0.0019
     67  CG2        1.0310   13.0630   16.9900 C.3    56  ILE56       0.0019
     68  CD1       -1.5460   12.0570   14.7770 C.3    56  ILE56       0.0001
     69  N          4.9840   10.8870   18.5770 N.3    58  LEU58      -0.1245
     70  CA         4.7500   10.8390   20.0090 C.3    58  LEU58       0.1561
     71  C          5.6940    9.8430   20.7050 C.2    58  LEU58       0.2260
     72  O          6.3790    9.0520   20.0410 O.2    58  LEU58      -0.2867
     73  CB         3.2870   10.4830   20.2770 C.3    58  LEU58       0.0270
     74  CG         2.7270    9.2590   19.5530 C.3    58  LEU58       0.0019
     75  CD1        2.7320    7.9970   20.4530 C.3    58  LEU58       0.0001
     76  CD2        1.3180    9.5370   19.0440 C.3    58  LEU58       0.0001
     77  N          5.4920    6.7800   23.7350 N.3    60  LYS60      -0.1245
     78  CA         4.5870    5.8650   24.4050 C.3    60  LYS60       0.1561
     79  C          5.3830    4.8130   25.1880 C.2    60  LYS60       0.2260
     80  O          6.2880    4.1960   24.6460 O.2    60  LYS60      -0.2867
     81  CB         3.7340    5.1500   23.3410 C.3    60  LYS60       0.0271
     82  CG         2.3230    4.8150   23.7530 C.3    60  LYS60       0.0035
     83  CD         2.2700    3.7820   24.8280 C.3    60  LYS60       0.0206
     84  CE         0.9320    3.8450   25.5700 C.3    60  LYS60       0.1093
     85  NZ         0.9030    2.8740   26.6770 N.3    60  LYS60      -0.1314
     86  N          6.0080    1.2710   26.3830 N.3    62  GLU62      -0.1245
     87  CA         5.6470   -0.0830   25.9650 C.3    62  GLU62       0.1567
     88  C          6.7490   -1.1080   26.2780 C.2    62  GLU62       0.2260
     89  O          7.8700   -1.0360   25.7290 O.2    62  GLU62      -0.2867
     90  CB         5.3750   -0.1220   24.4660 C.3    62  GLU62       0.0388
     91  CG         4.0160    0.3480   24.0210 C.3    62  GLU62       0.1160
     92  CD         3.8560    0.2230   22.5210 C.2    62  GLU62       0.3649
     93  OE1        4.7990   -0.2730   21.8440 O.co2  62  GLU62      -0.2457
     94  OE2        2.7860    0.6240   22.0150 O.co2  62  GLU62      -0.2457
     95  N          6.9830    6.8260   18.4850 N.3    69  LYS69      -0.1245
     96  CA         5.9350    6.3050   17.6480 C.3    69  LYS69       0.1561
     97  C          5.6560    7.3990   16.6350 C.2    69  LYS69       0.2260
     98  O          5.7600    8.5790   16.9580 O.2    69  LYS69      -0.2867
     99  CB         4.6910    6.0190   18.4800 C.3    69  LYS69       0.0271
    100  CG         4.0930    4.6710   18.2420 C.3    69  LYS69       0.0035
    101  CD         4.2220    3.8020   19.4630 C.3    69  LYS69       0.0206
    102  CE         3.3510    2.5660   19.3150 C.3    69  LYS69       0.1093
    103  NZ         2.0020    2.9440   18.7690 N.3    69  LYS69      -0.1314
    104  N          2.6460    8.3190   13.8000 N.3    71  ILE71      -0.1245
    105  CA         1.2490    7.9770   13.4960 C.3    71  ILE71       0.1561
    106  C          0.7420    8.9200   12.3940 C.2    71  ILE71       0.2260
    107  O          1.0870   10.0960   12.4180 O.2    71  ILE71      -0.2867
    108  CB         0.3730    8.1770   14.7900 C.3    71  ILE71       0.0252
    109  CG1        0.7160    7.1460   15.8900 C.3    71  ILE71       0.0019
    110  CG2       -1.1350    8.2550   14.4800 C.3    71  ILE71       0.0019
    111  CD1        0.0640    5.7530   15.7390 C.3    71  ILE71       0.0001
    112  N         -7.4040    8.1890   12.2320 N.3    84  ILE84      -0.1245
    113  CA        -6.3530    7.1570   12.3240 C.3    84  ILE84       0.1561
    114  C         -6.9720    5.8000   11.9770 C.2    84  ILE84       0.2260
    115  O         -8.0360    5.4600   12.5000 O.2    84  ILE84      -0.2867
    116  CB        -5.7950    7.0760   13.7940 C.3    84  ILE84       0.0252
    117  CG1       -5.2110    8.4150   14.2380 C.3    84  ILE84       0.0019
    118  CG2       -4.8080    5.9040   13.9760 C.3    84  ILE84       0.0019
    119  CD1       -5.0320    8.5030   15.7250 C.3    84  ILE84       0.0001
    120  N         -9.8870   11.7520   15.3970 N.3    92  VAL92      -0.1245
    121  CA        -9.2480   12.8690   16.0760 C.3    92  VAL92       0.1561
    122  C         -9.9450   14.1920   15.7560 C.2    92  VAL92       0.2260
    123  O        -10.1020   14.5430   14.5990 O.2    92  VAL92      -0.2867
    124  CB        -7.7390   12.9390   15.7240 C.3    92  VAL92       0.0252
    125  CG1       -7.1190   14.2280   16.2180 C.3    92  VAL92       0.0019
    126  CG2       -7.0320   11.7500   16.3020 C.3    92  VAL92       0.0019
    127  N         -9.8210   18.4020   16.4480 N.3    94  VAL94      -0.1245
    128  CA        -9.2670   19.6190   17.0300 C.3    94  VAL94       0.1561
    129  C        -10.3690   20.5360   17.5820 C.2    94  VAL94       0.2260
    130  O        -11.1970   21.0080   16.8330 O.2    94  VAL94      -0.2867
    131  CB        -8.3430   20.3360   15.9950 C.3    94  VAL94       0.0252
    132  CG1       -7.6600   21.5630   16.6040 C.3    94  VAL94       0.0019
    133  CG2       -7.3070   19.3210   15.4780 C.3    94  VAL94       0.0019
    134  N         -3.2730   24.0570   22.0720 N.3   103  LEU103     -0.1245
    135  CA        -4.1660   23.3510   21.1860 C.3   103  LEU103      0.1561
    136  C         -4.8590   22.2820   22.0230 C.2   103  LEU103      0.2260
    137  O         -4.1720   21.4950   22.7020 O.2   103  LEU103     -0.2867
    138  CB        -3.3930   22.6950   20.0090 C.3   103  LEU103      0.0270
    139  CG        -4.1750   21.9630   18.9030 C.3   103  LEU103      0.0019
    140  CD1       -3.4190   21.9360   17.5280 C.3   103  LEU103      0.0001
    141  CD2       -4.4930   20.5230   19.2990 C.3   103  LEU103      0.0001
    142  N         -7.3350   18.8750   21.7370 N.3   105  PHE105     -0.1241
    143  CA        -7.8560   17.8370   20.8760 C.3   105  PHE105      0.1605
    144  C         -8.4250   16.7100   21.6890 C.2   105  PHE105      0.2264
    145  O         -8.0410   16.5100   22.8470 O.2   105  PHE105     -0.2867
    146  CB        -6.7720   17.3050   19.9070 C.3   105  PHE105      0.0534
    147  CG        -5.8480   16.2680   20.5030 C.ar  105  PHE105     -0.0203
    148  CD1       -6.1980   14.9040   20.4790 C.ar  105  PHE105     -0.0042
    149  CD2       -4.6180   16.6580   21.0630 C.ar  105  PHE105     -0.0042
    150  CE1       -5.3220   13.9300   21.0190 C.ar  105  PHE105     -0.0003
    151  CE2       -3.7170   15.7250   21.5880 C.ar  105  PHE105     -0.0003
    152  CZ        -4.0490   14.3830   21.5880 C.ar  105  PHE105     -0.0000
    153  N         -9.5530   12.3800   21.1040 N.3   107  MET107     -0.1245
    154  CA        -9.6540   11.2340   20.2230 C.3   107  MET107      0.1570
    155  C        -10.7790   10.3680   20.7400 C.2   107  MET107      0.2261
    156  O        -10.9550   10.2140   21.9520 O.2   107  MET107     -0.2867
    157  CB        -8.3350   10.4600   20.0980 C.3   107  MET107      0.0387
    158  CG        -7.6140   10.2260   21.3930 C.3   107  MET107      0.0595
    159  SD        -5.8530   10.0160   21.1420 S.3   107  MET107     -0.1393
    160  CE        -5.2110   10.6320   22.6970 C.3   107  MET107      0.0692
    161  N         -2.5050   20.5820   24.7110 N.3   118  LEU118     -0.1245
    162  CA        -1.1440   20.6950   24.1790 C.3   118  LEU118      0.1561
    163  C         -0.7170   22.1280   24.3040 C.2   118  LEU118      0.2260
    164  O         -1.5260   23.0370   24.0860 O.2   118  LEU118     -0.2867
    165  CB        -1.1290   20.3320   22.7120 C.3   118  LEU118      0.0270
    166  CG        -1.5000   18.9140   22.3080 C.3   118  LEU118      0.0019
    167  CD1       -1.3190   18.6040   20.7870 C.3   118  LEU118      0.0001
    168  CD2       -0.6840   17.9330   23.1890 C.3   118  LEU118      0.0001
@<TRIPOS>BOND
     1     7     5    1
     2    53    54    1
     3     5     2    1
     4     5     6    1
     5     1     2    1
     6     3     2    1
     7     3     4    2
     8    54    55    1
     9    54    57    1
    10     6     8    1
    11    55    56    2
    12    57    58    1
    13   114   113    1
    14   114   115    2
    15    59    58    1
    16   112   113    1
    17    58    60    1
    18   113   116    1
    19   106   107    2
    20   106   105    1
    21     9    10    1
    22    48    47    2
    23    61    62    1
    24    47    46    1
    25    15    13    1
    26   105   104    1
    27   105   108    1
    28   116   118    1
    29   116   117    1
    30    11    10    1
    31    11    12    2
    32    10    13    1
    33   117   119    1
    34    14    13    1
    35   110   108    1
    36   123   122    2
    37    46    49    1
    38    46    45    1
    39    62    63    1
    40    62    65    1
    41    68    66    1
    42   108   109    1
    43    64    63    2
    44    66    65    1
    45    49    50    1
    46   120   121    1
    47   133   131    1
    48    65    67    1
    49   124   121    1
    50   124   125    1
    51   124   126    1
    52   111   109    1
    53   122   121    1
    54   131   132    1
    55   131   128    1
    56    52    50    1
    57    50    51    1
    58   127   128    1
    59    97    98    2
    60    97    96    1
    61   130   129    2
    62   128   129    1
    63   140   139    1
    64    96    99    1
    65    96    95    1
    66   100    99    1
    67   100   101    1
    68    69    70    1
    69   103   102    1
    70   139   141    1
    71   139   138    1
    72    76    74    1
    73   102   101    1
    74    74    73    1
    75    74    75    1
    76   146   147    1
    77   146   143    1
    78   138   135    1
    79    70    73    1
    80    70    71    1
    81    72    71    2
    82   157   154    1
    83   157   158    1
    84    43    42    1
    85   154   155    1
    86   154   153    1
    87   148   147   ar
    88   148   150   ar
    89   147   149   ar
    90   155   156    2
    91   167   166    1
    92   143   144    1
    93   143   142    1
    94   150   152   ar
    95   149   151   ar
    96   159   158    1
    97   159   160    1
    98   135   136    1
    99   135   134    1
   100    44    42    1
   101    42    39    1
   102   152   151   ar
   103   144   145    2
   104    40    39    1
   105    40    41    2
   106    39    38    1
   107    93    92   ar
   108    94    92   ar
   109   136   137    2
   110   166   165    1
   111   166   168    1
   112    92    91    1
   113   165   162    1
   114    37    35    1
   115    29    28    1
   116    36    35    1
   117    81    82    1
   118    81    78    1
   119    35    32    1
   120    77    78    1
   121    82    83    1
   122    91    90    1
   123   164   163    2
   124   162   163    1
   125   162   161    1
   126    19    18    2
   127    28    30    1
   128    28    27    1
   129    78    79    1
   130    90    87    1
   131    80    79    2
   132    32    33    1
   133    32    31    1
   134    83    84    1
   135    33    34    2
   136    18    17    1
   137    18    23   am
   138    84    85    1
   139    20    17    1
   140    20    21    1
   141    27    24    1
   142    24    23    1
   143    24    25    1
   144    89    88    2
   145    87    88    1
   146    87    86    1
   147    17    16    1
   148    26    25    2
   149    21    22    1
   150    16    22    1
