@<TRIPOS>MOLECULE
tmp/3uf6A00.pdb
 116 109 0 0 0
SMALL
GASTEIGER

@<TRIPOS>ATOM
      1  N        -10.2540   44.2810   65.2630 N.3    92  THR92      -0.1218
      2  CA        -9.9220   42.8880   65.5380 C.3    92  THR92       0.1862
      3  C         -9.2660   42.7040   66.9140 C.2    92  THR92       0.2287
      4  O         -9.6340   41.7990   67.6720 O.2    92  THR92      -0.2866
      5  CB        -9.0130   42.3070   64.4400 C.3    92  THR92       0.1770
      6  OG1       -9.7420   42.2540   63.2080 O.3    92  THR92      -0.2211
      7  CG2       -8.5620   40.8990   64.8080 C.3    92  THR92       0.0375
      8  N         -5.9200   31.1750   60.5440 N.3   113  GLN113     -0.1245
      9  CA        -6.9940   31.4060   59.5810 C.3   113  GLN113      0.1566
     10  C         -6.9600   30.3100   58.5300 C.2   113  GLN113      0.2260
     11  O         -5.8950   29.8180   58.1760 O.2   113  GLN113     -0.2867
     12  CB        -6.8480   32.7760   58.9120 C.3   113  GLN113      0.0367
     13  CG        -7.8790   33.0470   57.8240 C.3   113  GLN113      0.0905
     14  CD        -7.4680   32.5100   56.4540 C.2   113  GLN113      0.2608
     15  OE1       -6.3500   32.0150   56.2590 O.2   113  GLN113     -0.2717
     16  NE2       -8.3690   32.6240   55.4950 N.am  113  GLN113     -0.0878
     17  N         -3.7490   32.4110   55.6140 N.3   131  CYS131     -0.1221
     18  CA        -3.7610   33.5460   54.6880 C.3   131  CYS131      0.1808
     19  C         -3.8840   34.9280   55.3370 C.2   131  CYS131      0.2601
     20  O         -3.8830   35.9370   54.6230 O.2   131  CYS131     -0.2717
     21  CB        -4.9140   33.4190   53.6770 C.3   131  CYS131      0.0970
     22  SG        -4.9940   31.8390   52.7900 S.3   131  CYS131     -0.0800
     23  N         -3.9840   34.9970   56.6620 N.am  132  ALA132     -0.1979
     24  CA        -4.3430   36.2800   57.2660 C.3   132  ALA132      0.1597
     25  C         -3.9920   36.4710   58.7450 C.2   132  ALA132      0.2287
     26  O         -4.1700   37.5690   59.2770 O.2   132  ALA132     -0.2864
     27  CB        -5.8300   36.5470   57.0460 C.3   132  ALA132      0.0319
     28  N         -1.9480   35.1680   51.6240 N.3   233  ASN233     -0.1240
     29  CA        -2.8500   36.2690   51.3100 C.3   233  ASN233      0.1653
     30  C         -2.9610   36.5230   49.8060 C.2   233  ASN233      0.2266
     31  O         -4.0660   36.7150   49.2650 O.2   233  ASN233     -0.2867
     32  CB        -2.4050   37.5360   52.0310 C.3   233  ASN233      0.1155
     33  CG        -3.4990   38.5800   52.0910 C.2   233  ASN233      0.2627
     34  OD1       -3.5770   39.4650   51.2450 O.2   233  ASN233     -0.2716
     35  ND2       -4.3570   38.4730   53.0970 N.am  233  ASN233     -0.0877
     36  N         -4.9020   33.6170   48.1690 N.3   236  TYR236     -0.1227
     37  CA        -6.3110   33.8280   48.4510 C.3   236  TYR236      0.1736
     38  C         -6.9000   34.8470   47.4900 C.2   236  TYR236      0.2595
     39  O         -7.9040   34.5890   46.8310 O.2   236  TYR236     -0.2718
     40  CB        -6.4590   34.3190   49.8980 C.3   236  TYR236      0.0548
     41  CG        -7.8680   34.6010   50.3920 C.ar  236  TYR236     -0.0200
     42  CD1       -8.4240   33.8430   51.4220 C.ar  236  TYR236     -0.0009
     43  CD2       -8.6250   35.6400   49.8600 C.ar  236  TYR236     -0.0009
     44  CE1       -9.7030   34.1130   51.9050 C.ar  236  TYR236      0.0417
     45  CE2       -9.9050   35.9120   50.3340 C.ar  236  TYR236      0.0417
     46  CZ       -10.4360   35.1410   51.3500 C.ar  236  TYR236      0.1957
     47  OH       -11.7060   35.4120   51.8170 O.3   236  TYR236     -0.2866
     48  N         -6.2780   36.0140   47.4160 N.am  237  LYS237     -0.1980
     49  CA        -6.8520   37.1020   46.6490 C.3   237  LYS237      0.1596
     50  C         -6.7680   36.8700   45.1530 C.2   237  LYS237      0.2287
     51  O         -7.6680   37.2740   44.4270 O.2   237  LYS237     -0.2864
     52  CB        -6.2550   38.4350   47.0810 C.3   237  LYS237      0.0298
     53  CG        -6.8080   38.8070   48.4420 C.3   237  LYS237      0.0038
     54  CD        -6.0650   39.8810   49.1420 C.3   237  LYS237      0.0206
     55  CE        -6.7730   40.1770   50.4640 C.3   237  LYS237      0.1093
     56  NZ        -6.0170   41.1510   51.2600 N.3   237  LYS237     -0.1314
     57  N        -14.0790   31.6470   54.9030 N.3   249  SER249     -0.1217
     58  CA       -12.9200   31.5980   55.7830 C.3   249  SER249      0.1889
     59  C        -13.3290   31.7050   57.2410 C.2   249  SER249      0.2288
     60  O        -14.4090   32.1860   57.5640 O.2   249  SER249     -0.2866
     61  CB       -11.9120   32.6860   55.4120 C.3   249  SER249      0.2089
     62  OG       -12.5360   33.9430   55.2390 O.3   249  SER249     -0.2183
     63  N        -11.4410   31.6210   61.5440 N.3   251  VAL251     -0.1245
     64  CA       -10.3080   31.3990   62.4400 C.3   251  VAL251      0.1561
     65  C        -10.5850   30.1340   63.2460 C.2   251  VAL251      0.2260
     66  O        -11.6490   30.0090   63.8710 O.2   251  VAL251     -0.2867
     67  CB       -10.0900   32.5920   63.3730 C.3   251  VAL251      0.0252
     68  CG1       -9.0520   32.2430   64.4250 C.3   251  VAL251      0.0019
     69  CG2       -9.6730   33.8120   62.5580 C.3   251  VAL251      0.0019
     70  N        -13.9000   36.3850   61.0700 N.3   260  ILE260     -0.1231
     71  CA       -13.3000   37.7080   61.0040 C.3   260  ILE260      0.1692
     72  C        -13.1840   38.0360   59.5290 C.2   260  ILE260      0.2593
     73  O        -12.2310   37.6310   58.8730 O.2   260  ILE260     -0.2718
     74  CB       -11.8990   37.7200   61.6460 C.3   260  ILE260      0.0266
     75  CG1      -11.9690   37.2090   63.0870 C.3   260  ILE260      0.0019
     76  CG2      -11.2900   39.1260   61.6060 C.3   260  ILE260      0.0020
     77  CD1      -10.6590   37.3030   63.8140 C.3   260  ILE260      0.0001
     78  N        -14.1670   38.7550   59.0060 N.am  261  SER261     -0.1938
     79  CA       -14.2150   39.0370   57.5830 C.3   261  SER261      0.2055
     80  C        -13.4310   40.2980   57.2520 C.2   261  SER261      0.2644
     81  O        -13.2340   41.1590   58.1050 O.2   261  SER261     -0.2714
     82  CB       -15.6710   39.1550   57.1090 C.3   261  SER261      0.2130
     83  OG       -16.2610   37.8640   56.9950 O.3   261  SER261     -0.2179
     84  N        -12.9720   40.3850   56.0090 N.am  262  SER262     -0.1935
     85  CA       -12.2800   41.5670   55.5230 C.3   262  SER262      0.2055
     86  C        -13.2700   42.6820   55.2410 C.2   262  SER262      0.2643
     87  O        -14.4310   42.4230   54.9270 O.2   262  SER262     -0.2714
     88  CB       -11.5230   41.2390   54.2420 C.3   262  SER262      0.2130
     89  OG       -11.1180   42.4300   53.5990 O.3   262  SER262     -0.2179
     90  N        -12.8050   43.9230   55.3270 N.am  263  ARG263     -0.1963
     91  CA       -13.6700   45.0770   55.0990 C.3   263  ARG263      0.1729
     92  C        -14.3450   45.0470   53.7290 C.2   263  ARG263      0.2616
     93  O        -15.4580   45.5510   53.5710 O.2   263  ARG263     -0.2715
     94  CB       -12.8880   46.3850   55.2710 C.3   263  ARG263      0.0348
     95  CG       -13.7240   47.6420   55.0630 C.3   263  ARG263      0.0492
     96  CD       -14.8900   47.7050   56.0420 C.3   263  ARG263      0.2205
     97  NE       -14.4450   47.9240   57.4160 N.pl3 263  ARG263     -0.0865
     98  CZ       -14.4180   49.1130   58.0130 C.cat 263  ARG263      0.5346
     99  NH1      -13.9970   49.2180   59.2670 N.pl3 263  ARG263      0.1354
    100  NH2      -14.8160   50.1960   57.3590 N.pl3 263  ARG263      0.1354
    101  N        -13.6830   44.4480   52.7430 N.am  264  ASN264     -0.1958
    102  CA       -14.2010   44.4650   51.3800 C.3   264  ASN264      0.1819
    103  C        -14.5940   43.1060   50.7930 C.2   264  ASN264      0.2621
    104  O        -14.7130   42.9670   49.5690 O.2   264  ASN264     -0.2715
    105  CB       -13.1980   45.1390   50.4490 C.3   264  ASN264      0.1195
    106  CG       -11.8470   44.4770   50.4940 C.2   264  ASN264      0.2630
    107  OD1      -11.6870   43.4220   51.1060 O.2   264  ASN264     -0.2716
    108  ND2      -10.8610   45.0920   49.8520 N.am  264  ASN264     -0.0877
    109  N        -14.7890   42.1040   51.6440 N.am  265  ASP265     -0.1971
    110  CA       -15.2850   40.8160   51.1760 C.3   265  ASP265      0.1709
    111  C        -16.6750   40.9970   50.5730 C.2   265  ASP265      0.2293
    112  O        -17.4570   41.8310   51.0340 O.2   265  ASP265     -0.2864
    113  CB       -15.3540   39.7950   52.3240 C.3   265  ASP265      0.1436
    114  CG       -13.9920   39.3120   52.7720 C.2   265  ASP265      0.3671
    115  OD1      -13.0560   39.2970   51.9410 O.co2 265  ASP265     -0.2456
    116  OD2      -13.8620   38.9320   53.9620 O.co2 265  ASP265     -0.2456
@<TRIPOS>BOND
     1    51    50    2
     2    50    49    1
     3    49    52    1
     4    49    48    1
     5    39    38    2
     6    52    53    1
     7    48    38   am
     8    38    37    1
     9    36    37    1
    10    53    54    1
    11    37    40    1
    12    54    55    1
    13    31    30    2
    14   104   103    2
    15    30    29    1
    16   108   106   am
    17    43    45   ar
    18    43    41   ar
    19    40    41    1
    20    45    46   ar
    21    41    42   ar
    22   105   106    1
    23   105   102    1
    24    55    56    1
    25   106   107    2
    26   111   112    2
    27   111   110    1
    28   103   102    1
    29   103   109   am
    30   110   109    1
    31   110   113    1
    32    34    33    2
    33    29    28    1
    34    29    32    1
    35    46    47    1
    36    46    44   ar
    37   102   101    1
    38    42    44   ar
    39   115   114   ar
    40    32    33    1
    41    33    35   am
    42   113   114    1
    43   101    92   am
    44   114   116   ar
    45    22    21    1
    46    93    92    2
    47    89    88    1
    48    21    18    1
    49    92    91    1
    50    88    85    1
    51    20    19    2
    52    18    19    1
    53    18    17    1
    54    57    58    1
    55    87    86    2
    56    95    94    1
    57    95    96    1
    58    91    94    1
    59    91    90    1
    60    62    61    1
    61    86    90   am
    62    86    85    1
    63    19    23   am
    64    61    58    1
    65    16    14   am
    66    85    84    1
    67    58    59    1
    68    84    80   am
    69    96    97    1
    70    15    14    2
    71    14    13    1
    72    23    24    1
    73    83    82    1
    74    27    24    1
    75    82    79    1
    76    59    60    2
    77    80    79    1
    78    80    81    2
    79    24    25    1
    80   100    98    1
    81    97    98    2
    82    79    78    1
    83    13    12    1
    84    98    99    1
    85    11    10    2
    86    10     9    1
    87    25    26    2
    88    73    72    2
    89    12     9    1
    90    78    72   am
    91    72    71    1
    92     9     8    1
    93    71    70    1
    94    71    74    1
    95    63    64    1
    96    76    74    1
    97    74    75    1
    98    64    65    1
    99    64    67    1
   100    69    67    1
   101    75    77    1
   102     6     5    1
   103    65    66    2
   104    67    68    1
   105     5     7    1
   106     5     2    1
   107     1     2    1
   108     2     3    1
   109     3     4    2
