@<TRIPOS>MOLECULE
tmp/3uf7A01.pdb
 126 124 0 0 0
SMALL
GASTEIGER

@<TRIPOS>ATOM
      1  N        -17.1780  -37.6860    4.8610 N.3    61  GLN61      -0.1231
      2  CA       -16.3110  -37.9030    3.7170 C.3    61  GLN61       0.1698
      3  C        -15.4750  -36.6750    3.4390 C.2    61  GLN61       0.2592
      4  O        -14.2950  -36.6210    3.8450 O.2    61  GLN61      -0.2718
      5  CB       -17.1200  -38.4540    2.5150 C.3    61  GLN61       0.0381
      6  CG       -16.1770  -38.8510    1.3750 C.3    61  GLN61       0.0905
      7  CD       -16.8280  -39.6670    0.2870 C.2    61  GLN61       0.2608
      8  OE1      -16.1320  -40.3560   -0.4810 O.2    61  GLN61      -0.2717
      9  NE2      -18.1260  -39.5460    0.1530 N.am   61  GLN61      -0.0878
     10  N        -16.0330  -35.6860    2.7300 N.am   62  ASP62      -0.1960
     11  CA       -15.2790  -34.4770    2.3820 C.3    62  ASP62       0.1825
     12  C        -15.6120  -33.2990    3.2810 C.2    62  ASP62       0.2464
     13  O        -16.7540  -33.1880    3.7630 O.2    62  ASP62      -0.2730
     14  CB       -15.7070  -33.9690    0.9530 C.3    62  ASP62       0.1450
     15  CG       -14.9250  -34.5400   -0.1720 C.2    62  ASP62       0.3671
     16  OD1      -13.9860  -35.2880   -0.0500 O.co2  62  ASP62      -0.2456
     17  OD2      -15.3510  -34.1940   -1.2810 O.co2  62  ASP62      -0.2456
     18  N        -14.6970  -32.3340    3.3980 N.am   63  PRO63      -0.2715
     19  CA       -15.0530  -31.0140    3.9350 C.3    63  PRO63       0.1536
     20  C        -16.0590  -30.3220    3.0290 C.2    63  PRO63       0.2599
     21  O        -16.0770  -30.5250    1.8020 O.2    63  PRO63      -0.2715
     22  CB       -13.7290  -30.2520    3.9090 C.3    63  PRO63       0.0310
     23  CG       -12.6530  -31.2840    3.7800 C.3    63  PRO63       0.0237
     24  CD       -13.2980  -32.3890    2.9560 C.3    63  PRO63       0.0939
     25  N        -16.8700  -29.4360    3.6050 N.am   64  TYR64      -0.1960
     26  CA       -17.7020  -28.5250    2.7830 C.3    64  TYR64       0.1771
     27  C        -16.7710  -27.7070    1.8840 C.2    64  TYR64       0.2619
     28  O        -15.6440  -27.3600    2.2710 O.2    64  TYR64      -0.2715
     29  CB       -18.4890  -27.5850    3.6960 C.3    64  TYR64       0.0574
     30  CG       -19.4770  -28.3110    4.5330 C.ar   64  TYR64      -0.0198
     31  CD1      -20.5430  -28.9990    3.9790 C.ar   64  TYR64      -0.0009
     32  CD2      -19.3540  -28.3160    5.9450 C.ar   64  TYR64      -0.0009
     33  CE1      -21.4740  -29.6700    4.7290 C.ar   64  TYR64       0.0417
     34  CE2      -20.2590  -28.9970    6.7240 C.ar   64  TYR64       0.0417
     35  CZ       -21.3140  -29.6400    6.1550 C.ar   64  TYR64       0.1957
     36  OH       -22.2540  -30.3100    6.9100 O.3    64  TYR64      -0.2866
     37  N        -17.2560  -27.3980    0.6630 N.am   65  HIS65      -0.1973
     38  CA       -16.3270  -26.8730   -0.3550 C.3    65  HIS65       0.1656
     39  C        -16.5920  -25.4400   -0.7820 C.2    65  HIS65       0.2291
     40  O        -16.0480  -24.9890   -1.8020 O.2    65  HIS65      -0.2864
     41  CB       -16.2080  -27.8240   -1.5460 C.3    65  HIS65       0.0771
     42  CG       -17.4820  -28.0660   -2.2810 C.ar   65  HIS65       0.0820
     43  ND1      -18.3740  -27.0770   -2.5740 N.ar   65  HIS65      -0.2267
     44  CD2      -17.9470  -29.2120   -2.8830 C.ar   65  HIS65       0.1154
     45  CE1      -19.3680  -27.5960   -3.3050 C.ar   65  HIS65       0.1986
     46  NE2      -19.1190  -28.8900   -3.5150 N.ar   65  HIS65      -0.2212
     47  N        -19.4490  -32.4310    9.4220 N.3    75  PHE75      -0.1241
     48  CA       -20.8060  -31.9360    9.6480 C.3    75  PHE75       0.1605
     49  C        -20.9410  -30.4690   10.0040 C.2    75  PHE75       0.2264
     50  O        -21.8420  -29.7830    9.5170 O.2    75  PHE75      -0.2867
     51  CB       -21.6480  -32.8370   10.6020 C.3    75  PHE75       0.0534
     52  CG       -21.6580  -34.2460   10.1560 C.ar   75  PHE75      -0.0203
     53  CD1      -22.4860  -34.6060    9.0930 C.ar   75  PHE75      -0.0042
     54  CD2      -20.7740  -35.1890   10.6870 C.ar   75  PHE75      -0.0042
     55  CE1      -22.4390  -35.9390    8.6260 C.ar   75  PHE75      -0.0003
     56  CE2      -20.6950  -36.4680   10.1870 C.ar   75  PHE75      -0.0003
     57  CZ       -21.5300  -36.8420    9.1630 C.ar   75  PHE75      -0.0000
     58  N        -26.0680  -26.6900    6.9790 N.3    84  PRO84      -0.2116
     59  CA       -26.0850  -27.6170    5.8380 C.3    84  PRO84       0.1372
     60  C        -27.2680  -28.5710    5.9370 C.2    84  PRO84       0.2244
     61  O        -27.6490  -28.9780    7.0490 O.2    84  PRO84      -0.2868
     62  CB       -24.7910  -28.3920    5.9880 C.3    84  PRO84       0.0268
     63  CG       -23.8900  -27.5190    6.7080 C.3    84  PRO84       0.0207
     64  CD       -24.7600  -26.7020    7.6500 C.3    84  PRO84       0.0892
     65  N        -27.6310  -31.8060    5.5210 N.3    86  SER86      -0.1217
     66  CA       -27.4060  -33.0370    6.3190 C.3    86  SER86       0.1889
     67  C        -27.4490  -32.7270    7.8270 C.2    86  SER86       0.2288
     68  O        -27.9820  -33.5230    8.6140 O.2    86  SER86      -0.2866
     69  CB       -26.0430  -33.6290    6.0080 C.3    86  SER86       0.2089
     70  OG       -26.0340  -34.1450    4.6860 O.3    86  SER86      -0.2183
     71  N        -16.2980  -31.4700   -5.1950 N.3   131  ALA131     -0.1231
     72  CA       -16.3450  -32.6310   -4.2890 C.3   131  ALA131      0.1694
     73  C        -15.3870  -33.7330   -4.7880 C.2   131  ALA131      0.2592
     74  O        -15.2320  -33.9200   -5.9940 O.2   131  ALA131     -0.2718
     75  CB       -17.7710  -33.1380   -4.1740 C.3   131  ALA131      0.0304
     76  N        -14.7250  -34.4210   -3.8640 N.am  132  HIS132     -0.1976
     77  CA       -13.8020  -35.5300   -4.1020 C.3   132  HIS132      0.1656
     78  C        -12.5110  -35.1240   -4.7670 C.2   132  HIS132      0.2291
     79  O        -11.7150  -35.9950   -5.1400 O.2   132  HIS132     -0.2864
     80  CB       -14.4630  -36.6890   -4.8770 C.3   132  HIS132      0.0771
     81  CG       -15.8090  -37.0870   -4.3590 C.ar  132  HIS132      0.0820
     82  ND1      -15.9970  -37.5970   -3.0990 N.ar  132  HIS132     -0.2267
     83  CD2      -17.0560  -37.0000   -4.9390 C.ar  132  HIS132      0.1154
     84  CE1      -17.2990  -37.8430   -2.9330 C.ar  132  HIS132      0.1986
     85  NE2      -17.9500  -37.4740   -4.0540 N.ar  132  HIS132     -0.2212
     86  N        -27.0410  -42.2850    5.4960 N.3   185  HIS185     -0.1241
     87  CA       -26.5040  -40.9270    5.6520 C.3   185  HIS185      0.1621
     88  C        -27.6290  -39.9400    5.9340 C.2   185  HIS185      0.2264
     89  O        -28.7130  -40.0680    5.3750 O.2   185  HIS185     -0.2867
     90  CB       -25.6980  -40.5710    4.3790 C.3   185  HIS185      0.0745
     91  CG       -24.7910  -39.3960    4.5090 C.ar  185  HIS185      0.0817
     92  ND1      -25.2490  -38.0970    4.6200 N.ar  185  HIS185     -0.2268
     93  CD2      -23.4020  -39.3350    4.5340 C.ar  185  HIS185      0.1154
     94  CE1      -24.1970  -37.2710    4.7140 C.ar  185  HIS185      0.1986
     95  NE2      -23.0540  -38.0300    4.6610 N.ar  185  HIS185     -0.2212
     96  N        -27.9000  -37.0120    4.7990 N.3   187  SER187     -0.1217
     97  CA       -28.2120  -36.2000    3.6340 C.3   187  SER187      0.1889
     98  C        -29.6720  -36.3570    3.2060 C.2   187  SER187      0.2288
     99  O        -30.2340  -37.4360    3.2470 O.2   187  SER187     -0.2866
    100  CB       -27.3650  -36.7170    2.4520 C.3   187  SER187      0.2089
    101  OG       -27.7460  -36.1090    1.2060 O.3   187  SER187     -0.2183
    102  N        -30.5180  -36.9010    0.4020 N.3   189  LEU189     -0.1231
    103  CA       -30.5050  -37.9520   -0.6020 C.3   189  LEU189      0.1693
    104  C        -30.8390  -39.3280   -0.0390 C.2   189  LEU189      0.2592
    105  O        -31.2270  -40.2270   -0.7790 O.2   189  LEU189     -0.2718
    106  CB       -29.1960  -37.9140   -1.3410 C.3   189  LEU189      0.0284
    107  CG       -28.9540  -36.5750   -2.1160 C.3   189  LEU189      0.0019
    108  CD1      -27.6420  -36.6220   -2.8870 C.3   189  LEU189      0.0001
    109  CD2      -30.1050  -36.0090   -3.0100 C.3   189  LEU189      0.0001
    110  N        -30.6670  -39.4870    1.2750 N.am  190  SER190     -0.1952
    111  CA       -30.8410  -40.8100    1.8910 C.3   190  SER190      0.1924
    112  C        -31.5360  -40.8540    3.2510 C.2   190  SER190      0.2314
    113  O        -31.8490  -41.9410    3.7260 O.2   190  SER190     -0.2863
    114  CB       -29.5060  -41.5070    2.0000 C.3   190  SER190      0.2116
    115  OG       -28.5770  -40.7150    2.6870 O.3   190  SER190     -0.2180
    116  N        -34.5250  -43.0970    4.1660 N.3   193  ARG193     -0.1245
    117  CA       -34.3390  -44.5400    4.0690 C.3   193  ARG193      0.1563
    118  C        -33.9770  -45.1490    5.4060 C.2   193  ARG193      0.2260
    119  O        -33.7310  -46.3470    5.4560 O.2   193  ARG193     -0.2867
    120  CB       -33.2440  -44.8970    3.0430 C.3   193  ARG193      0.0307
    121  CG       -33.4700  -44.3210    1.6630 C.3   193  ARG193      0.0489
    122  CD       -32.8730  -45.2240    0.5930 C.3   193  ARG193      0.2205
    123  NE       -31.4140  -45.3490    0.6840 N.pl3 193  ARG193     -0.0865
    124  CZ       -30.5440  -44.5500    0.0660 C.cat 193  ARG193      0.5346
    125  NH1      -30.9730  -43.5460   -0.6910 N.pl3 193  ARG193      0.1354
    126  NH2      -29.2370  -44.7530    0.2060 N.pl3 193  ARG193      0.1354
@<TRIPOS>BOND
     1    74    73    2
     2    71    72    1
     3    79    78    2
     4    83    81   ar
     5    83    85   ar
     6    80    81    1
     7    80    77    1
     8    73    72    1
     9    73    76   am
    10    78    77    1
    11    81    82   ar
    12    72    75    1
    13    77    76    1
    14    85    84   ar
    15    46    45   ar
    16    46    44   ar
    17    45    43   ar
    18    82    84   ar
    19   109   107    1
    20   108   107    1
    21    44    42   ar
    22    43    42   ar
    23    42    41    1
    24   107   106    1
    25    40    39    2
    26    41    38    1
    27   106   103    1
    28    17    15   ar
    29    39    38    1
    30   105   104    2
    31   125   124    1
    32   103   104    1
    33   103   102    1
    34     8     7    2
    35    38    37    1
    36    15    16   ar
    37    15    14    1
    38   104   110   am
    39   124   126    1
    40   124   123    2
    41     9     7   am
    42     7     6    1
    43   122   123    1
    44   122   121    1
    45    37    27   am
    46    14    11    1
    47   101   100    1
    48   110   111    1
    49     6     5    1
    50   121   120    1
    51    21    20    2
    52    27    28    2
    53    27    26    1
    54   111   114    1
    55   111   112    1
    56   114   115    1
    57    11    10    1
    58    11    12    1
    59   100    97    1
    60     5     2    1
    61    10     3   am
    62    26    25    1
    63    26    29    1
    64    24    18    1
    65    24    23    1
    66    20    25   am
    67    20    19    1
    68   120   117    1
    69    98    99    2
    70    98    97    1
    71   112   113    2
    72    12    18   am
    73    12    13    2
    74    18    19    1
    75     3     2    1
    76     3     4    2
    77    97    96    1
    78    29    30    1
    79     2     1    1
    80    23    22    1
    81    22    19    1
    82    31    30   ar
    83    31    33   ar
    84   117   116    1
    85   117   118    1
    86    90    91    1
    87    90    87    1
    88    91    93   ar
    89    91    92   ar
    90    30    32   ar
    91    93    95   ar
    92    92    94   ar
    93    95    94   ar
    94    70    69    1
    95    33    35   ar
    96    89    88    2
    97   118   119    2
    98    86    87    1
    99    65    66    1
   100    87    88    1
   101    59    60    1
   102    59    62    1
   103    59    58    1
   104    60    61    2
   105    32    34   ar
   106    62    63    1
   107    69    66    1
   108    35    34   ar
   109    35    36    1
   110    66    67    1
   111    63    64    1
   112    58    64    1
   113    67    68    2
   114    55    53   ar
   115    55    57   ar
   116    53    52   ar
   117    57    56   ar
   118    47    48    1
   119    50    49    2
   120    48    49    1
   121    48    51    1
   122    52    51    1
   123    52    54   ar
   124    56    54   ar
