@<TRIPOS>MOLECULE
tmp/3uf7A00.pdb
 136 133 0 0 0
SMALL
GASTEIGER

@<TRIPOS>ATOM
      1  N         -2.8960  -38.1830   20.6080 N.3     5  TRP5       -0.1227
      2  CA        -2.5420  -38.4200   19.2080 C.3     5  TRP5        0.1737
      3  C         -1.0540  -38.4250   19.0020 C.2     5  TRP5        0.2595
      4  O         -0.5430  -39.2050   18.2200 O.2     5  TRP5       -0.2718
      5  CB        -3.2330  -37.3870   18.3220 C.3     5  TRP5        0.0564
      6  CG        -4.7320  -37.5200   18.3140 C.ar    5  TRP5        0.0003
      7  CD1       -5.6560  -36.6000   18.7780 C.ar    5  TRP5        0.0946
      8  CD2       -5.5030  -38.6810   17.9040 C.ar    5  TRP5        0.0152
      9  NE1       -6.9120  -37.0960   18.6410 N.ar    5  TRP5       -0.2442
     10  CE2       -6.8960  -38.3370   18.1160 C.ar    5  TRP5        0.0810
     11  CE3       -5.1860  -39.9130   17.3060 C.ar    5  TRP5        0.0012
     12  CZ2       -7.9270  -39.2010   17.7850 C.ar    5  TRP5        0.0191
     13  CZ3       -6.2280  -40.7790   17.0060 C.ar    5  TRP5        0.0001
     14  CH2       -7.5780  -40.4180   17.2460 C.ar    5  TRP5        0.0015
     15  N         -0.3210  -37.5600   19.7070 N.am    6  HIS6       -0.1975
     16  CA         1.1070  -37.5110   19.5580 C.3     6  HIS6        0.1656
     17  C          1.7600  -38.8260   19.9230 C.2     6  HIS6        0.2291
     18  O          2.7340  -39.2120   19.2910 O.2     6  HIS6       -0.2864
     19  CB         1.6890  -36.3870   20.3880 C.3     6  HIS6        0.0771
     20  CG         3.1870  -36.2860   20.2660 C.ar    6  HIS6        0.0820
     21  ND1        3.8130  -36.0100   19.0930 N.ar    6  HIS6       -0.2267
     22  CD2        4.1770  -36.5360   21.1890 C.ar    6  HIS6        0.1154
     23  CE1        5.1480  -36.0420   19.2900 C.ar    6  HIS6        0.1986
     24  NE2        5.3670  -36.3560   20.5730 N.ar    6  HIS6       -0.2212
     25  N          0.7070  -41.1590   16.6410 N.3     9  LEU9       -0.1231
     26  CA         0.8330  -40.6630   15.2580 C.3     9  LEU9        0.1693
     27  C          2.1810  -40.0450   14.9370 C.2     9  LEU9        0.2591
     28  O          2.3850  -39.5920   13.8230 O.2     9  LEU9       -0.2718
     29  CB        -0.3010  -39.6840   14.9130 C.3     9  LEU9        0.0284
     30  CG        -1.7060  -40.2510   14.7500 C.3     9  LEU9        0.0019
     31  CD1       -2.7260  -39.1230   14.5680 C.3     9  LEU9        0.0001
     32  CD2       -1.7970  -41.2600   13.6050 C.3     9  LEU9        0.0001
     33  N          3.1070  -40.0290   15.8840 N.am   10  ALA10      -0.1980
     34  CA         4.3990  -39.3950   15.6350 C.3    10  ALA10       0.1597
     35  C          5.1340  -40.0490   14.4770 C.2    10  ALA10       0.2287
     36  O          5.7290  -39.3540   13.6580 O.2    10  ALA10      -0.2864
     37  CB         5.2570  -39.4400   16.8810 C.3    10  ALA10       0.0319
     38  N          3.2800  -39.4500   10.9500 N.3    13  LYS13      -0.1245
     39  CA         3.6570  -38.1310   10.4240 C.3    13  LYS13       0.1561
     40  C          4.8310  -38.1690    9.4730 C.2    13  LYS13       0.2260
     41  O          5.0170  -37.2650    8.6670 O.2    13  LYS13      -0.2867
     42  CB         4.0460  -37.1920   11.5770 C.3    13  LYS13       0.0271
     43  CG         2.9120  -36.4050   12.1890 C.3    13  LYS13       0.0035
     44  CD         3.3750  -35.0580   12.7180 C.3    13  LYS13       0.0206
     45  CE         4.5000  -35.1620   13.7400 C.3    13  LYS13       0.1093
     46  NZ         4.6570  -33.8860   14.4990 N.3    13  LYS13      -0.1314
     47  N          1.8280  -39.6910    3.8050 N.3    18  PHE18      -0.1241
     48  CA         1.3810  -38.5360    4.5960 C.3    18  PHE18       0.1605
     49  C          2.1530  -37.2790    4.1670 C.2    18  PHE18       0.2264
     50  O          1.5570  -36.2330    3.8740 O.2    18  PHE18      -0.2867
     51  CB         1.5410  -38.8290    6.1030 C.3    18  PHE18       0.0534
     52  CG         0.9850  -37.7580    6.9710 C.ar   18  PHE18      -0.0203
     53  CD1       -0.3500  -37.8040    7.3640 C.ar   18  PHE18      -0.0042
     54  CD2        1.7820  -36.7100    7.4430 C.ar   18  PHE18      -0.0042
     55  CE1       -0.8680  -36.8310    8.1990 C.ar   18  PHE18      -0.0003
     56  CE2        1.2580  -35.7290    8.3050 C.ar   18  PHE18      -0.0003
     57  CZ        -0.0760  -35.8090    8.6690 C.ar   18  PHE18      -0.0000
     58  N          0.6370  -33.8020    2.3870 N.3    22  LEU22      -0.1245
     59  CA         0.8160  -32.4380    2.8520 C.3    22  LEU22       0.1561
     60  C          1.5370  -31.5990    1.8040 C.2    22  LEU22       0.2260
     61  O          1.1790  -30.4500    1.5810 O.2    22  LEU22      -0.2867
     62  CB         1.6590  -32.4080    4.1180 C.3    22  LEU22       0.0270
     63  CG         1.1080  -33.0920    5.3420 C.3    22  LEU22       0.0019
     64  CD1        2.1110  -32.9580    6.4810 C.3    22  LEU22       0.0001
     65  CD2       -0.2050  -32.4260    5.6360 C.3    22  LEU22       0.0001
     66  N         -5.3440  -24.1770    6.1200 N.3    39  GLN39      -0.1231
     67  CA        -4.3180  -25.0500    6.6490 C.3    39  GLN39       0.1698
     68  C         -4.3700  -25.1450    8.1780 C.2    39  GLN39       0.2592
     69  O         -4.2210  -26.2400    8.7460 O.2    39  GLN39      -0.2718
     70  CB        -2.9430  -24.5500    6.1940 C.3    39  GLN39       0.0381
     71  CG        -1.7790  -25.4150    6.6560 C.3    39  GLN39       0.0905
     72  CD        -0.4460  -24.7300    6.3810 C.2    39  GLN39       0.2608
     73  OE1       -0.3200  -23.9800    5.4220 O.2    39  GLN39      -0.2717
     74  NE2        0.5520  -24.9780    7.2280 N.am   39  GLN39      -0.0878
     75  N         -4.5840  -24.0220    8.8580 N.am   40  LYS40      -0.1980
     76  CA        -4.5870  -24.0040   10.3260 C.3    40  LYS40       0.1596
     77  C         -5.7150  -24.8520   10.8940 C.2    40  LYS40       0.2287
     78  O         -5.6390  -25.2110   12.0690 O.2    40  LYS40      -0.2864
     79  CB        -4.6720  -22.5620   10.8430 C.3    40  LYS40       0.0298
     80  CG        -6.0020  -21.8720   10.5670 C.3    40  LYS40       0.0038
     81  CD        -6.0690  -20.4200   11.0330 C.3    40  LYS40       0.0206
     82  CE        -7.5220  -19.9630   11.2640 C.3    40  LYS40       0.1093
     83  NZ        -8.5580  -20.3220   10.2260 N.3    40  LYS40      -0.1314
     84  N         -6.5660  -30.1100   10.8700 N.3    43  PHE43      -0.1241
     85  CA        -6.5160  -31.1500   11.9050 C.3    43  PHE43       0.1605
     86  C         -7.3120  -30.7620   13.1600 C.2    43  PHE43       0.2264
     87  O         -7.0940  -31.3300   14.2360 O.2    43  PHE43      -0.2867
     88  CB        -5.0670  -31.4750   12.2550 C.3    43  PHE43       0.0534
     89  CG        -4.3060  -32.1020   11.1040 C.ar   43  PHE43      -0.0203
     90  CD1       -4.4710  -33.4500   10.7740 C.ar   43  PHE43      -0.0042
     91  CD2       -3.4440  -31.3390   10.3010 C.ar   43  PHE43      -0.0042
     92  CE1       -3.7960  -34.0290    9.6960 C.ar   43  PHE43      -0.0003
     93  CE2       -2.7590  -31.9210    9.2260 C.ar   43  PHE43      -0.0003
     94  CZ        -2.9250  -33.2580    8.9210 C.ar   43  PHE43      -0.0000
     95  N         -8.6620  -33.4400   15.7290 N.3    46  PHE46      -0.1227
     96  CA        -7.6180  -33.9830   16.5980 C.3    46  PHE46       0.1736
     97  C         -7.2540  -33.0130   17.7040 C.2    46  PHE46       0.2595
     98  O         -6.9870  -33.4470   18.8310 O.2    46  PHE46      -0.2718
     99  CB        -6.3800  -34.3440   15.7680 C.3    46  PHE46       0.0547
    100  CG        -6.6730  -35.3450   14.7020 C.ar   46  PHE46      -0.0202
    101  CD1       -6.5420  -36.6890   14.9550 C.ar   46  PHE46      -0.0042
    102  CD2       -7.0970  -34.9350   13.4410 C.ar   46  PHE46      -0.0042
    103  CE1       -6.8600  -37.6390   14.0100 C.ar   46  PHE46      -0.0003
    104  CE2       -7.4110  -35.8770   12.4700 C.ar   46  PHE46      -0.0003
    105  CZ        -7.2890  -37.2210   12.7580 C.ar   46  PHE46      -0.0000
    106  N         -7.2640  -31.7120   17.4130 N.am   47  ARG47      -0.1980
    107  CA        -7.0070  -30.6680   18.4060 C.3    47  ARG47       0.1597
    108  C         -8.0870  -30.6750   19.4800 C.2    47  ARG47       0.2287
    109  O         -7.7980  -30.5490   20.6710 O.2    47  ARG47      -0.2864
    110  CB        -6.9500  -29.3130   17.7160 C.3    47  ARG47       0.0334
    111  CG        -6.5500  -28.1410   18.5640 C.3    47  ARG47       0.0492
    112  CD        -6.3030  -26.9240   17.6760 C.3    47  ARG47       0.2205
    113  NE        -5.4050  -27.2550   16.5630 N.pl3  47  ARG47      -0.0865
    114  CZ        -4.0710  -27.2520   16.6120 C.cat  47  ARG47       0.5346
    115  NH1       -3.4220  -26.9400   17.7380 N.pl3  47  ARG47       0.1354
    116  NH2       -3.3770  -27.5700   15.5250 N.pl3  47  ARG47       0.1354
    117  N         -8.8740  -35.3060   21.9190 N.3    50  GLU50      -0.1245
    118  CA        -7.6890  -36.1320   22.0730 C.3    50  GLU50       0.1567
    119  C         -8.0410  -37.6190   22.0770 C.2    50  GLU50       0.2260
    120  O         -9.1610  -37.9980   22.4480 O.2    50  GLU50      -0.2867
    121  CB        -6.9290  -35.7570   23.3540 C.3    50  GLU50       0.0388
    122  CG        -5.8690  -34.7110   23.0600 C.3    50  GLU50       0.1160
    123  CD        -4.7020  -35.2160   22.2170 C.2    50  GLU50       0.3649
    124  OE1       -4.6750  -36.4070   21.8040 O.co2  50  GLU50      -0.2457
    125  OE2       -3.7790  -34.4020   21.9650 O.co2  50  GLU50      -0.2457
    126  N         -4.5080  -42.1100    5.7150 N.3   142  PHE142     -0.1241
    127  CA        -4.3370  -41.5320    7.0590 C.3   142  PHE142      0.1605
    128  C         -5.5370  -41.8420    7.9490 C.2   142  PHE142      0.2264
    129  O         -5.3700  -42.2670    9.1010 O.2   142  PHE142     -0.2867
    130  CB        -4.1230  -40.0240    6.9460 C.3   142  PHE142      0.0534
    131  CG        -4.0510  -39.3260    8.2840 C.ar  142  PHE142     -0.0203
    132  CD1       -3.0160  -39.6260    9.2000 C.ar  142  PHE142     -0.0042
    133  CD2       -5.0150  -38.3740    8.6460 C.ar  142  PHE142     -0.0042
    134  CE1       -2.9820  -39.0060   10.4500 C.ar  142  PHE142     -0.0003
    135  CE2       -4.9810  -37.7750    9.8930 C.ar  142  PHE142     -0.0003
    136  CZ        -3.9560  -38.0770   10.7750 C.ar  142  PHE142     -0.0000
@<TRIPOS>BOND
     1    61    60    2
     2    60    59    1
     3    58    59    1
     4    59    62    1
     5    47    48    1
     6    50    49    2
     7    62    63    1
     8    49    48    1
     9    48    51    1
    10    63    65    1
    11    63    64    1
    12    73    72    2
    13   126   127    1
    14    51    52    1
    15    66    67    1
    16    70    67    1
    17    70    71    1
    18    72    71    1
    19    72    74   am
    20    67    68    1
    21   130   127    1
    22   130   131    1
    23    52    53   ar
    24    52    54   ar
    25   127   128    1
    26    53    55   ar
    27    54    56   ar
    28   128   129    2
    29    68    69    2
    30    68    75   am
    31    55    57   ar
    32   131   133   ar
    33   131   132   ar
    34    56    57   ar
    35   133   135   ar
    36    41    40    2
    37    75    76    1
    38    94    93   ar
    39    94    92   ar
    40   132   134   ar
    41    93    91   ar
    42    40    39    1
    43    92    90   ar
    44   135   136   ar
    45    83    82    1
    46    91    89   ar
    47    76    79    1
    48    76    77    1
    49    39    38    1
    50    39    42    1
    51   134   136   ar
    52    80    79    1
    53    80    81    1
    54    90    89   ar
    55    84    85    1
    56    77    78    2
    57    81    82    1
    58    89    88    1
    59    42    43    1
    60    85    88    1
    61    85    86    1
    62    43    44    1
    63   104   105   ar
    64   104   102   ar
    65    44    45    1
    66   105   103   ar
    67    86    87    2
    68   102   100   ar
    69    32    30    1
    70    36    35    2
    71    45    46    1
    72    28    27    2
    73   103   101   ar
    74    35    34    1
    75    31    30    1
    76   100   101   ar
    77   100    99    1
    78    30    29    1
    79    29    26    1
    80    27    26    1
    81    27    33   am
    82    26    25    1
    83   116   114    1
    84    34    33    1
    85    34    37    1
    86    95    96    1
    87    99    96    1
    88   113   114    2
    89   113   112    1
    90    96    97    1
    91   114   115    1
    92    13    14   ar
    93    13    11   ar
    94    14    12   ar
    95    11     8   ar
    96   106    97   am
    97   106   107    1
    98   112   111    1
    99    97    98    2
   100   110   107    1
   101   110   111    1
   102    12    10   ar
   103     8    10   ar
   104     8     6   ar
   105    10     9   ar
   106     4     3    2
   107     6     5    1
   108     6     7   ar
   109     5     2    1
   110   107   108    1
   111     9     7   ar
   112     3     2    1
   113     3    15   am
   114    21    23   ar
   115    21    20   ar
   116     2     1    1
   117    23    24   ar
   118    18    17    2
   119   108   109    2
   120    16    15    1
   121    16    17    1
   122    16    19    1
   123    20    19    1
   124    20    22   ar
   125    24    22   ar
   126   124   123   ar
   127   117   118    1
   128   125   123   ar
   129   118   119    1
   130   118   121    1
   131   119   120    2
   132   123   122    1
   133   122   121    1
