@<TRIPOS>MOLECULE
tmp/3uf9B00.pdb
 213 206 0 0 0
SMALL
GASTEIGER

@<TRIPOS>ATOM
      1  N        -67.3660   12.3080  -95.6190 N.3    22  HIS22      -0.1241
      2  CA       -66.7990   12.7030  -94.3240 C.3    22  HIS22       0.1621
      3  C        -66.6020   14.1910  -94.1970 C.2    22  HIS22       0.2264
      4  O        -65.5090   14.7100  -94.4490 O.2    22  HIS22      -0.2867
      5  CB       -65.4770   11.9740  -94.0690 C.3    22  HIS22       0.0745
      6  CG       -65.0180   12.0120  -92.6200 C.ar   22  HIS22       0.0817
      7  ND1      -64.8340   10.8960  -91.8880 N.ar   22  HIS22      -0.2268
      8  CD2      -64.7080   13.0900  -91.7790 C.ar   22  HIS22       0.1154
      9  CE1      -64.4230   11.2330  -90.6430 C.ar   22  HIS22       0.1986
     10  NE2      -64.3480   12.5790  -90.5750 N.ar   22  HIS22      -0.2212
     11  N        -67.9340   17.6280  -91.4950 N.3    24  HIS24      -0.1241
     12  CA       -68.6010   17.9950  -90.2450 C.3    24  HIS24       0.1621
     13  C        -69.2010   19.3760  -90.3250 C.2    24  HIS24       0.2264
     14  O        -68.5070   20.3400  -90.6520 O.2    24  HIS24      -0.2867
     15  CB       -67.6270   17.9310  -89.0660 C.3    24  HIS24       0.0745
     16  CG       -66.9070   16.6030  -88.9160 C.ar   24  HIS24       0.0817
     17  ND1      -67.4220   15.5710  -88.2220 N.ar   24  HIS24      -0.2268
     18  CD2      -65.6560   16.1810  -89.3770 C.ar   24  HIS24       0.1154
     19  CE1      -66.5590   14.5340  -88.2480 C.ar   24  HIS24       0.1986
     20  NE2      -65.4760   14.9090  -88.9530 N.ar   24  HIS24      -0.2212
     21  N        -68.2600   20.9930  -84.8790 N.3    27  VAL27      -0.1245
     22  CA       -67.7390   20.1470  -83.8090 C.3    27  VAL27       0.1561
     23  C        -67.3350   20.9490  -82.5740 C.2    27  VAL27       0.2260
     24  O        -66.7750   22.0410  -82.6790 O.2    27  VAL27      -0.2867
     25  CB       -66.5470   19.2880  -84.2750 C.3    27  VAL27       0.0252
     26  CG1      -66.8310   18.6920  -85.6450 C.3    27  VAL27       0.0019
     27  CG2      -65.2690   20.1120  -84.3010 C.3    27  VAL27       0.0019
     28  N        -67.7100   14.9260  -80.1080 N.3    72  LEU72      -0.1245
     29  CA       -67.5950   15.9230  -81.1670 C.3    72  LEU72       0.1561
     30  C        -68.8150   16.8440  -81.2170 C.2    72  LEU72       0.2260
     31  O        -68.9310   17.6880  -82.1030 O.2    72  LEU72      -0.2867
     32  CB       -67.3890   15.2490  -82.5250 C.3    72  LEU72       0.0270
     33  CG       -66.1570   14.3600  -82.7040 C.3    72  LEU72       0.0019
     34  CD1      -66.1780   13.7310  -84.0890 C.3    72  LEU72       0.0001
     35  CD2      -64.8640   15.1340  -82.4800 C.3    72  LEU72       0.0001
     36  N        -66.4180    8.8530  -80.1070 N.3    97  TYR97      -0.1241
     37  CA       -65.1130    9.3350  -80.5370 C.3    97  TYR97       0.1605
     38  C        -64.1880    9.5140  -79.3380 C.2    97  TYR97       0.2264
     39  O        -64.3580   10.4460  -78.5530 O.2    97  TYR97      -0.2867
     40  CB       -65.2690   10.6590  -81.2890 C.3    97  TYR97       0.0534
     41  CG       -64.0000   11.1610  -81.9400 C.ar   97  TYR97      -0.0201
     42  CD1      -63.0840   11.9200  -81.2240 C.ar   97  TYR97      -0.0009
     43  CD2      -63.7220   10.8820  -83.2730 C.ar   97  TYR97      -0.0009
     44  CE1      -61.9230   12.3820  -81.8130 C.ar   97  TYR97       0.0417
     45  CE2      -62.5620   11.3410  -83.8700 C.ar   97  TYR97       0.0417
     46  CZ       -61.6680   12.0900  -83.1350 C.ar   97  TYR97       0.1957
     47  OH       -60.5120   12.5510  -83.7200 O.3    97  TYR97      -0.2866
     48  N        -59.8130    8.6910  -77.9440 N.3    99  TYR99      -0.1241
     49  CA       -58.4610    8.2120  -78.2340 C.3    99  TYR99       0.1605
     50  C        -57.9670    7.2580  -77.1520 C.2    99  TYR99       0.2264
     51  O        -57.1420    6.3790  -77.4130 O.2    99  TYR99      -0.2867
     52  CB       -57.4730    9.3720  -78.3730 C.3    99  TYR99       0.0534
     53  CG       -57.6850   10.2420  -79.5910 C.ar   99  TYR99      -0.0201
     54  CD1      -58.5710    9.8690  -80.5950 C.ar   99  TYR99      -0.0009
     55  CD2      -56.9720   11.4250  -79.7520 C.ar   99  TYR99      -0.0009
     56  CE1      -58.7580   10.6620  -81.7120 C.ar   99  TYR99       0.0417
     57  CE2      -57.1500   12.2220  -80.8660 C.ar   99  TYR99       0.0417
     58  CZ       -58.0450   11.8370  -81.8440 C.ar   99  TYR99       0.1957
     59  OH       -58.2250   12.6280  -82.9560 O.3    99  TYR99      -0.2866
     60  N        -62.0720    6.3600  -87.6130 N.3   169  HIS169     -0.1241
     61  CA       -61.0160    7.3510  -87.5500 C.3   169  HIS169      0.1621
     62  C        -59.7800    6.6380  -87.0950 C.2   169  HIS169      0.2264
     63  O        -59.8500    5.8060  -86.1930 O.2   169  HIS169     -0.2867
     64  CB       -61.3950    8.4430  -86.5590 C.3   169  HIS169      0.0745
     65  CG       -60.2570    9.3680  -86.2050 C.ar  169  HIS169      0.0817
     66  ND1      -60.1940   10.6420  -86.6430 N.ar  169  HIS169     -0.2268
     67  CD2      -59.1180    9.1610  -85.4250 C.ar  169  HIS169      0.1154
     68  CE1      -59.0700   11.2200  -86.1690 C.ar  169  HIS169      0.1986
     69  NE2      -58.4160   10.3130  -85.4230 N.ar  169  HIS169     -0.2212
     70  N        -58.7410    8.2670  -92.7020 N.3   198  HIS198     -0.1241
     71  CA       -57.4710    8.9830  -92.5800 C.3   198  HIS198      0.1621
     72  C        -56.2850    8.2460  -93.1450 C.2   198  HIS198      0.2264
     73  O        -55.1520    8.4450  -92.7070 O.2   198  HIS198     -0.2867
     74  CB       -57.2260    9.4050  -91.1290 C.3   198  HIS198      0.0745
     75  CG       -58.4140   10.0940  -90.4840 C.ar  198  HIS198      0.0817
     76  ND1      -59.3660   10.7180  -91.2040 N.ar  198  HIS198     -0.2268
     77  CD2      -58.7700   10.2550  -89.1410 C.ar  198  HIS198      0.1154
     78  CE1      -60.2920   11.2410  -90.3710 C.ar  198  HIS198      0.1986
     79  NE2      -59.9260   10.9590  -89.1090 N.ar  198  HIS198     -0.2212
     80  N        -59.1300   13.4580  -95.8600 N.3   222  ARG222     -0.1245
     81  CA       -58.7380   14.7090  -95.2180 C.3   222  ARG222      0.1563
     82  C        -58.0600   15.6780  -96.1810 C.2   222  ARG222      0.2260
     83  O        -56.9970   16.2240  -95.8820 O.2   222  ARG222     -0.2867
     84  CB       -57.8490   14.4390  -94.0050 C.3   222  ARG222      0.0307
     85  CG       -58.6220   14.2420  -92.7110 C.3   222  ARG222      0.0489
     86  CD       -57.7180   13.6820  -91.6290 C.3   222  ARG222      0.2205
     87  NE       -58.2500   13.8940  -90.2860 N.pl3 222  ARG222     -0.0865
     88  CZ       -57.6300   13.5020  -89.1790 C.cat 222  ARG222      0.5346
     89  NH1      -58.1720   13.7300  -87.9890 N.pl3 222  ARG222      0.1354
     90  NH2      -56.4630   12.8770  -89.2630 N.pl3 222  ARG222      0.1354
     91  N        -56.0350   19.4740  -95.3480 N.3   225  LEU225     -0.1245
     92  CA       -55.2870   19.5460  -94.0980 C.3   225  LEU225      0.1561
     93  C        -53.8330   19.1500  -94.3030 C.2   225  LEU225      0.2260
     94  O        -53.4290   18.0390  -93.9640 O.2   225  LEU225     -0.2867
     95  CB       -55.9360   18.6510  -93.0420 C.3   225  LEU225      0.0270
     96  CG       -57.3670   19.0350  -92.6580 C.3   225  LEU225      0.0019
     97  CD1      -58.0770   17.8770  -91.9740 C.3   225  LEU225      0.0001
     98  CD2      -57.3740   20.2770  -91.7790 C.3   225  LEU225      0.0001
     99  N        -51.3360   19.7570  -92.7700 N.3   227  LEU227     -0.1231
    100  CA       -50.5950   19.4770  -91.5440 C.3   227  LEU227      0.1693
    101  C        -50.4020   17.9760  -91.3840 C.2   227  LEU227      0.2592
    102  O        -49.3900   17.5230  -90.8490 O.2   227  LEU227     -0.2718
    103  CB       -51.2900   20.0710  -90.3150 C.3   227  LEU227      0.0284
    104  CG       -52.5180   19.3620  -89.7370 C.3   227  LEU227      0.0019
    105  CD1      -52.8050   19.8670  -88.3310 C.3   227  LEU227      0.0001
    106  CD2      -53.7360   19.5580  -90.6280 C.3   227  LEU227      0.0001
    107  N        -51.3780   17.2080  -91.8560 N.am  228  PHE228     -0.1976
    108  CA       -51.2600   15.7580  -91.8860 C.3   228  PHE228      0.1639
    109  C        -50.5060   15.3400  -93.1380 C.2   228  PHE228      0.2290
    110  O        -49.4920   14.6460  -93.0640 O.2   228  PHE228     -0.2864
    111  CB       -52.6400   15.1060  -91.8610 C.3   228  PHE228      0.0560
    112  CG       -53.4830   15.5270  -90.6940 C.ar  228  PHE228     -0.0200
    113  CD1      -54.7240   16.1100  -90.8910 C.ar  228  PHE228     -0.0042
    114  CD2      -53.0280   15.3500  -89.3980 C.ar  228  PHE228     -0.0042
    115  CE1      -55.5010   16.5000  -89.8160 C.ar  228  PHE228     -0.0003
    116  CE2      -53.7980   15.7380  -88.3190 C.ar  228  PHE228     -0.0003
    117  CZ       -55.0380   16.3140  -88.5280 C.ar  228  PHE228     -0.0000
    118  N        -63.0730   16.1170  -94.6010 N.3   255  ASP255     -0.1239
    119  CA       -63.1430   16.1410  -93.1400 C.3   255  ASP255      0.1674
    120  C        -63.2140   17.6000  -92.7050 C.2   255  ASP255      0.2266
    121  O        -62.7130   17.9710  -91.6460 O.2   255  ASP255     -0.2867
    122  CB       -61.9290   15.4320  -92.5170 C.3   255  ASP255      0.1410
    123  CG       -62.1160   15.1020  -91.0260 C.2   255  ASP255      0.3668
    124  OD1      -61.0910   15.0710  -90.3100 O.co2 255  ASP255     -0.2456
    125  OD2      -63.2610   14.8590  -90.5630 O.co2 255  ASP255     -0.2456
    126  N        -64.5340   21.0690  -91.2530 N.3   257  CYS257     -0.1235
    127  CA       -65.3940   21.5270  -90.1790 C.3   257  CYS257      0.1677
    128  C        -65.7620   22.9840  -90.4050 C.2   257  CYS257      0.2270
    129  O        -64.9440   23.8820  -90.2030 O.2   257  CYS257     -0.2867
    130  CB       -64.6980   21.3530  -88.8310 C.3   257  CYS257      0.0956
    131  SG       -64.1500   19.6610  -88.5130 S.3   257  CYS257     -0.0801
    132  N        -65.1470   24.5850  -85.7500 N.3   260  ILE260     -0.1245
    133  CA       -64.4980   23.5900  -84.8940 C.3   260  ILE260      0.1561
    134  C        -63.7370   24.2460  -83.7390 C.2   260  ILE260      0.2260
    135  O        -62.9170   25.1390  -83.9570 O.2   260  ILE260     -0.2867
    136  CB       -63.5380   22.7080  -85.7190 C.3   260  ILE260      0.0252
    137  CG1      -62.7330   21.7780  -84.8090 C.3   260  ILE260      0.0019
    138  CG2      -62.6090   23.5710  -86.5600 C.3   260  ILE260      0.0019
    139  CD1      -61.7520   20.8980  -85.5560 C.3   260  ILE260      0.0001
    140  N        -61.5170   23.0330  -81.5660 N.3   262  TRP262     -0.1241
    141  CA       -60.1410   22.6180  -81.3140 C.3   262  TRP262      0.1605
    142  C        -59.2160   23.7880  -81.4830 C.2   262  TRP262      0.2264
    143  O        -59.3020   24.5200  -82.4690 O.2   262  TRP262     -0.2867
    144  CB       -59.7390   21.5070  -82.2740 C.3   262  TRP262      0.0550
    145  CG       -60.5390   20.2320  -82.1290 C.ar  262  TRP262      0.0003
    146  CD1      -61.8800   20.0990  -81.7760 C.ar  262  TRP262      0.0946
    147  CD2      -60.0710   18.8570  -82.3650 C.ar  262  TRP262      0.0152
    148  NE1      -62.2540   18.7790  -81.7630 N.ar  262  TRP262     -0.2442
    149  CE2      -61.2180   17.9830  -82.1090 C.ar  262  TRP262      0.0810
    150  CE3      -58.8630   18.2890  -82.7410 C.ar  262  TRP262      0.0012
    151  CZ2      -61.1320   16.6070  -82.2300 C.ar  262  TRP262      0.0191
    152  CZ3      -58.7900   16.8990  -82.8600 C.ar  262  TRP262      0.0001
    153  CH2      -59.8980   16.0810  -82.6100 C.ar  262  TRP262      0.0015
    154  N        -56.2390   23.9850  -82.3620 N.3   264  THR264     -0.1203
    155  CA       -55.3580   23.8960  -83.5220 C.3   264  THR264      0.1994
    156  C        -56.0480   24.4590  -84.7610 C.2   264  THR264      0.2617
    157  O        -55.4000   24.7760  -85.7610 O.2   264  THR264     -0.2717
    158  CB       -54.9250   22.4440  -83.7990 C.3   264  THR264      0.1784
    159  OG1      -54.5760   21.7990  -82.5680 O.3   264  THR264     -0.2211
    160  CG2      -53.7290   22.4150  -84.7420 C.3   264  THR264      0.0376
    161  N        -57.3690   24.5830  -84.6810 N.am  265  ALA265     -0.1979
    162  CA       -58.1680   25.0840  -85.7920 C.3   265  ALA265      0.1597
    163  C        -58.5100   26.5600  -85.6210 C.2   265  ALA265      0.2287
    164  O        -59.5630   27.0160  -86.0660 O.2   265  ALA265     -0.2864
    165  CB       -59.4390   24.2600  -85.9410 C.3   265  ALA265      0.0319
    166  N        -54.0910   29.9220  -87.6850 N.3   269  TYR269     -0.1227
    167  CA       -53.2570   28.7800  -88.0460 C.3   269  TYR269      0.1736
    168  C        -53.5390   28.2660  -89.4580 C.2   269  TYR269      0.2595
    169  O        -52.6620   27.6800  -90.0940 O.2   269  TYR269     -0.2718
    170  CB       -53.4020   27.6540  -87.0180 C.3   269  TYR269      0.0548
    171  CG       -52.9370   28.0310  -85.6260 C.ar  269  TYR269     -0.0200
    172  CD1      -53.8520   28.2880  -84.6130 C.ar  269  TYR269     -0.0009
    173  CD2      -51.5820   28.1340  -85.3280 C.ar  269  TYR269     -0.0009
    174  CE1      -53.4330   28.6340  -83.3410 C.ar  269  TYR269      0.0417
    175  CE2      -51.1530   28.4810  -84.0590 C.ar  269  TYR269      0.0417
    176  CZ       -52.0820   28.7300  -83.0700 C.ar  269  TYR269      0.1957
    177  OH       -51.6610   29.0750  -81.8060 O.3   269  TYR269     -0.2866
    178  N        -54.7560   28.4930  -89.9480 N.am  270  LYS270     -0.1980
    179  CA       -55.1270   28.0480  -91.2910 C.3   270  LYS270      0.1596
    180  C        -54.0080   28.2570  -92.3070 C.2   270  LYS270      0.2287
    181  O        -53.4450   27.2910  -92.8210 O.2   270  LYS270     -0.2864
    182  CB       -56.4070   28.7360  -91.7740 C.3   270  LYS270      0.0298
    183  CG       -57.6350   27.8450  -91.7390 C.3   270  LYS270      0.0038
    184  CD       -58.6460   28.2680  -92.7920 C.3   270  LYS270      0.0206
    185  CE       -59.7040   27.1970  -93.0030 C.3   270  LYS270      0.1093
    186  NZ       -60.6540   27.5670  -94.0880 N.3   270  LYS270     -0.1314
    187  N        -51.3330   25.7020  -91.8440 N.3   273  LEU273     -0.1231
    188  CA       -51.6090   24.2730  -91.6770 C.3   273  LEU273      0.1693
    189  C        -52.6740   23.7410  -92.6350 C.2   273  LEU273      0.2591
    190  O        -52.5500   22.6330  -93.1590 O.2   273  LEU273     -0.2718
    191  CB       -52.0210   23.9730  -90.2340 C.3   273  LEU273      0.0284
    192  CG       -51.0130   24.2890  -89.1290 C.3   273  LEU273      0.0019
    193  CD1      -51.6640   24.1410  -87.7620 C.3   273  LEU273      0.0001
    194  CD2      -49.7810   23.4020  -89.2420 C.3   273  LEU273      0.0001
    195  N        -53.7260   24.5270  -92.8470 N.am  274  ALA274     -0.1980
    196  CA       -54.8270   24.1290  -93.7230 C.3   274  ALA274      0.1597
    197  C        -55.2340   25.2880  -94.6280 C.2   274  ALA274      0.2287
    198  O        -56.3780   25.7440  -94.5920 O.2   274  ALA274     -0.2864
    199  CB       -56.0120   23.6460  -92.9020 C.3   274  ALA274      0.0319
    200  N        -58.1170   24.5630  -97.2230 N.3   277  TRP277     -0.1241
    201  CA       -59.0230   23.5750  -96.6740 C.3   277  TRP277      0.1605
    202  C        -60.4380   24.0850  -96.6530 C.2   277  TRP277      0.2264
    203  O        -60.7470   25.0690  -95.9810 O.2   277  TRP277     -0.2867
    204  CB       -58.5450   23.1930  -95.2790 C.3   277  TRP277      0.0550
    205  CG       -59.3570   22.1280  -94.5910 C.ar  277  TRP277      0.0003
    206  CD1      -59.8010   20.9180  -95.1160 C.ar  277  TRP277      0.0946
    207  CD2      -59.8210   22.1310  -93.1980 C.ar  277  TRP277      0.0152
    208  NE1      -60.5020   20.2050  -94.1760 N.ar  277  TRP277     -0.2442
    209  CE2      -60.5500   20.8760  -93.0050 C.ar  277  TRP277      0.0810
    210  CE3      -59.7170   23.0180  -92.1380 C.ar  277  TRP277      0.0012
    211  CZ2      -61.1370   20.5480  -91.7970 C.ar  277  TRP277      0.0191
    212  CZ3      -60.3140   22.6760  -90.9240 C.ar  277  TRP277      0.0001
    213  CH2      -61.0060   21.4700  -90.7600 C.ar  277  TRP277      0.0015
@<TRIPOS>BOND
     1   200   201    1
     2   201   202    1
     3   201   204    1
     4   202   203    2
     5    82    83    2
     6    82    81    1
     7    80    81    1
     8     1     2    1
     9    91    92    1
    10   204   205    1
    11    81    84    1
    12   206   205   ar
    13   206   208   ar
    14   197   198    2
    15   197   196    1
    16   118   119    1
    17   205   207   ar
    18     4     3    2
    19     2     3    1
    20     2     5    1
    21    93    92    1
    22    93    94    2
    23   208   209   ar
    24    92    95    1
    25   186   185    1
    26     5     6    1
    27    84    85    1
    28   196   199    1
    29   196   195    1
    30   207   209   ar
    31   207   210   ar
    32   190   189    2
    33    72    73    2
    34    72    71    1
    35   119   120    1
    36   119   122    1
    37   109   110    2
    38   109   108    1
    39    95    96    1
    40   209   211   ar
    41   185   184    1
    42   195   189   am
    43   181   180    2
    44   184   183    1
    45    99   100    1
    46    85    86    1
    47   120   121    2
    48    70    71    1
    49    96    97    1
    50    96    98    1
    51   189   188    1
    52     6     7   ar
    53     6     8   ar
    54    71    74    1
    55   122   123    1
    56   180   179    1
    57   210   212   ar
    58     7     9   ar
    59   108   111    1
    60   108   107    1
    61   111   112    1
    62   107   101   am
    63   187   188    1
    64   211   213   ar
    65     8    10   ar
    66   182   183    1
    67   182   179    1
    68   188   191    1
    69    86    87    1
    70   100   101    1
    71   100   103    1
    72    11    12    1
    73   101   102    2
    74   179   178    1
    75   126   127    1
    76    76    75   ar
    77    76    78   ar
    78    74    75    1
    79   123   125   ar
    80   123   124   ar
    81   212   213   ar
    82   113   112   ar
    83   113   115   ar
    84   112   114   ar
    85    14    13    2
    86     9    10   ar
    87   106   104    1
    88    75    77   ar
    89   128   129    2
    90   128   127    1
    91    78    79   ar
    92    13    12    1
    93   103   104    1
    94    87    88    2
    95    12    15    1
    96   191   192    1
    97   127   130    1
    98   169   168    2
    99   178   168   am
   100   115   117   ar
   101   104   105    1
   102   168   167    1
   103   114   116   ar
   104    18    20   ar
   105    18    16   ar
   106    90    88    1
   107   194   192    1
   108    88    89    1
   109    77    79   ar
   110   192   193    1
   111    15    16    1
   112    20    19   ar
   113    16    17   ar
   114   130   131    1
   115   117   116   ar
   116    19    17   ar
   117   167   166    1
   118   167   170    1
   119    60    61    1
   120    61    62    1
   121    61    64    1
   122    62    63    2
   123   170   171    1
   124    66    65   ar
   125    66    68   ar
   126   138   136    1
   127    64    65    1
   128    65    67   ar
   129    68    69   ar
   130   164   163    2
   131   165   162    1
   132   162   163    1
   133   162   161    1
   134   157   156    2
   135   132   133    1
   136   136   133    1
   137   136   137    1
   138    26    25    1
   139   171   173   ar
   140   171   172   ar
   141   139   137    1
   142    67    69   ar
   143   173   175   ar
   144   133   134    1
   145    21    22    1
   146   156   161   am
   147   156   155    1
   148   160   158    1
   149   172   174   ar
   150    27    25    1
   151    25    22    1
   152    34    33    1
   153   175   176   ar
   154   135   134    2
   155    45    43   ar
   156    45    46   ar
   157    22    23    1
   158   158   155    1
   159   158   159    1
   160    47    46    1
   161   155   154    1
   162   174   176   ar
   163    43    41   ar
   164    46    44   ar
   165   176   177    1
   166    59    58    1
   167   152   150   ar
   168   152   153   ar
   169   150   147   ar
   170    33    32    1
   171    33    35    1
   172    24    23    2
   173   153   151   ar
   174    32    29    1
   175   143   142    2
   176   147   145   ar
   177   147   149   ar
   178   144   145    1
   179   144   141    1
   180   151   149   ar
   181   145   146   ar
   182   149   148   ar
   183    31    30    2
   184    41    40    1
   185    41    42   ar
   186    58    56   ar
   187    58    57   ar
   188    44    42   ar
   189   146   148   ar
   190    56    54   ar
   191   140   141    1
   192   142   141    1
   193    40    37    1
   194    30    29    1
   195    29    28    1
   196    57    55   ar
   197    54    53   ar
   198    37    36    1
   199    37    38    1
   200    55    53   ar
   201    53    52    1
   202    38    39    2
   203    52    49    1
   204    49    48    1
   205    49    50    1
   206    51    50    2
