@<TRIPOS>MOLECULE
tmp/3ufaB00.pdb
 140 136 0 0 0
SMALL
GASTEIGER

@<TRIPOS>ATOM
      1  N         -7.7120   24.3200  -22.9980 N.3    23  GLY23      -0.1225
      2  CA        -8.8040   24.8570  -23.7940 C.3    23  GLY23       0.1811
      3  C         -9.6770   25.8550  -23.0360 C.2    23  GLY23       0.2280
      4  O        -10.7250   26.2800  -23.5360 O.2    23  GLY23      -0.2866
      5  N        -16.4240   19.8260  -19.8420 N.3    39  HIS39      -0.1226
      6  CA       -15.5650   19.6050  -21.0540 C.3    39  HIS39       0.1752
      7  C        -14.1330   20.1260  -20.9260 C.2    39  HIS39       0.2595
      8  O        -13.2140   19.5950  -21.5120 O.2    39  HIS39      -0.2718
      9  CB       -16.2070   20.1010  -22.3410 C.3    39  HIS39       0.0759
     10  CG       -16.0680   21.5850  -22.5900 C.ar   39  HIS39       0.0818
     11  ND1      -16.9390   22.5190  -22.0540 N.ar   39  HIS39      -0.2268
     12  CD2      -15.1980   22.2880  -23.3610 C.ar   39  HIS39       0.1154
     13  CE1      -16.6230   23.7290  -22.4950 C.ar   39  HIS39       0.1986
     14  NE2      -15.5660   23.6180  -23.2780 N.ar   39  HIS39      -0.2212
     15  N        -13.9350   21.1830  -20.1420 N.am   40  ILE40      -0.1980
     16  CA       -12.5880   21.6420  -19.8750 C.3    40  ILE40       0.1595
     17  C        -11.8010   20.7110  -18.9320 C.2    40  ILE40       0.2287
     18  O        -10.5880   20.5290  -19.0790 O.2    40  ILE40      -0.2864
     19  CB       -12.6180   23.1190  -19.3230 C.3    40  ILE40       0.0276
     20  CG1      -13.3760   24.0680  -20.2560 C.3    40  ILE40       0.0022
     21  CG2      -11.2160   23.6090  -19.1630 C.3    40  ILE40       0.0022
     22  CD1      -12.7800   24.2500  -21.6800 C.3    40  ILE40       0.0001
     23  N        -23.1450   22.5690  -16.0340 N.3    78  ASP78      -0.1239
     24  CA       -21.8310   22.3400  -16.6390 C.3    78  ASP78       0.1674
     25  C        -20.7060   22.6940  -15.6460 C.2    78  ASP78       0.2266
     26  O        -19.9750   23.6790  -15.8450 O.2    78  ASP78      -0.2867
     27  CB       -21.7280   23.1380  -17.9320 C.3    78  ASP78       0.1410
     28  CG       -20.4920   22.7470  -18.7840 C.2    78  ASP78       0.3668
     29  OD1      -19.6570   21.9590  -18.3100 O.co2  78  ASP78      -0.2456
     30  OD2      -20.3990   23.2380  -19.9340 O.co2  78  ASP78      -0.2456
     31  N        -17.0310   37.7920  -24.1160 N.3   149  ALA149     -0.1231
     32  CA       -16.2890   36.5420  -23.9650 C.3   149  ALA149      0.1694
     33  C        -15.9670   35.8520  -25.3260 C.2   149  ALA149      0.2592
     34  O        -16.6020   36.1180  -26.3670 O.2   149  ALA149     -0.2718
     35  CB       -17.0380   35.6060  -23.0960 C.3   149  ALA149      0.0304
     36  N        -14.9610   35.0010  -25.3040 N.am  150  GLN150     -0.1966
     37  CA       -14.5770   34.2650  -26.5320 C.3   150  GLN150      0.1718
     38  C        -14.4070   32.8020  -26.1690 C.2   150  GLN150      0.2458
     39  O        -14.2970   32.4570  -25.0160 O.2   150  GLN150     -0.2730
     40  CB       -13.2670   34.8030  -27.0830 C.3   150  GLN150      0.0407
     41  CG       -13.4040   36.2730  -27.5830 C.3   150  GLN150      0.0908
     42  CD       -12.0990   36.8610  -28.0560 C.2   150  GLN150      0.2608
     43  OE1      -11.2280   37.2910  -27.2740 O.2   150  GLN150     -0.2717
     44  NE2      -11.9370   36.8570  -29.3470 N.am  150  GLN150     -0.0878
     45  N        -14.2960   31.9180  -27.1870 N.am  151  PRO151     -0.2716
     46  CA       -13.8690   30.5690  -26.8050 C.3   151  PRO151      0.1536
     47  C        -12.5360   30.5790  -26.0150 C.2   151  PRO151      0.2599
     48  O        -11.6100   31.3010  -26.3400 O.2   151  PRO151     -0.2715
     49  CB       -13.7420   29.8100  -28.1810 C.3   151  PRO151      0.0310
     50  CG       -13.9960   30.8200  -29.2410 C.3   151  PRO151      0.0237
     51  CD       -14.6350   32.0700  -28.6090 C.3   151  PRO151      0.0939
     52  N        -12.4550   29.7690  -24.9710 N.am  152  GLY152     -0.1941
     53  CA       -11.3220   29.7880  -24.0480 C.3   152  GLY152      0.2014
     54  C        -11.7700   30.4000  -22.6780 C.2   152  GLY152      0.2639
     55  O        -11.1370   30.1450  -21.6400 O.2   152  GLY152     -0.2714
     56  N        -12.8740   31.1250  -22.6980 N.am  153  ASN153     -0.1958
     57  CA       -13.5000   31.6340  -21.4690 C.3   153  ASN153      0.1819
     58  C        -14.3600   30.5890  -20.7340 C.2   153  ASN153      0.2622
     59  O        -14.7450   30.7920  -19.6130 O.2   153  ASN153     -0.2715
     60  CB       -14.3670   32.8230  -21.8320 C.3   153  ASN153      0.1195
     61  CG       -13.6420   34.1850  -21.6570 C.2   153  ASN153      0.2630
     62  OD1      -13.7200   35.0110  -22.5570 O.2   153  ASN153     -0.2716
     63  ND2      -12.9780   34.4180  -20.4880 N.am  153  ASN153     -0.0877
     64  N        -14.6360   29.4210  -21.3720 N.am  154  SER154     -0.1950
     65  CA       -15.2450   28.2800  -20.6330 C.3   154  SER154      0.1924
     66  C        -14.6020   28.0010  -19.2920 C.2   154  SER154      0.2314
     67  O        -13.4300   27.7680  -19.2280 O.2   154  SER154     -0.2863
     68  CB       -15.1700   26.9830  -21.5310 C.3   154  SER154      0.2116
     69  OG       -16.2080   27.0800  -22.4980 O.3   154  SER154     -0.2180
     70  N        -18.5950   30.7790  -16.2530 N.3   169  LEU169     -0.1231
     71  CA       -19.1370   30.8910  -17.5640 C.3   169  LEU169      0.1693
     72  C        -19.1690   29.4540  -18.1980 C.2   169  LEU169      0.2592
     73  O        -18.2170   28.6790  -17.9870 O.2   169  LEU169     -0.2718
     74  CB       -18.1980   31.7610  -18.4010 C.3   169  LEU169      0.0284
     75  CG       -18.7080   32.0140  -19.8480 C.3   169  LEU169      0.0019
     76  CD1      -18.4050   33.3700  -20.4480 C.3   169  LEU169      0.0001
     77  CD2      -18.1900   30.8580  -20.8370 C.3   169  LEU169      0.0001
     78  N        -20.2010   29.1330  -18.9740 N.am  170  TYR170     -0.1962
     79  CA       -20.1620   27.8270  -19.7160 C.3   170  TYR170      0.1771
     80  C        -20.4490   27.9610  -21.1650 C.2   170  TYR170      0.2619
     81  O        -19.9540   27.1300  -21.9300 O.2   170  TYR170     -0.2715
     82  CB       -21.0630   26.7350  -19.1060 C.3   170  TYR170      0.0574
     83  CG       -22.5220   26.9490  -19.3470 C.ar  170  TYR170     -0.0198
     84  CD1      -23.1610   26.3930  -20.4880 C.ar  170  TYR170     -0.0009
     85  CD2      -23.2790   27.7110  -18.4670 C.ar  170  TYR170     -0.0009
     86  CE1      -24.5270   26.6260  -20.7410 C.ar  170  TYR170      0.0417
     87  CE2      -24.6260   27.9370  -18.6980 C.ar  170  TYR170      0.0417
     88  CZ       -25.2440   27.3940  -19.8200 C.ar  170  TYR170      0.1957
     89  OH       -26.5840   27.6230  -20.0240 O.3   170  TYR170     -0.2866
     90  N        -21.2540   28.9560  -21.5670 N.am  171  ALA171     -0.1963
     91  CA       -21.6810   29.1010  -22.9870 C.3   171  ALA171      0.1728
     92  C        -21.9810   30.5670  -23.4020 C.2   171  ALA171      0.2617
     93  O        -22.0170   31.4810  -22.5640 O.2   171  ALA171     -0.2715
     94  CB       -22.9200   28.1520  -23.3570 C.3   171  ALA171      0.0334
     95  N        -22.1730   30.7620  -24.7050 N.am  172  GLY172     -0.1940
     96  CA       -22.5980   32.0540  -25.2560 C.3   172  GLY172      0.2014
     97  C        -23.4520   32.0220  -26.5160 C.2   172  GLY172      0.2640
     98  O        -24.1220   31.0230  -26.8340 O.2   172  GLY172     -0.2714
     99  N        -23.4280   33.1390  -27.2310 N.am  173  SER173     -0.1935
    100  CA       -24.2680   33.3530  -28.4200 C.3   173  SER173      0.2055
    101  C        -23.4280   33.5960  -29.6670 C.2   173  SER173      0.2644
    102  O        -22.2830   34.0660  -29.5900 O.2   173  SER173     -0.2714
    103  CB       -25.1880   34.5560  -28.2050 C.3   173  SER173      0.2130
    104  OG       -26.0940   34.3240  -27.1420 O.3   173  SER173     -0.2179
    105  N        -24.0010   33.2960  -30.8260 N.am  174  GLY174     -0.1939
    106  CA       -23.3010   33.5430  -32.0780 C.3   174  GLY174      0.2014
    107  C        -21.9830   32.7760  -32.0940 C.2   174  GLY174      0.2638
    108  O        -21.8360   31.7580  -31.3760 O.2   174  GLY174     -0.2714
    109  N        -21.0200   33.2890  -32.8690 N.am  175  LYS175     -0.1977
    110  CA       -19.8410   32.4960  -33.2900 C.3   175  LYS175      0.1596
    111  C        -18.4950   32.5430  -32.5030 C.2   175  LYS175      0.2287
    112  O        -18.2170   31.6600  -31.6710 O.2   175  LYS175     -0.2864
    113  CB       -19.5560   32.7060  -34.8060 C.3   175  LYS175      0.0298
    114  CG       -20.6410   32.3330  -35.8110 C.3   175  LYS175      0.0038
    115  CD       -20.8080   30.8620  -35.6850 C.3   175  LYS175      0.0206
    116  CE       -22.0580   30.6600  -36.5790 C.3   175  LYS175      0.1093
    117  NZ       -22.8400   29.5610  -35.9930 N.3   175  LYS175     -0.1314
    118  N        -17.1500   35.4220  -30.8310 N.3   177  GLU177     -0.1231
    119  CA       -17.2080   36.4850  -29.8050 C.3   177  GLU177      0.1699
    120  C        -18.6530   36.7260  -29.4040 C.2   177  GLU177      0.2592
    121  O        -19.5700   36.5780  -30.2250 O.2   177  GLU177     -0.2718
    122  CB       -16.5920   37.7860  -30.3070 C.3   177  GLU177      0.0402
    123  CG       -16.9160   38.1190  -31.7420 C.3   177  GLU177      0.1161
    124  CD       -16.4920   39.5040  -32.1160 C.2   177  GLU177      0.3649
    125  OE1      -15.3890   39.9310  -31.6890 O.co2 177  GLU177     -0.2457
    126  OE2      -17.2750   40.1590  -32.8470 O.co2 177  GLU177     -0.2457
    127  N        -18.8650   37.0770  -28.1410 N.am  178  SER178     -0.1952
    128  CA       -20.2200   37.1260  -27.5900 C.3   178  SER178      0.1924
    129  C        -20.3290   38.1110  -26.4180 C.2   178  SER178      0.2314
    130  O        -19.4870   38.1040  -25.5110 O.2   178  SER178     -0.2863
    131  CB       -20.6620   35.7190  -27.1350 C.3   178  SER178      0.2116
    132  OG       -21.9920   35.7070  -26.6250 O.3   178  SER178     -0.2180
    133  N        -23.8540   35.9860  -22.6300 N.3   181  ASN181     -0.1240
    134  CA       -23.2030   34.7870  -22.1690 C.3   181  ASN181      0.1653
    135  C        -23.9270   34.1220  -21.0220 C.2   181  ASN181      0.2266
    136  O        -24.7080   34.7610  -20.3000 O.2   181  ASN181     -0.2867
    137  CB       -21.7430   35.0820  -21.8510 C.3   181  ASN181      0.1155
    138  CG       -20.9990   35.4510  -23.0700 C.2   181  ASN181      0.2627
    139  OD1      -21.0120   34.6860  -24.0280 O.2   181  ASN181     -0.2716
    140  ND2      -20.3920   36.6450  -23.1010 N.am  181  ASN181     -0.0877
@<TRIPOS>BOND
     1   116   117    1
     2   116   115    1
     3   114   115    1
     4   114   113    1
     5   113   110    1
     6   110   109    1
     7   110   111    1
     8   109   107   am
     9   126   124   ar
    10   111   112    2
    11   124   123    1
    12   124   125   ar
    13   107   106    1
    14   107   108    2
    15   106   105    1
    16   123   122    1
    17   118   119    1
    18   105   101   am
    19   122   119    1
    20   121   120    2
    21   119   120    1
    22   101   102    2
    23   101   100    1
    24   120   127   am
    25    44    42   am
    26    50    51    1
    27    50    49    1
    28    51    45    1
    29   100   103    1
    30   100    99    1
    31   103   104    1
    32    49    46    1
    33   127   128    1
    34    42    41    1
    35    42    43    2
    36   128   131    1
    37   128   129    1
    38    41    40    1
    39    99    97   am
    40    45    46    1
    41    45    38   am
    42   131   132    1
    43    40    37    1
    44    98    97    2
    45    46    47    1
    46    37    38    1
    47    37    36    1
    48    97    96    1
    49   129   130    2
    50    34    33    2
    51    48    47    2
    52    38    39    2
    53    47    52   am
    54    33    36   am
    55    33    32    1
    56    96    95    1
    57    52    53    1
    58    95    92   am
    59    31    32    1
    60    53    54    1
    61   139   138    2
    62    32    35    1
    63     2     3    1
    64     2     1    1
    65     4     3    2
    66    92    91    1
    67    92    93    2
    68    12    14   ar
    69    12    10   ar
    70    94    91    1
    71    14    13   ar
    72   140   138   am
    73   138   137    1
    74    91    90    1
    75    56    54   am
    76    56    57    1
    77    54    55    2
    78   133   134    1
    79    10     9    1
    80    10    11   ar
    81    62    61    2
    82    69    68    1
    83    13    11   ar
    84     9     6    1
    85   134   137    1
    86   134   135    1
    87    81    80    2
    88    60    61    1
    89    60    57    1
    90    22    20    1
    91    61    63   am
    92    90    80   am
    93    68    65    1
    94     8     7    2
    95    57    58    1
    96    64    58   am
    97    64    65    1
    98    80    79    1
    99     6     7    1
   100     6     5    1
   101   135   136    2
   102     7    15   am
   103    77    75    1
   104    86    84   ar
   105    86    88   ar
   106    58    59    2
   107    65    66    1
   108    84    83   ar
   109    76    75    1
   110    20    19    1
   111    15    16    1
   112    89    88    1
   113    30    28   ar
   114    16    19    1
   115    16    17    1
   116    75    74    1
   117    88    87   ar
   118    79    82    1
   119    79    78    1
   120    83    82    1
   121    83    85   ar
   122    19    21    1
   123    66    67    2
   124    18    17    2
   125    78    72   am
   126    28    29   ar
   127    28    27    1
   128    87    85   ar
   129    74    71    1
   130    72    73    2
   131    72    71    1
   132    27    24    1
   133    71    70    1
   134    24    23    1
   135    24    25    1
   136    26    25    2
