@<TRIPOS>MOLECULE
tmp/3ufgB01.pdb
 111 110 0 0 0
SMALL
GASTEIGER

@<TRIPOS>ATOM
      1  N         18.9130   31.2810  -21.9410 N.3    28  GLY28      -0.1210
      2  CA        18.1230   30.4040  -22.7910 C.3    28  GLY28       0.1956
      3  C         18.8870   29.2040  -23.3150 C.2    28  GLY28       0.2611
      4  O         18.2820   28.2270  -23.7140 O.2    28  GLY28      -0.2717
      5  N         20.2140   29.2730  -23.2890 N.am   29  ALA29      -0.1979
      6  CA        21.0760   28.1740  -23.7300 C.3    29  ALA29       0.1597
      7  C         22.4780   28.2640  -23.0950 C.2    29  ALA29       0.2287
      8  O         22.9480   29.3540  -22.7830 O.2    29  ALA29      -0.2864
      9  CB        21.1880   28.1820  -25.2660 C.3    29  ALA29       0.0319
     10  N         25.2320   31.0560  -24.0460 N.3    32  PHE32      -0.1241
     11  CA        25.3620   32.3290  -23.3500 C.3    32  PHE32       0.1605
     12  C         26.3500   32.2860  -22.1790 C.2    32  PHE32       0.2264
     13  O         26.8580   33.3030  -21.7570 O.2    32  PHE32      -0.2867
     14  CB        23.9920   32.7810  -22.8630 C.3    32  PHE32       0.0534
     15  CG        23.0350   33.0040  -23.9660 C.ar   32  PHE32      -0.0203
     16  CD1       22.3900   31.9290  -24.5650 C.ar   32  PHE32      -0.0042
     17  CD2       22.8040   34.2780  -24.4410 C.ar   32  PHE32      -0.0042
     18  CE1       21.5160   32.1240  -25.6110 C.ar   32  PHE32      -0.0003
     19  CE2       21.9270   34.4820  -25.4940 C.ar   32  PHE32      -0.0003
     20  CZ        21.2830   33.4020  -26.0770 C.ar   32  PHE32      -0.0000
     21  N         13.5120   28.9110  -21.0250 N.3    56  ARG56      -0.1245
     22  CA        12.8670   29.1270  -22.3210 C.3    56  ARG56       0.1563
     23  C         11.4450   29.6100  -22.1380 C.2    56  ARG56       0.2260
     24  O         10.5060   28.8660  -22.4140 O.2    56  ARG56      -0.2867
     25  CB        12.8310   27.8210  -23.1120 C.3    56  ARG56       0.0307
     26  CG        14.1800   27.3310  -23.6200 C.3    56  ARG56       0.0489
     27  CD        14.4920   27.8460  -25.0200 C.3    56  ARG56       0.2205
     28  NE        15.8990   27.6570  -25.3610 N.pl3  56  ARG56      -0.0865
     29  CZ        16.3670   26.6630  -26.1040 C.cat  56  ARG56       0.5346
     30  NH1       15.5380   25.7610  -26.6070 N.pl3  56  ARG56       0.1354
     31  NH2       17.6680   26.5720  -26.3470 N.pl3  56  ARG56       0.1354
     32  N         23.3590   27.5340  -38.1840 N.3   113  TRP113     -0.1227
     33  CA        23.0130   28.4070  -37.0700 C.3   113  TRP113      0.1737
     34  C         23.2640   29.8920  -37.3370 C.2   113  TRP113      0.2595
     35  O         24.3650   30.2920  -37.6880 O.2   113  TRP113     -0.2718
     36  CB        23.7900   27.9570  -35.8210 C.3   113  TRP113      0.0564
     37  CG        23.5270   28.7730  -34.5900 C.ar  113  TRP113      0.0003
     38  CD1       22.3130   29.0020  -33.9960 C.ar  113  TRP113      0.0946
     39  CD2       24.4970   29.4610  -33.7990 C.ar  113  TRP113      0.0152
     40  NE1       22.4700   29.7950  -32.8920 N.ar  113  TRP113     -0.2442
     41  CE2       23.8000   30.0880  -32.7400 C.ar  113  TRP113      0.0810
     42  CE3       25.8860   29.6010  -33.8730 C.ar  113  TRP113      0.0012
     43  CZ2       24.4510   30.8470  -31.7580 C.ar  113  TRP113      0.0191
     44  CZ3       26.5340   30.3580  -32.9040 C.ar  113  TRP113      0.0001
     45  CH2       25.8140   30.9730  -31.8580 C.ar  113  TRP113      0.0015
     46  N         22.2310   30.7030  -37.1570 N.am  114  GLU114     -0.1965
     47  CA        22.3600   32.1520  -37.2360 C.3   114  GLU114      0.1733
     48  C         21.7850   32.7470  -35.9470 C.2   114  GLU114      0.2617
     49  O         20.5910   32.6010  -35.6580 O.2   114  GLU114     -0.2715
     50  CB        21.6200   32.7040  -38.4680 C.3   114  GLU114      0.0429
     51  CG        21.6140   34.2340  -38.6070 C.3   114  GLU114      0.1163
     52  CD        22.8030   34.7830  -39.4080 C.2   114  GLU114      0.3649
     53  OE1       22.8140   35.9950  -39.7340 O.co2 114  GLU114     -0.2457
     54  OE2       23.7270   34.0040  -39.7150 O.co2 114  GLU114     -0.2457
     55  N         22.6400   33.3980  -35.1630 N.am  115  SER115     -0.1936
     56  CA        22.2030   33.9990  -33.9120 C.3   115  SER115      0.2040
     57  C         22.4800   35.4930  -33.8660 C.2   115  SER115      0.2485
     58  O         23.5090   35.9310  -33.3410 O.2   115  SER115     -0.2729
     59  CB        22.8530   33.3140  -32.7080 C.3   115  SER115      0.2129
     60  OG        21.9420   33.2820  -31.6210 O.3   115  SER115     -0.2179
     61  N         21.5530   36.2840  -34.4120 N.am  116  PRO116     -0.2715
     62  CA        21.7080   37.7400  -34.3670 C.3   116  PRO116      0.1536
     63  C         21.8840   38.3020  -32.9370 C.2   116  PRO116      0.2599
     64  O         22.6540   39.2520  -32.7890 O.2   116  PRO116     -0.2715
     65  CB        20.4360   38.2660  -35.0510 C.3   116  PRO116      0.0310
     66  CG        19.5040   37.1040  -35.1170 C.3   116  PRO116      0.0237
     67  CD        20.3220   35.8620  -35.0960 C.3   116  PRO116      0.0939
     68  N         21.2290   37.7300  -31.9200 N.am  117  SER117     -0.1936
     69  CA        21.3990   38.2010  -30.5280 C.3   117  SER117      0.2055
     70  C         22.8650   38.2400  -30.0950 C.2   117  SER117      0.2642
     71  O         23.3520   39.2570  -29.6140 O.2   117  SER117     -0.2714
     72  CB        20.6040   37.3350  -29.5460 C.3   117  SER117      0.2130
     73  OG        19.2510   37.7470  -29.4580 O.3   117  SER117     -0.2179
     74  N         23.5470   37.1110  -30.2670 N.am  118  LEU118     -0.1977
     75  CA        24.9840   36.9740  -30.0470 C.3   118  LEU118      0.1596
     76  C         25.8730   37.5000  -31.1850 C.2   118  LEU118      0.2287
     77  O         27.0980   37.4240  -31.0950 O.2   118  LEU118     -0.2864
     78  CB        25.3050   35.4960  -29.8710 C.3   118  LEU118      0.0297
     79  CG        24.5870   34.7900  -28.7210 C.3   118  LEU118      0.0022
     80  CD1       24.7480   33.2770  -28.8380 C.3   118  LEU118      0.0001
     81  CD2       25.1210   35.3010  -27.3780 C.3   118  LEU118      0.0001
     82  N         14.0270   40.3060  -22.2460 N.3   242  PHE242     -0.1227
     83  CA        13.3960   40.3660  -23.5550 C.3   242  PHE242      0.1736
     84  C         12.5110   39.1500  -23.7320 C.2   242  PHE242      0.2595
     85  O         11.3740   39.2710  -24.1850 O.2   242  PHE242     -0.2718
     86  CB        14.4540   40.4170  -24.6670 C.3   242  PHE242      0.0547
     87  CG        13.9500   39.9420  -25.9960 C.ar  242  PHE242     -0.0202
     88  CD1       13.1120   40.7430  -26.7670 C.ar  242  PHE242     -0.0042
     89  CD2       14.2920   38.6840  -26.4720 C.ar  242  PHE242     -0.0042
     90  CE1       12.6190   40.2950  -27.9850 C.ar  242  PHE242     -0.0003
     91  CE2       13.8060   38.2320  -27.6980 C.ar  242  PHE242     -0.0003
     92  CZ        12.9710   39.0420  -28.4480 C.ar  242  PHE242     -0.0000
     93  N         13.0300   37.9830  -23.3540 N.am  243  ASN243     -0.1974
     94  CA        12.2880   36.7300  -23.5140 C.3   243  ASN243      0.1688
     95  C         11.0430   36.6300  -22.6510 C.2   243  ASN243      0.2292
     96  O         10.0400   36.0410  -23.0620 O.2   243  ASN243     -0.2864
     97  CB        13.1910   35.5050  -23.3260 C.3   243  ASN243      0.1181
     98  CG        14.1000   35.2760  -24.5180 C.2   243  ASN243      0.2629
     99  OD1       13.8850   35.8500  -25.5850 O.2   243  ASN243     -0.2716
    100  ND2       15.1060   34.4330  -24.3540 N.am  243  ASN243     -0.0877
    101  N          9.7740   44.7090  -31.9250 N.3   256  ARG256     -0.1245
    102  CA        10.7260   43.6390  -31.6970 C.3   256  ARG256      0.1563
    103  C         12.1250   43.9990  -32.2000 C.2   256  ARG256      0.2260
    104  O         13.1340   43.5190  -31.6780 O.2   256  ARG256     -0.2867
    105  CB        10.2360   42.3560  -32.3480 C.3   256  ARG256      0.0307
    106  CG        11.1690   41.2080  -32.1390 C.3   256  ARG256      0.0489
    107  CD        10.6080   39.9040  -32.6560 C.3   256  ARG256      0.2205
    108  NE        11.4660   38.8000  -32.2360 N.pl3 256  ARG256     -0.0865
    109  CZ        11.1600   37.9320  -31.2750 C.cat 256  ARG256      0.5346
    110  NH1        9.9910   38.0150  -30.6460 N.pl3 256  ARG256      0.1354
    111  NH2       12.0160   36.9650  -30.9630 N.pl3 256  ARG256      0.1354
@<TRIPOS>BOND
     1    53    52   ar
     2    54    52   ar
     3    52    51    1
     4    51    50    1
     5    50    47    1
     6    32    33    1
     7    35    34    2
     8    34    46   am
     9    34    33    1
    10    47    46    1
    11    47    48    1
    12    33    36    1
    13    48    49    2
    14    48    55   am
    15    36    37    1
    16    55    56    1
    17    66    67    1
    18    66    65    1
    19    67    61    1
    20    65    62    1
    21    37    38   ar
    22    37    39   ar
    23    61    62    1
    24    61    57   am
    25    62    63    1
    26    38    40   ar
    27    56    57    1
    28    56    59    1
    29    42    39   ar
    30    42    44   ar
    31    57    58    2
    32    39    41   ar
    33    63    64    2
    34    63    68   am
    35    44    45   ar
    36    40    41   ar
    37    41    43   ar
    38    59    60    1
    39   107   108    1
    40   107   106    1
    41   105   106    1
    42   105   102    1
    43   108   109    2
    44   103   102    1
    45   103   104    2
    46   101   102    1
    47    68    69    1
    48    45    43   ar
    49   109   111    1
    50   109   110    1
    51    76    77    2
    52    76    75    1
    53    69    70    1
    54    69    72    1
    55    74    70   am
    56    74    75    1
    57    70    71    2
    58    75    78    1
    59    78    79    1
    60    72    73    1
    61    80    79    1
    62    79    81    1
    63    92    90   ar
    64    92    91   ar
    65    90    88   ar
    66    91    89   ar
    67    88    87   ar
    68    30    29    1
    69    89    87   ar
    70    31    29    1
    71    29    28    2
    72    20    18   ar
    73    20    19   ar
    74    87    86    1
    75    18    16   ar
    76    99    98    2
    77    19    17   ar
    78    28    27    1
    79     9     6    1
    80    27    26    1
    81    86    83    1
    82    16    15   ar
    83    98   100   am
    84    98    97    1
    85    17    15   ar
    86    85    84    2
    87    10    11    1
    88    15    14    1
    89    84    83    1
    90    84    93   am
    91     6     5    1
    92     6     7    1
    93     4     3    2
    94    26    25    1
    95    83    82    1
    96    94    93    1
    97    94    97    1
    98    94    95    1
    99    11    14    1
   100    11    12    1
   101     3     5   am
   102     3     2    1
   103    25    22    1
   104     7     8    2
   105    96    95    2
   106     2     1    1
   107    24    23    2
   108    22    23    1
   109    22    21    1
   110    12    13    2
