@<TRIPOS>MOLECULE
tmp/3ufhA09.pdb
 207 201 0 0 0
SMALL
GASTEIGER

@<TRIPOS>ATOM
      1  N        -28.4420   26.3990  -41.0810 N.3   264  HIS264     -0.1241
      2  CA       -28.6640   27.0520  -39.7850 C.3   264  HIS264      0.1621
      3  C        -29.5190   26.1880  -38.8660 C.2   264  HIS264      0.2264
      4  O        -29.1910   26.0180  -37.6860 O.2   264  HIS264     -0.2867
      5  CB       -29.2990   28.4200  -39.9430 C.3   264  HIS264      0.0745
      6  CG       -28.4010   29.4290  -40.5980 C.ar  264  HIS264      0.0817
      7  ND1      -28.8800   30.4240  -41.4270 N.ar  264  HIS264     -0.2268
      8  CD2      -27.0530   29.5420  -40.6220 C.ar  264  HIS264      0.1154
      9  CE1      -27.8710   31.1780  -41.8410 C.ar  264  HIS264      0.1986
     10  NE2      -26.7490   30.6540  -41.3850 N.ar  264  HIS264     -0.2212
     11  N        -21.9500   28.2860  -29.7160 N.3   314  SER314     -0.1202
     12  CA       -23.2530   28.8840  -29.7580 C.3   314  SER314      0.2020
     13  C        -23.6590   29.0210  -31.2350 C.2   314  SER314      0.2619
     14  O        -22.8340   29.2810  -32.1150 O.2   314  SER314     -0.2717
     15  CB       -23.2260   30.2520  -29.0730 C.3   314  SER314      0.2103
     16  OG       -24.4390   30.9670  -29.3230 O.3   314  SER314     -0.2182
     17  N        -24.9480   28.9150  -31.4990 N.am  315  ILE315     -0.1965
     18  CA       -25.4420   29.0710  -32.8650 C.3   315  ILE315      0.1727
     19  C        -25.2540   30.5410  -33.2520 C.2   315  ILE315      0.2616
     20  O        -25.1500   30.8590  -34.4290 O.2   315  ILE315     -0.2715
     21  CB       -26.9540   28.6780  -32.9390 C.3   315  ILE315      0.0290
     22  CG1      -27.4700   28.6020  -34.3780 C.3   315  ILE315      0.0022
     23  CG2      -27.7870   29.6520  -32.1140 C.3   315  ILE315      0.0023
     24  CD1      -26.7920   27.4950  -35.2250 C.3   315  ILE315      0.0001
     25  N        -25.0340   31.3990  -32.2590 N.am  316  GLY316     -0.1955
     26  CA       -24.7780   32.7960  -32.5310 C.3   316  GLY316      0.1869
     27  C        -23.3470   33.0730  -32.9120 C.2   316  GLY316      0.2309
     28  O        -22.9900   34.2190  -33.1990 O.2   316  GLY316     -0.2863
     29  N        -21.1860   33.2300  -35.5460 N.3   318  CYS318     -0.1235
     30  CA       -21.2330   33.2170  -37.0160 C.3   318  CYS318      0.1677
     31  C        -19.8550   32.9010  -37.6160 C.2   318  CYS318      0.2270
     32  O        -19.7620   32.1840  -38.6200 O.2   318  CYS318     -0.2867
     33  CB       -21.7070   34.5710  -37.5560 C.3   318  CYS318      0.0956
     34  SG       -23.1100   35.3390  -36.6630 S.3   318  CYS318     -0.0801
     35  N        -23.1980   37.0590  -45.4210 N.3   335  PHE335     -0.1241
     36  CA       -23.9550   36.8270  -44.1800 C.3   335  PHE335      0.1605
     37  C        -24.4510   38.0960  -43.5110 C.2   335  PHE335      0.2264
     38  O        -25.3080   38.0170  -42.6510 O.2   335  PHE335     -0.2867
     39  CB       -23.1370   36.0070  -43.1500 C.3   335  PHE335      0.0534
     40  CG       -22.2170   36.8470  -42.3030 C.ar  335  PHE335     -0.0203
     41  CD1      -22.5950   37.2400  -41.0260 C.ar  335  PHE335     -0.0042
     42  CD2      -20.9650   37.2370  -42.7840 C.ar  335  PHE335     -0.0042
     43  CE1      -21.7290   37.9880  -40.2180 C.ar  335  PHE335     -0.0003
     44  CE2      -20.0880   37.9880  -41.9740 C.ar  335  PHE335     -0.0003
     45  CZ       -20.4710   38.3410  -40.6890 C.ar  335  PHE335     -0.0000
     46  N        -26.0640   40.5120  -45.0730 N.3   337  HIS337     -0.1226
     47  CA       -27.1890   41.0510  -45.8370 C.3   337  HIS337      0.1752
     48  C        -28.4910   40.2880  -45.5620 C.2   337  HIS337      0.2596
     49  O        -28.4980   39.0630  -45.5280 O.2   337  HIS337     -0.2718
     50  CB       -26.8100   41.0690  -47.3190 C.3   337  HIS337      0.0759
     51  CG       -25.7150   42.0380  -47.6130 C.ar  337  HIS337      0.0818
     52  ND1      -25.9010   43.4020  -47.5200 N.ar  337  HIS337     -0.2268
     53  CD2      -24.3860   41.8510  -47.7960 C.ar  337  HIS337      0.1154
     54  CE1      -24.7400   44.0140  -47.6680 C.ar  337  HIS337      0.1986
     55  NE2      -23.8030   43.0950  -47.8180 N.ar  337  HIS337     -0.2212
     56  N        -29.5760   41.0060  -45.3220 N.am  338  HIS338     -0.1961
     57  CA       -30.8790   40.3620  -45.1430 C.3   338  HIS338      0.1787
     58  C        -31.3610   39.4490  -46.3190 C.2   338  HIS338      0.2620
     59  O        -31.0210   39.6500  -47.5210 O.2   338  HIS338     -0.2715
     60  CB       -31.9310   41.3830  -44.7120 C.3   338  HIS338      0.0785
     61  CG       -32.4380   42.2500  -45.8270 C.ar  338  HIS338      0.0821
     62  ND1      -31.6120   43.0530  -46.5900 N.ar  338  HIS338     -0.2267
     63  CD2      -33.6980   42.4600  -46.2860 C.ar  338  HIS338      0.1154
     64  CE1      -32.3370   43.6800  -47.5010 C.ar  338  HIS338      0.1986
     65  NE2      -33.6010   43.3190  -47.3530 N.ar  338  HIS338     -0.2212
     66  N        -32.0100   38.3560  -45.9340 N.am  339  LYS339     -0.1977
     67  CA       -32.5420   37.3840  -46.8720 C.3   339  LYS339      0.1596
     68  C        -33.5100   36.5690  -46.0820 C.2   339  LYS339      0.2287
     69  O        -33.1320   35.9280  -45.1100 O.2   339  LYS339     -0.2864
     70  CB       -31.4510   36.4820  -47.4590 C.3   339  LYS339      0.0298
     71  CG       -31.9940   35.3190  -48.3250 C.3   339  LYS339      0.0038
     72  CD       -30.9430   34.2600  -48.5910 C.3   339  LYS339      0.0206
     73  CE       -31.5900   32.9630  -49.0810 C.3   339  LYS339      0.1093
     74  NZ       -30.6350   31.8220  -49.3040 N.3   339  LYS339     -0.1314
     75  N        -32.8580   33.1230  -44.6080 N.3   342  ALA342     -0.1231
     76  CA       -31.6810   33.0550  -43.7280 C.3   342  ALA342      0.1694
     77  C        -32.0410   33.6240  -42.3430 C.2   342  ALA342      0.2592
     78  O        -31.9560   32.9270  -41.3430 O.2   342  ALA342     -0.2718
     79  CB       -30.5380   33.8250  -44.3120 C.3   342  ALA342      0.0304
     80  N        -32.5640   34.8480  -42.3330 N.am  343  CYS343     -0.1970
     81  CA       -32.9560   35.5170  -41.1240 C.3   343  CYS343      0.1712
     82  C        -33.9860   34.7310  -40.3460 C.2   343  CYS343      0.2296
     83  O        -33.9250   34.6660  -39.1140 O.2   343  CYS343     -0.2864
     84  CB       -33.4830   36.9000  -41.4580 C.3   343  CYS343      0.0983
     85  SG       -32.3050   37.8430  -42.4480 S.3   343  CYS343     -0.0798
     86  N        -33.0910   31.2060  -38.0230 N.3   346  CYS346     -0.1221
     87  CA       -32.8450   31.2630  -36.5970 C.3   346  CYS346      0.1808
     88  C        -33.9870   31.9070  -35.8010 C.2   346  CYS346      0.2601
     89  O        -34.3730   31.4220  -34.7210 O.2   346  CYS346     -0.2717
     90  CB       -31.5410   32.0320  -36.3270 C.3   346  CYS346      0.0970
     91  SG       -30.0850   31.0080  -36.6900 S.3   346  CYS346     -0.0800
     92  N        -34.4240   33.0700  -36.2560 N.am  347  HIS347     -0.1975
     93  CA       -35.3150   33.9050  -35.4560 C.3   347  HIS347      0.1656
     94  C        -36.7750   33.4370  -35.5200 C.2   347  HIS347      0.2291
     95  O        -37.5700   33.7070  -34.6100 O.2   347  HIS347     -0.2864
     96  CB       -35.1620   35.3900  -35.8640 C.3   347  HIS347      0.0771
     97  CG       -33.8520   36.0060  -35.4230 C.ar  347  HIS347      0.0820
     98  ND1      -33.5780   36.2970  -34.1120 N.ar  347  HIS347     -0.2267
     99  CD2      -32.7430   36.3560  -36.1210 C.ar  347  HIS347      0.1154
    100  CE1      -32.3870   36.8690  -34.0250 C.ar  347  HIS347      0.1986
    101  NE2      -31.8440   36.8880  -35.2300 N.ar  347  HIS347     -0.2212
    102  N        -40.1590   40.4490  -38.6560 N.3   376  PHE376     -0.1241
    103  CA       -39.0410   41.3010  -38.2340 C.3   376  PHE376      0.1605
    104  C        -39.4540   42.7300  -37.9370 C.2   376  PHE376      0.2264
    105  O        -38.9220   43.3440  -36.9960 O.2   376  PHE376     -0.2867
    106  CB       -37.9100   41.2930  -39.2620 C.3   376  PHE376      0.0534
    107  CG       -37.0100   40.1010  -39.1370 C.ar  376  PHE376     -0.0203
    108  CD1      -37.4800   38.8140  -39.4360 C.ar  376  PHE376     -0.0042
    109  CD2      -35.7460   40.2290  -38.5640 C.ar  376  PHE376     -0.0042
    110  CE1      -36.6510   37.6740  -39.2250 C.ar  376  PHE376     -0.0003
    111  CE2      -34.9160   39.1110  -38.3750 C.ar  376  PHE376     -0.0003
    112  CZ       -35.3770   37.8390  -38.6850 C.ar  376  PHE376     -0.0000
    113  N        -34.4570   33.0560  -30.9760 N.3   387  ILE387     -0.1245
    114  CA       -33.3370   33.3110  -30.0530 C.3   387  ILE387      0.1561
    115  C        -33.9080   34.0230  -28.8040 C.2   387  ILE387      0.2260
    116  O        -34.3030   35.1860  -28.8590 O.2   387  ILE387     -0.2867
    117  CB       -32.2290   34.1860  -30.6680 C.3   387  ILE387      0.0252
    118  CG1      -31.7250   33.6510  -32.0140 C.3   387  ILE387      0.0019
    119  CG2      -31.0580   34.3110  -29.6910 C.3   387  ILE387      0.0019
    120  CD1      -30.8990   32.2930  -31.8880 C.3   387  ILE387      0.0001
    121  N        -35.1610   36.2130  -25.8670 N.3   389  GLY389     -0.1210
    122  CA       -34.6660   37.5090  -25.3660 C.3   389  GLY389      0.1956
    123  C        -34.3770   38.5050  -26.4800 C.2   389  GLY389      0.2612
    124  O        -34.2210   39.6720  -26.2210 O.2   389  GLY389     -0.2717
    125  N        -34.2420   38.0500  -27.7190 N.am  390  VAL390     -0.1965
    126  CA       -33.9980   38.9800  -28.8210 C.3   390  VAL390      0.1727
    127  C        -35.2480   39.8560  -29.0730 C.2   390  VAL390      0.2616
    128  O        -36.3720   39.3780  -29.0090 O.2   390  VAL390     -0.2715
    129  CB       -33.6610   38.1960  -30.1120 C.3   390  VAL390      0.0290
    130  CG1      -33.9680   39.0070  -31.3130 C.3   390  VAL390      0.0023
    131  CG2      -32.1940   37.7420  -30.1150 C.3   390  VAL390      0.0023
    132  N        -35.0530   41.1360  -29.3500 N.am  391  ASN391     -0.1958
    133  CA       -36.1780   42.0330  -29.6480 C.3   391  ASN391      0.1819
    134  C        -36.0710   42.7150  -31.0250 C.2   391  ASN391      0.2621
    135  O        -35.5420   43.8270  -31.1320 O.2   391  ASN391     -0.2715
    136  CB       -36.3280   43.0900  -28.5640 C.3   391  ASN391      0.1195
    137  CG       -37.7510   43.6400  -28.4910 C.2   391  ASN391      0.2630
    138  OD1      -38.4370   43.7680  -29.5160 O.2   391  ASN391     -0.2716
    139  ND2      -38.1950   43.9640  -27.2970 N.am  391  ASN391     -0.0877
    140  N        -36.4670   42.0090  -32.0840 N.am  392  LEU392     -0.1977
    141  CA       -36.2730   42.5420  -33.4180 C.3   392  LEU392      0.1596
    142  C        -37.1020   43.8060  -33.6500 C.2   392  LEU392      0.2287
    143  O        -36.6810   44.6680  -34.4100 O.2   392  LEU392     -0.2864
    144  CB       -36.5960   41.5120  -34.5050 C.3   392  LEU392      0.0297
    145  CG       -35.7340   40.2440  -34.4890 C.3   392  LEU392      0.0022
    146  CD1      -36.4580   39.0930  -35.2010 C.3   392  LEU392      0.0001
    147  CD2      -34.3060   40.4600  -34.9920 C.3   392  LEU392      0.0001
    148  N        -38.1150   46.1130  -31.5810 N.3   394  HIS394     -0.1226
    149  CA       -37.4730   47.2560  -30.9740 C.3   394  HIS394      0.1752
    150  C        -36.3340   47.8350  -31.8150 C.2   394  HIS394      0.2595
    151  O        -36.1690   49.0440  -31.9260 O.2   394  HIS394     -0.2718
    152  CB       -36.9550   46.8560  -29.6370 C.3   394  HIS394      0.0759
    153  CG       -36.1370   47.9090  -28.9970 C.ar  394  HIS394      0.0818
    154  ND1      -36.6990   49.0450  -28.4710 N.ar  394  HIS394     -0.2268
    155  CD2      -34.8010   48.0130  -28.8100 C.ar  394  HIS394      0.1154
    156  CE1      -35.7440   49.7940  -27.9420 C.ar  394  HIS394      0.1986
    157  NE2      -34.5820   49.1930  -28.1430 N.ar  394  HIS394     -0.2212
    158  N        -35.6080   46.9810  -32.5010 N.am  395  VAL395     -0.1980
    159  CA       -34.6160   47.4430  -33.4550 C.3   395  VAL395      0.1595
    160  C        -35.2860   48.0860  -34.6880 C.2   395  VAL395      0.2287
    161  O        -34.7470   49.0130  -35.2960 O.2   395  VAL395     -0.2864
    162  CB       -33.7420   46.2510  -33.8830 C.3   395  VAL395      0.0276
    163  CG1      -32.7460   46.6400  -34.9670 C.3   395  VAL395      0.0022
    164  CG2      -33.0500   45.6940  -32.6520 C.3   395  VAL395      0.0022
    165  N        -30.6280   46.2890  -40.2270 N.3   404  CYS404     -0.1235
    166  CA       -30.7600   45.0540  -41.0200 C.3   404  CYS404      0.1677
    167  C        -30.5470   45.1540  -42.5300 C.2   404  CYS404      0.2270
    168  O        -30.1530   44.1710  -43.1900 O.2   404  CYS404     -0.2867
    169  CB       -32.0910   44.3680  -40.7410 C.3   404  CYS404      0.0956
    170  SG       -32.4370   44.1350  -38.9990 S.3   404  CYS404     -0.0801
    171  N        -26.8650   43.5390  -39.9210 N.3   413  SER413     -0.1217
    172  CA       -27.1940   42.9640  -38.6480 C.3   413  SER413      0.1889
    173  C        -25.9420   42.3640  -37.9830 C.2   413  SER413      0.2288
    174  O        -25.9570   42.0610  -36.8220 O.2   413  SER413     -0.2866
    175  CB       -28.3410   41.9490  -38.7920 C.3   413  SER413      0.2089
    176  OG       -27.9710   40.9280  -39.6980 O.3   413  SER413     -0.2183
    177  N        -25.0590   43.6810  -34.6780 N.3   416  TYR416     -0.1227
    178  CA       -25.6190   43.0040  -33.5350 C.3   416  TYR416      0.1736
    179  C        -24.9950   41.6330  -33.3310 C.2   416  TYR416      0.2595
    180  O        -24.6970   41.2700  -32.2010 O.2   416  TYR416     -0.2718
    181  CB       -27.1200   42.8810  -33.6630 C.3   416  TYR416      0.0548
    182  CG       -27.8420   44.2220  -33.5550 C.ar  416  TYR416     -0.0200
    183  CD1      -28.2750   44.6970  -32.3250 C.ar  416  TYR416     -0.0009
    184  CD2      -27.9860   45.0490  -34.6750 C.ar  416  TYR416     -0.0009
    185  CE1      -28.9250   45.9390  -32.2300 C.ar  416  TYR416      0.0417
    186  CE2      -28.5900   46.2870  -34.5800 C.ar  416  TYR416      0.0417
    187  CZ       -29.0670   46.7130  -33.3660 C.ar  416  TYR416      0.1957
    188  OH       -29.6920   47.9270  -33.2890 O.3   416  TYR416     -0.2866
    189  N        -24.8280   40.8600  -34.4010 N.am  417  HIS417     -0.1975
    190  CA       -24.3700   39.4750  -34.2460 C.3   417  HIS417      0.1656
    191  C        -22.9310   39.3120  -33.6820 C.2   417  HIS417      0.2291
    192  O        -22.6270   38.2930  -33.0890 O.2   417  HIS417     -0.2864
    193  CB       -24.5260   38.6780  -35.5610 C.3   417  HIS417      0.0771
    194  CG       -25.9570   38.5400  -36.0130 C.ar  417  HIS417      0.0820
    195  ND1      -26.3780   38.8990  -37.2790 N.ar  417  HIS417     -0.2267
    196  CD2      -27.0660   38.1090  -35.3550 C.ar  417  HIS417      0.1154
    197  CE1      -27.6810   38.6800  -37.3820 C.ar  417  HIS417      0.1986
    198  NE2      -28.1220   38.1910  -36.2330 N.ar  417  HIS417     -0.2212
    199  N        -20.6710   41.1450  -29.2220 N.3   420  LYS420     -0.1245
    200  CA       -20.0550   40.5730  -27.9980 C.3   420  LYS420      0.1561
    201  C        -18.7120   39.8790  -28.2810 C.2   420  LYS420      0.2260
    202  O        -17.7850   39.9890  -27.4930 O.2   420  LYS420     -0.2867
    203  CB       -20.9900   39.6010  -27.2690 C.3   420  LYS420      0.0271
    204  CG       -22.2740   40.2540  -26.7730 C.3   420  LYS420      0.0035
    205  CD       -23.0920   39.2820  -25.9360 C.3   420  LYS420      0.0206
    206  CE       -24.3660   39.9340  -25.3460 C.3   420  LYS420      0.1093
    207  NZ       -25.3170   40.3230  -26.4790 N.3   420  LYS420     -0.1314
@<TRIPOS>BOND
     1    74    73    1
     2    73    72    1
     3    72    71    1
     4    71    70    1
     5    55    53   ar
     6    55    54   ar
     7    53    51   ar
     8    54    52   ar
     9    51    52   ar
    10    51    50    1
    11    59    58    2
    12    64    65   ar
    13    64    62   ar
    14    70    67    1
    15    65    63   ar
    16    50    47    1
    17    67    68    1
    18    67    66    1
    19    62    61   ar
    20    58    66   am
    21    58    57    1
    22    63    61   ar
    23    68    69    2
    24    47    48    1
    25    47    46    1
    26    61    60    1
    27    48    49    2
    28    48    56   am
    29    35    36    1
    30    56    57    1
    31    57    60    1
    32    75    76    1
    33    79    76    1
    34    36    37    1
    35    36    39    1
    36    76    77    1
    37    37    38    2
    38   168   167    2
    39    39    40    1
    40    42    40   ar
    41    42    44   ar
    42   167   166    1
    43    85    84    1
    44    77    80   am
    45    77    78    2
    46    80    81    1
    47    40    41   ar
    48    44    45   ar
    49     9     7   ar
    50     9    10   ar
    51    84    81    1
    52     7     6   ar
    53    10     8   ar
    54    81    82    1
    55     1     2    1
    56    41    43   ar
    57   166   169    1
    58   166   165    1
    59   169   170    1
    60    45    43   ar
    61     8     6   ar
    62     6     5    1
    63    82    83    2
    64     5     2    1
    65   171   172    1
    66     2     3    1
    67   176   175    1
    68   108   110   ar
    69   108   107   ar
    70   106   107    1
    71   106   103    1
    72   110   112   ar
    73   107   109   ar
    74     3     4    2
    75   175   172    1
    76   112   111   ar
    77   102   103    1
    78   172   173    1
    79    32    31    2
    80   109   111   ar
    81   103   104    1
    82    86    87    1
    83   173   174    2
    84   104   105    2
    85    31    30    1
    86    33    30    1
    87    33    34    1
    88   197   195   ar
    89   197   198   ar
    90   195   194   ar
    91    30    29    1
    92    91    90    1
    93    87    90    1
    94    87    88    1
    95    92    88   am
    96    92    93    1
    97   198   196   ar
    98    99    97   ar
    99    99   101   ar
   100   194   193    1
   101   194   196   ar
   102    96    93    1
   103    96    97    1
   104    88    89    2
   105   193   190    1
   106    94    93    1
   107    94    95    2
   108    97    98   ar
   109   161   160    2
   110   101   100   ar
   111    24    22    1
   112   146   145    1
   113   147   145    1
   114   163   162    1
   115   160   159    1
   116   177   178    1
   117   184   186   ar
   118   184   182   ar
   119   186   187   ar
   120   144   145    1
   121   144   141    1
   122    20    19    2
   123   143   142    2
   124   189   190    1
   125   189   179   am
   126    22    21    1
   127   190   191    1
   128    98   100   ar
   129   162   159    1
   130   162   164    1
   131   191   192    2
   132   181   182    1
   133   181   178    1
   134   142   141    1
   135   182   183   ar
   136   178   179    1
   137   159   158    1
   138   141   140    1
   139   187   188    1
   140   187   185   ar
   141   179   180    2
   142    19    18    1
   143    19    25   am
   144    28    27    2
   145    21    18    1
   146    21    23    1
   147    27    26    1
   148    18    17    1
   149    26    25    1
   150   158   150   am
   151   183   185   ar
   152    14    13    2
   153   140   134   am
   154   118   120    1
   155   118   117    1
   156   151   150    2
   157   150   149    1
   158   148   149    1
   159    17    13   am
   160   130   129    1
   161    13    12    1
   162   135   134    2
   163   134   133    1
   164   113   114    1
   165   149   152    1
   166   117   114    1
   167   117   119    1
   168   131   129    1
   169   129   126    1
   170   114   115    1
   171    12    11    1
   172    12    15    1
   173   133   132    1
   174   133   136    1
   175   152   153    1
   176   138   137    2
   177   132   127   am
   178    16    15    1
   179   199   200    1
   180   127   128    2
   181   127   126    1
   182   153   155   ar
   183   153   154   ar
   184   116   115    2
   185   126   125    1
   186   155   157   ar
   187   136   137    1
   188   137   139   am
   189   154   156   ar
   190   201   200    1
   191   201   202    2
   192   157   156   ar
   193   200   203    1
   194   125   123   am
   195   203   204    1
   196   204   205    1
   197   123   124    2
   198   123   122    1
   199   207   206    1
   200   205   206    1
   201   121   122    1
