@<TRIPOS>MOLECULE
tmp/3ufhA05.pdb
 244 233 0 0 0
SMALL
GASTEIGER

@<TRIPOS>ATOM
      1  N         -6.8520   15.0190   -6.5360 N.3   482  MET482     -0.1245
      2  CA        -7.7930   15.7790   -5.6870 C.3   482  MET482      0.1570
      3  C         -7.7490   15.2690   -4.2390 C.2   482  MET482      0.2261
      4  O         -7.6200   16.0460   -3.3070 O.2   482  MET482     -0.2867
      5  CB        -9.2290   15.6850   -6.2460 C.3   482  MET482      0.0387
      6  CG       -10.2880   16.2740   -5.3190 C.3   482  MET482      0.0595
      7  SD       -11.9340   16.1230   -6.0550 S.3   482  MET482     -0.1393
      8  CE       -11.9030   17.2690   -7.4190 C.3   482  MET482      0.0692
      9  N         -6.3340   22.3650   -3.6960 N.3   497  ARG497     -0.1245
     10  CA        -6.6850   23.6260   -4.4220 C.3   497  ARG497      0.1563
     11  C         -7.2350   24.7330   -3.5320 C.2   497  ARG497      0.2260
     12  O         -8.1270   24.4930   -2.7050 O.2   497  ARG497     -0.2867
     13  CB        -7.7480   23.3120   -5.4860 C.3   497  ARG497      0.0307
     14  CG        -7.9310   24.3790   -6.5550 C.3   497  ARG497      0.0489
     15  CD        -9.0150   23.9050   -7.4920 C.3   497  ARG497      0.2205
     16  NE        -9.3350   24.8640   -8.5370 N.pl3 497  ARG497     -0.0865
     17  CZ        -8.6390   24.9730   -9.6670 C.cat 497  ARG497      0.5346
     18  NH1       -7.5440   24.2530   -9.8470 N.pl3 497  ARG497      0.1354
     19  NH2       -9.0160   25.8040  -10.6090 N.pl3 497  ARG497      0.1354
     20  N        -16.3190   26.6560  -19.6010 N.3   620  PHE620     -0.1241
     21  CA       -17.0210   25.4290  -19.2110 C.3   620  PHE620      0.1605
     22  C        -17.6380   25.5790  -17.8240 C.2   620  PHE620      0.2264
     23  O        -17.9900   24.6050  -17.1970 O.2   620  PHE620     -0.2867
     24  CB       -16.0340   24.2310  -19.2540 C.3   620  PHE620      0.0534
     25  CG       -15.6650   23.8130  -20.6840 C.ar  620  PHE620     -0.0203
     26  CD1      -16.4940   22.9590  -21.4120 C.ar  620  PHE620     -0.0042
     27  CD2      -14.6040   24.4130  -21.3420 C.ar  620  PHE620     -0.0042
     28  CE1      -16.2360   22.7000  -22.7360 C.ar  620  PHE620     -0.0003
     29  CE2      -14.3430   24.1330  -22.6240 C.ar  620  PHE620     -0.0003
     30  CZ       -15.1520   23.2400  -23.3300 C.ar  620  PHE620     -0.0000
     31  N        -20.7870   23.7320  -17.6210 N.3   623  SER623     -0.1202
     32  CA       -20.6980   22.2460  -17.4890 C.3   623  SER623      0.2020
     33  C        -20.7880   21.8040  -16.0210 C.2   623  SER623      0.2618
     34  O        -21.0170   20.6230  -15.7340 O.2   623  SER623     -0.2717
     35  CB       -19.3860   21.7090  -18.1060 C.3   623  SER623      0.2103
     36  OG       -19.3160   21.9680  -19.5040 O.3   623  SER623     -0.2182
     37  N        -20.6920   22.7720  -15.1080 N.am  624  HIS624     -0.1975
     38  CA       -20.6940   22.5420  -13.6610 C.3   624  HIS624      0.1656
     39  C        -22.0210   22.9480  -13.0040 C.2   624  HIS624      0.2291
     40  O        -22.0980   23.0360  -11.7800 O.2   624  HIS624     -0.2864
     41  CB       -19.5260   23.2990  -13.0510 C.3   624  HIS624      0.0771
     42  CG       -18.2200   22.8220  -13.5770 C.ar  624  HIS624      0.0820
     43  ND1      -17.7170   23.2500  -14.7910 N.ar  624  HIS624     -0.2267
     44  CD2      -17.4460   21.7800  -13.2020 C.ar  624  HIS624      0.1154
     45  CE1      -16.6610   22.5310  -15.1130 C.ar  624  HIS624      0.1986
     46  NE2      -16.4260   21.6810  -14.1280 N.ar  624  HIS624     -0.2212
     47  N        -24.8010   21.1900  -12.6000 N.3   626  LEU626     -0.1231
     48  CA       -25.6660   20.2180  -11.9090 C.3   626  LEU626      0.1693
     49  C        -25.6230   20.4050  -10.3840 C.2   626  LEU626      0.2592
     50  O        -26.6730   20.5940   -9.7350 O.2   626  LEU626     -0.2718
     51  CB       -25.3040   18.7570  -12.2670 C.3   626  LEU626      0.0284
     52  CG       -26.2150   17.6870  -11.6390 C.3   626  LEU626      0.0019
     53  CD1      -27.6690   17.6910  -12.2830 C.3   626  LEU626      0.0001
     54  CD2      -25.5850   16.3020  -11.8230 C.3   626  LEU626      0.0001
     55  N        -24.4260   20.3850   -9.7940 N.am  627  THR627     -0.1953
     56  CA       -24.3070   20.1250   -8.3480 C.3   627  THR627      0.1897
     57  C        -23.6410   21.2780   -7.6740 C.2   627  THR627      0.2313
     58  O        -22.5340   21.6720   -8.0890 O.2   627  THR627     -0.2863
     59  CB       -23.4270   18.8670   -8.0870 C.3   627  THR627      0.1794
     60  OG1      -24.0160   17.7250   -8.7100 O.3   627  THR627     -0.2208
     61  CG2      -23.2460   18.5760   -6.6010 C.3   627  THR627      0.0378
     62  N        -15.7480   25.1140   -3.5840 N.3   639  THR639     -0.1203
     63  CA       -14.2780   25.0050   -3.8960 C.3   639  THR639      0.1994
     64  C        -14.1300   24.0990   -5.1180 C.2   639  THR639      0.2618
     65  O        -13.3570   24.4080   -6.0170 O.2   639  THR639     -0.2717
     66  CB       -13.5000   24.3430   -2.6850 C.3   639  THR639      0.1784
     67  OG1      -13.7130   25.0940   -1.4800 O.3   639  THR639     -0.2211
     68  CG2      -11.9770   24.2900   -2.9310 C.3   639  THR639      0.0376
     69  N        -14.8900   22.9880   -5.1560 N.am  640  CYS640     -0.1955
     70  CA       -14.8710   22.0710   -6.3170 C.3   640  CYS640      0.1843
     71  C        -16.0740   22.1790   -7.2510 C.2   640  CYS640      0.2625
     72  O        -15.9220   22.0330   -8.4550 O.2   640  CYS640     -0.2714
     73  CB       -14.7870   20.6260   -5.8310 C.3   640  CYS640      0.0997
     74  SG       -13.3840   20.3720   -4.6530 S.3   640  CYS640     -0.0797
     75  N        -17.2560   22.4730   -6.6950 N.am  641  HIS641     -0.1973
     76  CA       -18.4880   22.3910   -7.4510 C.3   641  HIS641      0.1656
     77  C        -18.9110   23.6500   -8.1970 C.2   641  HIS641      0.2291
     78  O        -19.8480   23.6170   -9.0150 O.2   641  HIS641     -0.2864
     79  CB       -19.6390   21.9330   -6.5340 C.3   641  HIS641      0.0771
     80  CG       -19.5730   20.4990   -6.1630 C.ar  641  HIS641      0.0820
     81  ND1      -19.7400   19.4980   -7.0930 N.ar  641  HIS641     -0.2267
     82  CD2      -19.2860   19.8840   -4.9880 C.ar  641  HIS641      0.1154
     83  CE1      -19.6250   18.3220   -6.4960 C.ar  641  HIS641      0.1986
     84  NE2      -19.3230   18.5230   -5.2250 N.ar  641  HIS641     -0.2212
     85  N        -16.7340   28.3420  -12.6060 N.3   646  ASN646     -0.1225
     86  CA       -15.6930   27.3250  -12.5340 C.3   646  ASN646      0.1785
     87  C        -14.3710   28.0570  -12.7860 C.2   646  ASN646      0.2598
     88  O        -14.3380   28.9830  -13.6040 O.2   646  ASN646     -0.2718
     89  CB       -15.9330   26.2630  -13.5880 C.3   646  ASN646      0.1169
     90  CG       -14.7190   25.3640  -13.8000 C.2   646  ASN646      0.2627
     91  OD1      -13.9470   25.5760  -14.7410 O.2   646  ASN646     -0.2716
     92  ND2      -14.5440   24.3600  -12.9250 N.am  646  ASN646     -0.0877
     93  N        -13.3150   27.7360  -12.0330 N.am  647  THR647     -0.1939
     94  CA       -12.1370   28.6290  -11.9680 C.3   647  THR647      0.2028
     95  C        -10.9960   28.2430  -12.9360 C.2   647  THR647      0.2642
     96  O         -9.9520   28.8950  -12.9320 O.2   647  THR647     -0.2714
     97  CB       -11.5240   28.6080  -10.5600 C.3   647  THR647      0.1808
     98  OG1      -11.4700   27.2310  -10.1350 O.3   647  THR647     -0.2208
     99  CG2      -12.4350   29.3480   -9.5630 C.3   647  THR647      0.0379
    100  N        -11.2110   27.2560  -13.8000 N.am  648  ALA648     -0.1963
    101  CA       -10.2500   26.8810  -14.8360 C.3   648  ALA648      0.1728
    102  C        -10.5180   27.6090  -16.1440 C.2   648  ALA648      0.2616
    103  O        -11.6800   27.9480  -16.4560 O.2   648  ALA648     -0.2715
    104  CB       -10.2980   25.3450  -15.0500 C.3   648  ALA648      0.0334
    105  N         -9.4650   27.8760  -16.9170 N.am  649  VAL649     -0.1977
    106  CA        -9.6390   28.4770  -18.2370 C.3   649  VAL649      0.1596
    107  C         -9.1390   27.5660  -19.3660 C.2   649  VAL649      0.2287
    108  O         -9.9480   26.9510  -20.0790 O.2   649  VAL649     -0.2864
    109  CB        -8.9720   29.8800  -18.3390 C.3   649  VAL649      0.0276
    110  CG1       -9.1260   30.4490  -19.7260 C.3   649  VAL649      0.0022
    111  CG2       -9.6000   30.8440  -17.3610 C.3   649  VAL649      0.0022
    112  N         -7.4900   24.4920  -21.6910 N.3   651  LEU651     -0.1245
    113  CA        -7.9420   23.1260  -21.7880 C.3   651  LEU651      0.1561
    114  C         -6.7970   22.1360  -21.8190 C.2   651  LEU651      0.2260
    115  O         -6.9810   20.9680  -21.4570 O.2   651  LEU651     -0.2867
    116  CB        -8.7810   22.9310  -23.0350 C.3   651  LEU651      0.0270
    117  CG       -10.0330   23.7990  -23.0550 C.3   651  LEU651      0.0019
    118  CD1      -10.8640   23.4750  -24.3200 C.3   651  LEU651      0.0001
    119  CD2      -10.8380   23.4520  -21.7720 C.3   651  LEU651      0.0001
    120  N         -5.1060   22.6270  -16.4200 N.3   655  SER655     -0.1202
    121  CA        -6.0390   23.3530  -15.5340 C.3   655  SER655      0.2020
    122  C         -7.2840   22.5270  -15.1250 C.2   655  SER655      0.2619
    123  O         -7.7130   22.5430  -13.9460 O.2   655  SER655     -0.2717
    124  CB        -6.4950   24.6580  -16.2100 C.3   655  SER655      0.2103
    125  OG        -5.3650   25.4960  -16.4920 O.3   655  SER655     -0.2182
    126  N         -7.8860   21.8120  -16.0660 N.am  656  CYS656     -0.1969
    127  CA        -9.0460   20.9600  -15.7100 C.3   656  CYS656      0.1712
    128  C         -8.6140   19.7660  -14.8620 C.2   656  CYS656      0.2296
    129  O         -9.4020   19.2570  -14.0520 O.2   656  CYS656     -0.2864
    130  CB        -9.7200   20.4250  -16.9850 C.3   656  CYS656      0.0983
    131  SG       -10.1070   21.7620  -18.1970 S.3   656  CYS656     -0.0798
    132  N         -8.5840   19.1710  -10.8750 N.3   659  CYS659     -0.1221
    133  CA        -9.6750   18.3900  -10.2290 C.3   659  CYS659      0.1808
    134  C         -9.9330   17.0490  -10.9270 C.2   659  CYS659      0.2601
    135  O        -10.1650   16.0480  -10.2560 O.2   659  CYS659     -0.2717
    136  CB       -10.9820   19.2130  -10.1800 C.3   659  CYS659      0.0970
    137  SG       -10.7840   20.7170   -9.1800 S.3   659  CYS659     -0.0800
    138  N        -10.0730   17.0760  -12.2490 N.am  660  HIS660     -0.1975
    139  CA       -10.4650   15.8850  -13.0000 C.3   660  HIS660      0.1656
    140  C         -9.2640   14.9530  -13.1760 C.2   660  HIS660      0.2291
    141  O         -8.6440   14.9050  -14.2480 O.2   660  HIS660     -0.2864
    142  CB       -11.0110   16.2800  -14.3840 C.3   660  HIS660      0.0771
    143  CG       -12.3660   16.9450  -14.3270 C.ar  660  HIS660      0.0820
    144  ND1      -13.5400   16.2240  -14.2550 N.ar  660  HIS660     -0.2267
    145  CD2      -12.7240   18.2530  -14.2650 C.ar  660  HIS660      0.1154
    146  CE1      -14.5680   17.0610  -14.2060 C.ar  660  HIS660      0.1986
    147  NE2      -14.1000   18.2980  -14.1920 N.ar  660  HIS660     -0.2212
    148  N        -18.8530    6.3080  -16.2360 N.3   673  ARG673     -0.1245
    149  CA       -19.0550    7.7510  -16.3340 C.3   673  ARG673      0.1563
    150  C        -18.0410    8.4700  -15.4260 C.2   673  ARG673      0.2260
    151  O        -18.4060    9.2520  -14.5170 O.2   673  ARG673     -0.2867
    152  CB       -20.5090    8.0980  -15.9910 C.3   673  ARG673      0.0307
    153  CG       -20.9820    7.5120  -14.6610 C.3   673  ARG673      0.0489
    154  CD       -22.4700    7.8920  -14.3710 C.3   673  ARG673      0.2205
    155  NE       -22.7100    9.3510  -14.3420 N.pl3 673  ARG673     -0.0865
    156  CZ       -23.7120    9.9620  -13.6970 C.cat 673  ARG673      0.5346
    157  NH1      -24.5900    9.2680  -12.9720 N.pl3 673  ARG673      0.1354
    158  NH2      -23.8740   11.2840  -13.8150 N.pl3 673  ARG673      0.1354
    159  N        -14.6910   10.3400  -13.6080 N.3   675  PHE675     -0.1241
    160  CA       -14.3950   11.7490  -13.3970 C.3   675  PHE675      0.1605
    161  C        -13.0590   12.1990  -14.0000 C.2   675  PHE675      0.2264
    162  O        -12.8460   13.3970  -14.2630 O.2   675  PHE675     -0.2867
    163  CB       -14.4200   12.0210  -11.8810 C.3   675  PHE675      0.0534
    164  CG       -14.4010   13.4770  -11.5330 C.ar  675  PHE675     -0.0203
    165  CD1      -15.5340   14.2780  -11.7460 C.ar  675  PHE675     -0.0042
    166  CD2      -13.2630   14.0410  -10.9990 C.ar  675  PHE675     -0.0042
    167  CE1      -15.5060   15.6470  -11.4250 C.ar  675  PHE675     -0.0003
    168  CE2      -13.2340   15.4020  -10.6440 C.ar  675  PHE675     -0.0003
    169  CZ       -14.3400   16.2090  -10.9040 C.ar  675  PHE675     -0.0000
    170  N         -9.9330   13.0630  -16.2620 N.3   677  PHE677     -0.1241
    171  CA       -10.1750   13.9490  -17.4400 C.3   677  PHE677      0.1605
    172  C        -10.1530   13.1880  -18.7710 C.2   677  PHE677      0.2264
    173  O        -11.0360   13.3810  -19.6300 O.2   677  PHE677     -0.2867
    174  CB        -9.1400   15.0930  -17.5040 C.3   677  PHE677      0.0534
    175  CG        -9.5460   16.2480  -18.4210 C.ar  677  PHE677     -0.0203
    176  CD1       -8.6800   16.7060  -19.4050 C.ar  677  PHE677     -0.0042
    177  CD2      -10.7670   16.9060  -18.2520 C.ar  677  PHE677     -0.0042
    178  CE1       -8.9860   17.8110  -20.1920 C.ar  677  PHE677     -0.0003
    179  CE2      -11.1020   18.0060  -19.0210 C.ar  677  PHE677     -0.0003
    180  CZ       -10.2290   18.4710  -20.0060 C.ar  677  PHE677     -0.0000
    181  N        -13.2700   11.0070  -19.0380 N.3   680  MET680     -0.1230
    182  CA       -14.4700   11.8060  -19.2880 C.3   680  MET680      0.1702
    183  C        -14.5140   12.3020  -20.7050 C.2   680  MET680      0.2592
    184  O        -15.5420   12.2400  -21.3790 O.2   680  MET680     -0.2718
    185  CB       -14.4990   13.0080  -18.3360 C.3   680  MET680      0.0401
    186  CG       -15.6860   13.9550  -18.5840 C.3   680  MET680      0.0596
    187  SD       -15.9210   15.1440  -17.2360 S.3   680  MET680     -0.1393
    188  CE       -14.5340   16.2360  -17.5860 C.3   680  MET680      0.0692
    189  N        -13.3900   12.8050  -21.1910 N.am  681  ILE681     -0.1980
    190  CA       -13.4240   13.4990  -22.4720 C.3   681  ILE681      0.1595
    191  C        -13.5180   12.4440  -23.5860 C.2   681  ILE681      0.2287
    192  O        -14.1360   12.6750  -24.6360 O.2   681  ILE681     -0.2864
    193  CB       -12.1930   14.3820  -22.6750 C.3   681  ILE681      0.0276
    194  CG1      -12.0890   15.5070  -21.6040 C.3   681  ILE681      0.0022
    195  CG2      -12.1280   14.9340  -24.1000 C.3   681  ILE681      0.0022
    196  CD1      -13.2330   16.6270  -21.6760 C.3   681  ILE681      0.0001
    197  N        -17.3030   11.2360  -23.5010 N.3   684  ILE684     -0.1245
    198  CA       -18.2600   12.1950  -24.0950 C.3   684  ILE684      0.1561
    199  C        -18.1970   12.1720  -25.6290 C.2   684  ILE684      0.2260
    200  O        -19.2470   12.1080  -26.3140 O.2   684  ILE684     -0.2867
    201  CB       -18.0360   13.6330  -23.5680 C.3   684  ILE684      0.0252
    202  CG1      -18.4820   13.7360  -22.0830 C.3   684  ILE684      0.0019
    203  CG2      -18.7640   14.6850  -24.4410 C.3   684  ILE684      0.0019
    204  CD1      -17.7490   14.8070  -21.3030 C.3   684  ILE684      0.0001
    205  N        -20.0770    7.2800  -22.7160 N.3   689  ARG689     -0.1245
    206  CA       -20.3880    7.6620  -21.3340 C.3   689  ARG689      0.1563
    207  C        -21.7760    7.1670  -20.9910 C.2   689  ARG689      0.2260
    208  O        -22.7130    7.4820  -21.6910 O.2   689  ARG689     -0.2867
    209  CB       -20.3530    9.2040  -21.2080 C.3   689  ARG689      0.0307
    210  CG       -20.1440    9.6920  -19.7710 C.3   689  ARG689      0.0489
    211  CD       -19.5020   11.0940  -19.7340 C.3   689  ARG689      0.2205
    212  NE       -19.3640   11.6380  -18.3690 N.pl3 689  ARG689     -0.0865
    213  CZ       -18.3600   11.3430  -17.5320 C.cat 689  ARG689      0.5346
    214  NH1      -17.3960   10.4490  -17.8650 N.pl3 689  ARG689      0.1354
    215  NH2      -18.2660   11.9950  -16.3770 N.pl3 689  ARG689      0.1354
    216  N        -23.9100    7.9920  -18.6670 N.3   691  VAL691     -0.1231
    217  CA       -24.8140    9.1020  -18.3140 C.3   691  VAL691      0.1692
    218  C        -24.0360   10.4300  -18.3670 C.2   691  VAL691      0.2592
    219  O        -22.9020   10.5060  -17.8520 O.2   691  VAL691     -0.2718
    220  CB       -25.4390    8.9450  -16.8770 C.3   691  VAL691      0.0266
    221  CG1      -26.5120   10.0520  -16.6290 C.3   691  VAL691      0.0020
    222  CG2      -26.0900    7.5660  -16.6990 C.3   691  VAL691      0.0020
    223  N        -24.5860   11.4210  -19.0780 N.am  692  ARG692     -0.1966
    224  CA       -24.0830   12.8030  -18.9890 C.3   692  ARG692      0.1729
    225  C        -24.8590   13.5780  -17.9060 C.2   692  ARG692      0.2616
    226  O        -26.0750   13.4270  -17.7620 O.2   692  ARG692     -0.2715
    227  CB       -24.1900   13.5240  -20.3320 C.3   692  ARG692      0.0348
    228  CG       -23.4850   12.8270  -21.5060 C.3   692  ARG692      0.0492
    229  CD       -23.6370   13.6480  -22.7930 C.3   692  ARG692      0.2205
    230  NE       -22.9330   14.9430  -22.7610 N.pl3 692  ARG692     -0.0865
    231  CZ       -23.0390   15.8630  -23.7200 C.cat 692  ARG692      0.5346
    232  NH1      -23.7410   15.6150  -24.8120 N.pl3 692  ARG692      0.1354
    233  NH2      -22.3660   16.9850  -23.6500 N.pl3 692  ARG692      0.1354
    234  N        -24.1390   14.3310  -17.0850 N.am  693  ARG693     -0.1977
    235  CA       -24.7530   14.9890  -15.9280 C.3   693  ARG693      0.1597
    236  C        -25.9330   15.9180  -16.2540 C.2   693  ARG693      0.2287
    237  O        -26.8820   15.9690  -15.4760 O.2   693  ARG693     -0.2864
    238  CB       -23.7010   15.7550  -15.1300 C.3   693  ARG693      0.0334
    239  CG       -23.1530   14.9340  -14.0210 C.3   693  ARG693      0.0492
    240  CD       -22.0150   15.6380  -13.3120 C.3   693  ARG693      0.2205
    241  NE       -21.5100   14.8530  -12.1960 N.pl3 693  ARG693     -0.0865
    242  CZ       -20.4170   14.0960  -12.2750 C.cat 693  ARG693      0.5346
    243  NH1      -19.7790   13.9390  -13.4320 N.pl3 693  ARG693      0.1354
    244  NH2      -19.9760   13.4690  -11.2060 N.pl3 693  ARG693      0.1354
@<TRIPOS>BOND
     1   200   199    2
     2   199   198    1
     3   232   231    1
     4   192   191    2
     5   203   201    1
     6   118   117    1
     7   195   193    1
     8   198   201    1
     9   198   197    1
    10   231   233    1
    11   231   230    2
    12   191   190    1
    13   201   202    1
    14    30    28   ar
    15    30    29   ar
    16   117   116    1
    17   117   119    1
    18   116   113    1
    19   229   230    1
    20   229   228    1
    21    28    26   ar
    22   205   206    1
    23   193   190    1
    24   193   194    1
    25    29    27   ar
    26   190   189    1
    27   202   204    1
    28   114   113    1
    29   114   115    2
    30   113   112    1
    31   208   207    2
    32   196   194    1
    33   228   227    1
    34    26    25   ar
    35   184   183    2
    36    27    25   ar
    37   206   209    1
    38   206   207    1
    39   209   210    1
    40   189   183   am
    41   183   182    1
    42    25    24    1
    43   227   224    1
    44   178   180   ar
    45   178   176   ar
    46   108   107    2
    47   180   179   ar
    48   210   211    1
    49   211   212    1
    50   110   109    1
    51   173   172    2
    52    20    21    1
    53    36    35    1
    54   176   175   ar
    55   107   106    1
    56   182   181    1
    57   182   185    1
    58    24    21    1
    59    21    22    1
    60   223   224    1
    61   223   218   am
    62   179   177   ar
    63   224   225    1
    64   172   171    1
    65   216   217    1
    66   186   185    1
    67   186   187    1
    68   175   177   ar
    69   175   174    1
    70   212   213    2
    71   218   217    1
    72   218   219    2
    73   109   106    1
    74   109   111    1
    75   217   220    1
    76   106   105    1
    77   131   130    1
    78    35    32    1
    79   225   226    2
    80   225   234   am
    81   214   213    1
    82    22    23    2
    83    31    32    1
    84   188   187    1
    85   213   215    1
    86   174   171    1
    87    32    33    1
    88   171   170    1
    89   234   235    1
    90   130   127    1
    91   105   102   am
    92   220   222    1
    93   220   221    1
    94   125   124    1
    95   103   102    2
    96   120   121    1
    97   149   148    1
    98   149   152    1
    99   149   150    1
   100   236   235    1
   101   236   237    2
   102   124   121    1
   103   102   101    1
   104   126   127    1
   105   126   122   am
   106    33    34    2
   107    33    37   am
   108   152   153    1
   109   235   238    1
   110   127   128    1
   111   121   122    1
   112   150   151    2
   113   238   239    1
   114   122   123    2
   115    45    43   ar
   116    45    46   ar
   117    37    38    1
   118   104   101    1
   119   128   129    2
   120   101   100    1
   121    43    42   ar
   122    91    90    2
   123   153   154    1
   124   142   143    1
   125   142   139    1
   126   154   155    1
   127   155   156    2
   128   143   145   ar
   129   143   144   ar
   130   145   147   ar
   131   162   161    2
   132   144   146   ar
   133   141   140    2
   134   146   147   ar
   135    46    44   ar
   136   239   240    1
   137   161   160    1
   138   158   156    1
   139   100    95   am
   140    90    89    1
   141    90    92   am
   142   156   157    1
   143    38    41    1
   144    38    39    1
   145   159   160    1
   146    88    87    2
   147    89    86    1
   148    42    44   ar
   149    42    41    1
   150   243   242    1
   151   160   163    1
   152   240   241    1
   153   140   139    1
   154    39    40    2
   155   139   138    1
   156    95    96    2
   157    95    94    1
   158    87    86    1
   159    87    93   am
   160    85    86    1
   161    47    48    1
   162    53    52    1
   163   242   241    2
   164   242   244    1
   165    51    48    1
   166    51    52    1
   167   138   134   am
   168    93    94    1
   169    94    97    1
   170    48    49    1
   171   163   164    1
   172    54    52    1
   173   165   164   ar
   174   165   167   ar
   175   164   166   ar
   176   167   169   ar
   177   166   168   ar
   178   134   135    2
   179   134   133    1
   180   169   168   ar
   181   132   133    1
   182    19    17    1
   183    97    98    1
   184    97    99    1
   185    49    55   am
   186    49    50    2
   187   133   136    1
   188   136   137    1
   189    18    17    1
   190    55    56    1
   191    17    16    2
   192    78    77    2
   193    60    59    1
   194    16    15    1
   195    72    71    2
   196    56    59    1
   197    56    57    1
   198    77    76    1
   199    58    57    2
   200    59    61    1
   201    15    14    1
   202    76    75    1
   203    76    79    1
   204     8     7    1
   205    71    75   am
   206    71    70    1
   207    81    83   ar
   208    81    80   ar
   209    14    13    1
   210     1     2    1
   211    79    80    1
   212    83    84   ar
   213    70    73    1
   214    70    69    1
   215     5     2    1
   216     5     6    1
   217    80    82   ar
   218     7     6    1
   219    65    64    2
   220    73    74    1
   221     2     3    1
   222    13    10    1
   223    84    82   ar
   224    69    64   am
   225    64    63    1
   226    10     9    1
   227    10    11    1
   228     3     4    2
   229    63    62    1
   230    63    66    1
   231    11    12    2
   232    68    66    1
   233    66    67    1
