@<TRIPOS>MOLECULE
tmp/3ufhA04.pdb
 209 206 0 0 0
SMALL
GASTEIGER

@<TRIPOS>ATOM
      1  N         -6.8520   15.0190   -6.5360 N.3   482  MET482     -0.1245
      2  CA        -7.7930   15.7790   -5.6870 C.3   482  MET482      0.1570
      3  C         -7.7490   15.2690   -4.2390 C.2   482  MET482      0.2261
      4  O         -7.6200   16.0460   -3.3070 O.2   482  MET482     -0.2867
      5  CB        -9.2290   15.6850   -6.2460 C.3   482  MET482      0.0387
      6  CG       -10.2880   16.2740   -5.3190 C.3   482  MET482      0.0595
      7  SD       -11.9340   16.1230   -6.0550 S.3   482  MET482     -0.1393
      8  CE       -11.9030   17.2690   -7.4190 C.3   482  MET482      0.0692
      9  N         -9.4210   12.9470   -0.7790 N.3   484  PRO484     -0.2102
     10  CA       -10.7180   12.8590   -0.1030 C.3   484  PRO484      0.1504
     11  C        -11.1920   14.2420    0.2350 C.2   484  PRO484      0.2576
     12  O        -10.4250   15.1920    0.1700 O.2   484  PRO484     -0.2718
     13  CB       -10.4160   12.0950    1.1980 C.3   484  PRO484      0.0282
     14  CG        -9.0830   11.4370    0.9740 C.3   484  PRO484      0.0208
     15  CD        -8.3410   12.2740   -0.0310 C.3   484  PRO484      0.0893
     16  N        -12.4760   14.3810    0.4780 N.am  485  ARG485     -0.1967
     17  CA       -13.0220   15.6660    0.8060 C.3   485  ARG485      0.1714
     18  C        -12.7840   15.9420    2.2830 C.2   485  ARG485      0.2458
     19  O        -13.0950   15.1120    3.1020 O.2   485  ARG485     -0.2730
     20  CB       -14.5230   15.6880    0.5150 C.3   485  ARG485      0.0347
     21  CG       -15.1500   17.0170    0.9360 C.3   485  ARG485      0.0492
     22  CD       -16.6510   16.9850    0.7060 C.3   485  ARG485      0.2205
     23  NE       -17.3040   16.0140    1.5720 N.pl3 485  ARG485     -0.0865
     24  CZ       -18.6240   15.8200    1.6180 C.cat 485  ARG485      0.5346
     25  NH1      -19.4240   16.4690    0.7730 N.pl3 485  ARG485      0.1354
     26  NH2      -19.1390   14.9400    2.4600 N.pl3 485  ARG485      0.1354
     27  N        -12.1710   17.0900    2.6240 N.am  486  PRO486     -0.2727
     28  CA       -11.9380   17.3700    4.0300 C.3   486  PRO486      0.1402
     29  C        -13.1570   18.0570    4.6580 C.2   486  PRO486      0.2269
     30  O        -14.1220   18.3820    3.9460 O.2   486  PRO486     -0.2865
     31  CB       -10.7500   18.3550    3.9820 C.3   486  PRO486      0.0296
     32  CG       -10.9270   19.0670    2.6800 C.3   486  PRO486      0.0237
     33  CD       -11.4840   18.0390    1.7240 C.3   486  PRO486      0.0939
     34  N        -12.2420   23.9870    0.7740 N.3   493  ARG493     -0.1231
     35  CA       -12.5520   22.6660    1.2960 C.3   493  ARG493      0.1694
     36  C        -11.9190   21.6440    0.3550 C.2   493  ARG493      0.2593
     37  O        -12.4780   20.5780    0.1050 O.2   493  ARG493     -0.2718
     38  CB       -14.0960   22.4030    1.4730 C.3   493  ARG493      0.0321
     39  CG       -14.2590   21.2210    2.3800 C.3   493  ARG493      0.0489
     40  CD       -15.5210   20.4060    2.5410 C.3   493  ARG493      0.2205
     41  NE       -16.5330   21.1460    3.1920 N.pl3 493  ARG493     -0.0865
     42  CZ       -17.4900   20.6730    3.9820 C.cat 493  ARG493      0.5346
     43  NH1      -17.5170   19.4050    4.4250 N.pl3 493  ARG493      0.1354
     44  NH2      -18.3620   21.5740    4.4190 N.pl3 493  ARG493      0.1354
     45  N        -10.7170   21.9330   -0.1380 N.am  494  SER494     -0.1938
     46  CA       -10.0130   20.9080   -0.9170 C.3   494  SER494      0.2055
     47  C         -8.5850   20.7000   -0.3640 C.2   494  SER494      0.2642
     48  O         -7.9480   21.6520    0.1620 O.2   494  SER494     -0.2714
     49  CB        -9.9630   21.3230   -2.3950 C.3   494  SER494      0.2130
     50  OG        -8.9470   20.6220   -3.1000 O.3   494  SER494     -0.2179
     51  N         -8.0600   19.4940   -0.5860 N.am  495  GLU495     -0.1976
     52  CA        -6.7010   19.1180   -0.1370 C.3   495  GLU495      0.1602
     53  C         -5.6580   19.7400   -1.0410 C.2   495  GLU495      0.2287
     54  O         -4.5590   19.9960   -0.5980 O.2   495  GLU495     -0.2864
     55  CB        -6.4800   17.6010   -0.2240 C.3   495  GLU495      0.0415
     56  CG        -7.0310   16.8220    0.9160 C.3   495  GLU495      0.1163
     57  CD        -6.5290   15.4020    0.9070 C.2   495  GLU495      0.3649
     58  OE1       -5.6540   15.0730    0.0690 O.co2 495  GLU495     -0.2457
     59  OE2       -7.0310   14.5960    1.7170 O.co2 495  GLU495     -0.2457
     60  N        -24.8010   21.1900  -12.6000 N.3   626  LEU626     -0.1231
     61  CA       -25.6660   20.2180  -11.9090 C.3   626  LEU626      0.1693
     62  C        -25.6230   20.4050  -10.3840 C.2   626  LEU626      0.2593
     63  O        -26.6730   20.5940   -9.7350 O.2   626  LEU626     -0.2718
     64  CB       -25.3040   18.7570  -12.2670 C.3   626  LEU626      0.0284
     65  CG       -26.2150   17.6870  -11.6390 C.3   626  LEU626      0.0019
     66  CD1      -27.6690   17.6910  -12.2830 C.3   626  LEU626      0.0001
     67  CD2      -25.5850   16.3020  -11.8230 C.3   626  LEU626      0.0001
     68  N        -24.4260   20.3850   -9.7940 N.am  627  THR627     -0.1939
     69  CA       -24.3070   20.1250   -8.3480 C.3   627  THR627      0.2028
     70  C        -23.6410   21.2780   -7.6740 C.2   627  THR627      0.2642
     71  O        -22.5340   21.6720   -8.0890 O.2   627  THR627     -0.2714
     72  CB       -23.4270   18.8670   -8.0870 C.3   627  THR627      0.1808
     73  OG1      -24.0160   17.7250   -8.7100 O.3   627  THR627     -0.2208
     74  CG2      -23.2460   18.5760   -6.6010 C.3   627  THR627      0.0379
     75  N        -24.3150   21.8450   -6.6620 N.am  628  HIS628     -0.1973
     76  CA       -23.7730   22.9870   -5.8760 C.3   628  HIS628      0.1656
     77  C        -23.1950   24.1080   -6.7290 C.2   628  HIS628      0.2291
     78  O        -22.2320   24.7660   -6.3580 O.2   628  HIS628     -0.2864
     79  CB       -22.7850   22.4870   -4.7960 C.3   628  HIS628      0.0771
     80  CG       -23.4880   21.8840   -3.6180 C.ar  628  HIS628      0.0820
     81  ND1      -23.9500   22.6660   -2.5680 N.ar  628  HIS628     -0.2267
     82  CD2      -24.1210   20.6880   -3.4970 C.ar  628  HIS628      0.1154
     83  CE1      -24.7460   21.9380   -1.8040 C.ar  628  HIS628      0.1986
     84  NE2      -24.8380   20.7240   -2.3220 N.ar  628  HIS628     -0.2212
     85  N        -16.4780   26.4170    0.9120 N.3   636  SER636     -0.1202
     86  CA       -16.9740   25.0850    1.2550 C.3   636  SER636      0.2020
     87  C        -17.1910   24.2130    0.0180 C.2   636  SER636      0.2619
     88  O        -16.2480   23.9880   -0.7040 O.2   636  SER636     -0.2717
     89  CB       -18.2770   25.1880    2.1140 C.3   636  SER636      0.2103
     90  OG       -18.5870   23.9290    2.7360 O.3   636  SER636     -0.2182
     91  N        -18.4210   23.7260   -0.2390 N.am  637  CYS637     -0.1969
     92  CA       -18.7080   22.8380   -1.4170 C.3   637  CYS637      0.1712
     93  C        -18.3130   23.4630   -2.7690 C.2   637  CYS637      0.2296
     94  O        -17.9530   22.7620   -3.7310 O.2   637  CYS637     -0.2864
     95  CB       -20.2300   22.4880   -1.4690 C.3   637  CYS637      0.0983
     96  SG       -20.9060   22.0000    0.1850 S.3   637  CYS637     -0.0798
     97  N        -15.7480   25.1140   -3.5840 N.3   639  THR639     -0.1203
     98  CA       -14.2780   25.0050   -3.8960 C.3   639  THR639      0.1994
     99  C        -14.1300   24.0990   -5.1180 C.2   639  THR639      0.2618
    100  O        -13.3570   24.4080   -6.0170 O.2   639  THR639     -0.2717
    101  CB       -13.5000   24.3430   -2.6850 C.3   639  THR639      0.1784
    102  OG1      -13.7130   25.0940   -1.4800 O.3   639  THR639     -0.2211
    103  CG2      -11.9770   24.2900   -2.9310 C.3   639  THR639      0.0376
    104  N        -14.8900   22.9880   -5.1560 N.am  640  CYS640     -0.1955
    105  CA       -14.8710   22.0710   -6.3170 C.3   640  CYS640      0.1843
    106  C        -16.0740   22.1790   -7.2510 C.2   640  CYS640      0.2625
    107  O        -15.9220   22.0330   -8.4550 O.2   640  CYS640     -0.2714
    108  CB       -14.7870   20.6260   -5.8310 C.3   640  CYS640      0.0997
    109  SG       -13.3840   20.3720   -4.6530 S.3   640  CYS640     -0.0797
    110  N        -17.2560   22.4730   -6.6950 N.am  641  HIS641     -0.1973
    111  CA       -18.4880   22.3910   -7.4510 C.3   641  HIS641      0.1656
    112  C        -18.9110   23.6500   -8.1970 C.2   641  HIS641      0.2291
    113  O        -19.8480   23.6170   -9.0150 O.2   641  HIS641     -0.2864
    114  CB       -19.6390   21.9330   -6.5340 C.3   641  HIS641      0.0771
    115  CG       -19.5730   20.4990   -6.1630 C.ar  641  HIS641      0.0820
    116  ND1      -19.7400   19.4980   -7.0930 N.ar  641  HIS641     -0.2267
    117  CD2      -19.2860   19.8840   -4.9880 C.ar  641  HIS641      0.1154
    118  CE1      -19.6250   18.3220   -6.4960 C.ar  641  HIS641      0.1986
    119  NE2      -19.3230   18.5230   -5.2250 N.ar  641  HIS641     -0.2212
    120  N        -10.9940   11.2680   -7.5760 N.3   664  PRO664     -0.2102
    121  CA       -12.1370   12.1350   -7.2150 C.3   664  PRO664      0.1504
    122  C        -12.4800   11.9450   -5.7430 C.2   664  PRO664      0.2576
    123  O        -12.3840   10.8210   -5.2510 O.2   664  PRO664     -0.2718
    124  CB       -13.2830   11.6330   -8.0900 C.3   664  PRO664      0.0282
    125  CG       -12.8140   10.1610   -8.5580 C.3   664  PRO664      0.0208
    126  CD       -11.3110   10.2680   -8.6090 C.3   664  PRO664      0.0893
    127  N        -12.9320   13.0100   -5.0660 N.am  665  ALA665     -0.1966
    128  CA       -13.0570   13.0100   -3.5970 C.3   665  ALA665      0.1728
    129  C        -14.1420   12.1430   -2.9290 C.2   665  ALA665      0.2616
    130  O        -13.8810   11.5080   -1.8950 O.2   665  ALA665     -0.2715
    131  CB       -13.1570   14.4630   -3.0840 C.3   665  ALA665      0.0334
    132  N        -15.3900   12.2280   -3.3900 N.am  666  HIS666     -0.1959
    133  CA       -16.5170   11.6090   -2.6500 C.3   666  HIS666      0.1787
    134  C        -17.6720   11.4070   -3.6440 C.2   666  HIS666      0.2621
    135  O        -17.5200   11.7770   -4.8160 O.2   666  HIS666     -0.2715
    136  CB       -16.9690   12.4810   -1.4340 C.3   666  HIS666      0.0785
    137  CG       -17.7930   13.6780   -1.8380 C.ar  666  HIS666      0.0821
    138  ND1      -19.1330   13.8060   -1.5270 N.ar  666  HIS666     -0.2267
    139  CD2      -17.4920   14.7450   -2.6240 C.ar  666  HIS666      0.1154
    140  CE1      -19.6130   14.9130   -2.0770 C.ar  666  HIS666      0.1986
    141  NE2      -18.6430   15.4930   -2.7670 N.ar  666  HIS666     -0.2212
    142  N        -18.7220   10.6690   -3.2470 N.am  667  SER667     -0.1936
    143  CA       -19.8790   10.3890   -4.1450 C.3   667  SER667      0.2055
    144  C        -19.4030    9.9820   -5.5070 C.2   667  SER667      0.2643
    145  O        -19.8810   10.4960   -6.5120 O.2   667  SER667     -0.2714
    146  CB       -20.7520   11.6240   -4.3220 C.3   667  SER667      0.2130
    147  OG       -21.4750   11.8390   -3.1210 O.3   667  SER667     -0.2179
    148  N        -18.4520    9.0620   -5.5360 N.am  668  LYS668     -0.1963
    149  CA       -17.7840    8.6950   -6.7600 C.3   668  LYS668      0.1728
    150  C        -18.6860    8.0360   -7.7730 C.2   668  LYS668      0.2616
    151  O        -19.6000    7.2710   -7.4280 O.2   668  LYS668     -0.2715
    152  CB       -16.6160    7.7860   -6.4390 C.3   668  LYS668      0.0311
    153  CG       -15.5750    8.4850   -5.4820 C.3   668  LYS668      0.0038
    154  CD       -14.3900    7.5500   -5.1930 C.3   668  LYS668      0.0206
    155  CE       -13.7730    7.8670   -3.8240 C.3   668  LYS668      0.1093
    156  NZ       -12.5370    7.0600   -3.6600 N.3   668  LYS668     -0.1314
    157  N        -18.4090    8.3250   -9.0310 N.am  669  LYS669     -0.1977
    158  CA       -19.0270    7.6390  -10.1330 C.3   669  LYS669      0.1596
    159  C        -18.2170    6.4120  -10.5270 C.2   669  LYS669      0.2287
    160  O        -16.9640    6.4110  -10.3970 O.2   669  LYS669     -0.2864
    161  CB       -19.1210    8.5940  -11.3310 C.3   669  LYS669      0.0298
    162  CG       -20.5110    9.2510  -11.4740 C.3   669  LYS669      0.0038
    163  CD       -20.9400    9.9890  -10.2320 C.3   669  LYS669      0.0206
    164  CE       -22.3240   10.6890  -10.4210 C.3   669  LYS669      0.1093
    165  NZ       -22.7490   11.1540   -9.0630 N.3   669  LYS669     -0.1314
    166  N        -18.8530    6.3080  -16.2360 N.3   673  ARG673     -0.1245
    167  CA       -19.0550    7.7510  -16.3340 C.3   673  ARG673      0.1563
    168  C        -18.0410    8.4700  -15.4260 C.2   673  ARG673      0.2260
    169  O        -18.4060    9.2520  -14.5170 O.2   673  ARG673     -0.2867
    170  CB       -20.5090    8.0980  -15.9910 C.3   673  ARG673      0.0307
    171  CG       -20.9820    7.5120  -14.6610 C.3   673  ARG673      0.0489
    172  CD       -22.4700    7.8920  -14.3710 C.3   673  ARG673      0.2205
    173  NE       -22.7100    9.3510  -14.3420 N.pl3 673  ARG673     -0.0865
    174  CZ       -23.7120    9.9620  -13.6970 C.cat 673  ARG673      0.5346
    175  NH1      -24.5900    9.2680  -12.9720 N.pl3 673  ARG673      0.1354
    176  NH2      -23.8740   11.2840  -13.8150 N.pl3 673  ARG673      0.1354
    177  N        -14.6910   10.3400  -13.6080 N.3   675  PHE675     -0.1241
    178  CA       -14.3950   11.7490  -13.3970 C.3   675  PHE675      0.1605
    179  C        -13.0590   12.1990  -14.0000 C.2   675  PHE675      0.2264
    180  O        -12.8460   13.3970  -14.2630 O.2   675  PHE675     -0.2867
    181  CB       -14.4200   12.0210  -11.8810 C.3   675  PHE675      0.0534
    182  CG       -14.4010   13.4770  -11.5330 C.ar  675  PHE675     -0.0203
    183  CD1      -15.5340   14.2780  -11.7460 C.ar  675  PHE675     -0.0042
    184  CD2      -13.2630   14.0410  -10.9990 C.ar  675  PHE675     -0.0042
    185  CE1      -15.5060   15.6470  -11.4250 C.ar  675  PHE675     -0.0003
    186  CE2      -13.2340   15.4020  -10.6440 C.ar  675  PHE675     -0.0003
    187  CZ       -14.3400   16.2090  -10.9040 C.ar  675  PHE675     -0.0000
    188  N        -24.1390   14.3310  -17.0850 N.3   693  ARG693     -0.1245
    189  CA       -24.7530   14.9890  -15.9280 C.3   693  ARG693      0.1563
    190  C        -25.9330   15.9180  -16.2540 C.2   693  ARG693      0.2260
    191  O        -26.8820   15.9690  -15.4760 O.2   693  ARG693     -0.2867
    192  CB       -23.7010   15.7550  -15.1300 C.3   693  ARG693      0.0307
    193  CG       -23.1530   14.9340  -14.0210 C.3   693  ARG693      0.0489
    194  CD       -22.0150   15.6380  -13.3120 C.3   693  ARG693      0.2205
    195  NE       -21.5100   14.8530  -12.1960 N.pl3 693  ARG693     -0.0865
    196  CZ       -20.4170   14.0960  -12.2750 C.cat 693  ARG693      0.5346
    197  NH1      -19.7790   13.9390  -13.4320 N.pl3 693  ARG693      0.1354
    198  NH2      -19.9760   13.4690  -11.2060 N.pl3 693  ARG693      0.1354
    199  N         -6.5810    5.4370  -11.6050 N.3   728  PHE728     -0.1241
    200  CA        -7.8630    6.1200  -11.4280 C.3   728  PHE728      0.1605
    201  C         -8.7570    5.2860  -10.5210 C.2   728  PHE728      0.2264
    202  O         -9.1470    4.1770  -10.8900 O.2   728  PHE728     -0.2867
    203  CB        -8.5080    6.3300  -12.8160 C.3   728  PHE728      0.0534
    204  CG        -9.9760    6.7440  -12.7830 C.ar  728  PHE728     -0.0203
    205  CD1      -10.5110    7.4440  -11.7000 C.ar  728  PHE728     -0.0042
    206  CD2      -10.7920    6.4820  -13.8810 C.ar  728  PHE728     -0.0042
    207  CE1      -11.8590    7.7990  -11.6710 C.ar  728  PHE728     -0.0003
    208  CE2      -12.1200    6.8400  -13.8810 C.ar  728  PHE728     -0.0003
    209  CZ       -12.6650    7.4970  -12.7610 C.ar  728  PHE728     -0.0000
@<TRIPOS>BOND
     1   188   189    1
     2   167   166    1
     3   167   170    1
     4   167   168    1
     5   190   189    1
     6   190   191    2
     7   170   171    1
     8   189   192    1
     9   168   169    2
    10   192   193    1
    11   171   172    1
    12   172   173    1
    13   173   174    2
    14   180   179    2
    15   193   194    1
    16   179   178    1
    17   206   208   ar
    18   206   204   ar
    19   208   209   ar
    20   176   174    1
    21   174   175    1
    22   177   178    1
    23   197   196    1
    24   178   181    1
    25   194   195    1
    26   203   204    1
    27   203   200    1
    28   204   205   ar
    29   209   207   ar
    30    60    61    1
    31    66    65    1
    32   196   195    2
    33   196   198    1
    34    64    61    1
    35    64    65    1
    36    61    62    1
    37   181   182    1
    38    67    65    1
    39   183   182   ar
    40   183   185   ar
    41   205   207   ar
    42   199   200    1
    43   182   184   ar
    44   162   161    1
    45   162   163    1
    46   200   201    1
    47   185   187   ar
    48   161   158    1
    49   184   186   ar
    50   187   186   ar
    51   202   201    2
    52   159   160    2
    53   159   158    1
    54   164   163    1
    55   164   165    1
    56    62    68   am
    57    62    63    2
    58   158   157    1
    59    68    69    1
    60   157   150   am
    61   113   112    2
    62    73    72    1
    63   126   125    1
    64   126   120    1
    65   125   124    1
    66   107   106    2
    67    69    72    1
    68    69    70    1
    69   112   111    1
    70   124   121    1
    71    71    70    2
    72    72    74    1
    73   150   151    2
    74   150   149    1
    75    70    75   am
    76   120   121    1
    77   111   110    1
    78   111   114    1
    79     8     7    1
    80   106   110   am
    81   106   105    1
    82   121   122    1
    83   116   118   ar
    84   116   115   ar
    85   149   152    1
    86   149   148    1
    87    77    78    2
    88    77    76    1
    89    75    76    1
    90     1     2    1
    91   114   115    1
    92   145   144    2
    93   118   119   ar
    94   152   153    1
    95   105   108    1
    96   105   104    1
    97     5     2    1
    98     5     6    1
    99   115   117   ar
   100     7     6    1
   101   100    99    2
   102    76    79    1
   103   108   109    1
   104   122   123    2
   105   122   127   am
   106     2     3    1
   107   148   144   am
   108   144   143    1
   109   153   154    1
   110   119   117   ar
   111   154   155    1
   112   104    99   am
   113    99    98    1
   114   127   128    1
   115   135   134    2
   116    79    80    1
   117   146   143    1
   118   146   147    1
   119     3     4    2
   120   143   142    1
   121    98    97    1
   122    98   101    1
   123   155   156    1
   124    94    93    2
   125   134   142   am
   126   134   133    1
   127    80    82   ar
   128    80    81   ar
   129   128   131    1
   130   128   129    1
   131    82    84   ar
   132   132   129   am
   133   132   133    1
   134    50    49    1
   135   103   101    1
   136   129   130    2
   137    93    92    1
   138   141   139   ar
   139   141   140   ar
   140   101   102    1
   141   133   136    1
   142   139   137   ar
   143    81    83   ar
   144    49    46    1
   145    84    83   ar
   146   140   138   ar
   147   137   138   ar
   148   137   136    1
   149    95    92    1
   150    95    96    1
   151    92    91    1
   152    53    54    2
   153    53    52    1
   154    46    47    1
   155    46    45    1
   156     9    10    1
   157     9    15    1
   158    88    87    2
   159    51    47   am
   160    51    52    1
   161    47    48    2
   162    91    87   am
   163    55    52    1
   164    55    56    1
   165    45    36   am
   166    10    11    1
   167    10    13    1
   168    15    14    1
   169    87    86    1
   170    58    57   ar
   171    37    36    2
   172    12    11    2
   173    11    16   am
   174    36    35    1
   175    16    17    1
   176    20    17    1
   177    20    21    1
   178    22    21    1
   179    22    23    1
   180    25    24    1
   181    34    35    1
   182    17    18    1
   183    57    56    1
   184    57    59   ar
   185    85    86    1
   186    14    13    1
   187    86    89    1
   188    35    38    1
   189    38    39    1
   190    23    24    2
   191    24    26    1
   192    33    27    1
   193    33    32    1
   194    89    90    1
   195    18    27   am
   196    18    19    2
   197    39    40    1
   198    40    41    1
   199    27    28    1
   200    32    31    1
   201    41    42    2
   202    30    29    2
   203    31    28    1
   204    42    44    1
   205    42    43    1
   206    28    29    1
