@<TRIPOS>MOLECULE
tmp/3ufhA10.pdb
 158 152 0 0 0
SMALL
GASTEIGER

@<TRIPOS>ATOM
      1  N        -33.1440   42.0650  -55.3430 N.3    61  SER61      -0.1202
      2  CA       -33.1260   43.4580  -54.9700 C.3    61  SER61       0.2020
      3  C        -34.1900   43.7020  -53.9250 C.2    61  SER61       0.2619
      4  O        -35.1080   42.8910  -53.7560 O.2    61  SER61      -0.2717
      5  CB       -33.3440   44.3520  -56.2130 C.3    61  SER61       0.2103
      6  OG       -34.6550   44.1950  -56.7330 O.3    61  SER61      -0.2182
      7  N        -34.0380   44.8130  -53.2190 N.am   62  GLY62      -0.1942
      8  CA       -34.9890   45.2750  -52.2260 C.3    62  GLY62       0.2014
      9  C        -34.3520   46.5340  -51.6790 C.2    62  GLY62       0.2638
     10  O        -33.4150   47.0680  -52.2950 O.2    62  GLY62      -0.2714
     11  N        -34.7450   46.9320  -50.4730 N.am   63  LYS63      -0.1977
     12  CA       -33.9790   47.9200  -49.6860 C.3    63  LYS63       0.1596
     13  C        -32.5590   47.4540  -49.2480 C.2    63  LYS63       0.2287
     14  O        -32.3890   46.3820  -48.6540 O.2    63  LYS63      -0.2864
     15  CB       -34.7820   48.3620  -48.4760 C.3    63  LYS63       0.0298
     16  CG       -34.1860   49.5700  -47.8060 C.3    63  LYS63       0.0038
     17  CD       -35.0970   50.0730  -46.7310 C.3    63  LYS63       0.0206
     18  CE       -34.4400   51.1560  -45.9040 C.3    63  LYS63       0.1093
     19  NZ       -34.2620   52.4460  -46.6520 N.3    63  LYS63      -0.1314
     20  N        -28.9360   42.8840  -51.5430 N.3    66  LYS66      -0.1245
     21  CA       -29.3050   41.5030  -51.3060 C.3    66  LYS66       0.1561
     22  C        -28.5220   40.7130  -52.3080 C.2    66  LYS66       0.2260
     23  O        -28.2980   41.1740  -53.4460 O.2    66  LYS66      -0.2867
     24  CB       -30.8140   41.2610  -51.4690 C.3    66  LYS66       0.0271
     25  CG       -31.6700   42.0830  -50.4890 C.3    66  LYS66       0.0035
     26  CD       -33.1820   41.8260  -50.5960 C.3    66  LYS66       0.0206
     27  CE       -33.5920   40.4710  -49.9660 C.3    66  LYS66       0.1093
     28  NZ       -35.0350   40.4840  -49.5460 N.3    66  LYS66      -0.1314
     29  N        -29.5760   41.0060  -45.3220 N.3   338  HIS338     -0.1226
     30  CA       -30.8790   40.3620  -45.1430 C.3   338  HIS338      0.1752
     31  C        -31.3610   39.4490  -46.3190 C.2   338  HIS338      0.2596
     32  O        -31.0210   39.6500  -47.5210 O.2   338  HIS338     -0.2718
     33  CB       -31.9310   41.3830  -44.7120 C.3   338  HIS338      0.0759
     34  CG       -32.4380   42.2500  -45.8270 C.ar  338  HIS338      0.0818
     35  ND1      -31.6120   43.0530  -46.5900 N.ar  338  HIS338     -0.2268
     36  CD2      -33.6980   42.4600  -46.2860 C.ar  338  HIS338      0.1154
     37  CE1      -32.3370   43.6800  -47.5010 C.ar  338  HIS338      0.1986
     38  NE2      -33.6010   43.3190  -47.3530 N.ar  338  HIS338     -0.2212
     39  N        -32.0100   38.3560  -45.9340 N.am  339  LYS339     -0.1966
     40  CA       -32.5420   37.3840  -46.8720 C.3   339  LYS339      0.1728
     41  C        -33.5100   36.5690  -46.0820 C.2   339  LYS339      0.2616
     42  O        -33.1320   35.9280  -45.1100 O.2   339  LYS339     -0.2715
     43  CB       -31.4510   36.4820  -47.4590 C.3   339  LYS339      0.0311
     44  CG       -31.9940   35.3190  -48.3250 C.3   339  LYS339      0.0038
     45  CD       -30.9430   34.2600  -48.5910 C.3   339  LYS339      0.0206
     46  CE       -31.5900   32.9630  -49.0810 C.3   339  LYS339      0.1093
     47  NZ       -30.6350   31.8220  -49.3040 N.3   339  LYS339     -0.1314
     48  N        -34.7720   36.6250  -46.4870 N.am  340  GLY340     -0.1955
     49  CA       -35.8960   36.1370  -45.6920 C.3   340  GLY340      0.1869
     50  C        -35.6480   34.8040  -45.0510 C.2   340  GLY340      0.2309
     51  O        -35.7270   34.6640  -43.8260 O.2   340  GLY340     -0.2863
     52  N        -32.5640   34.8480  -42.3330 N.3   343  CYS343     -0.1235
     53  CA       -32.9560   35.5170  -41.1240 C.3   343  CYS343      0.1677
     54  C        -33.9860   34.7310  -40.3460 C.2   343  CYS343      0.2270
     55  O        -33.9250   34.6660  -39.1140 O.2   343  CYS343     -0.2867
     56  CB       -33.4830   36.9000  -41.4580 C.3   343  CYS343      0.0956
     57  SG       -32.3050   37.8430  -42.4480 S.3   343  CYS343     -0.0801
     58  N        -44.6480   43.4100  -45.9290 N.3   369  ARG369     -0.1245
     59  CA       -43.3000   43.0200  -46.3100 C.3   369  ARG369      0.1563
     60  C        -43.1800   41.5150  -46.4150 C.2   369  ARG369      0.2260
     61  O        -42.0750   40.9820  -46.4950 O.2   369  ARG369     -0.2867
     62  CB       -42.2700   43.5460  -45.3200 C.3   369  ARG369      0.0307
     63  CG       -42.5000   44.9860  -44.8690 C.3   369  ARG369      0.0489
     64  CD       -42.1320   45.9380  -45.9790 C.3   369  ARG369      0.2205
     65  NE       -42.1440   47.3270  -45.5380 N.pl3 369  ARG369     -0.0865
     66  CZ       -41.9950   48.3470  -46.3680 C.cat 369  ARG369      0.5346
     67  NH1      -41.8570   48.1280  -47.6830 N.pl3 369  ARG369      0.1354
     68  NH2      -41.9880   49.5720  -45.8920 N.pl3 369  ARG369      0.1354
     69  N        -41.9270   36.9640  -43.5050 N.3   372  VAL372     -0.1231
     70  CA       -40.7370   37.1420  -42.6760 C.3   372  VAL372      0.1692
     71  C        -40.5350   38.6340  -42.3490 C.2   372  VAL372      0.2592
     72  O        -40.4120   39.0300  -41.1810 O.2   372  VAL372     -0.2718
     73  CB       -39.4790   36.5480  -43.3930 C.3   372  VAL372      0.0266
     74  CG1      -38.1720   36.9130  -42.6490 C.3   372  VAL372      0.0020
     75  CG2      -39.6110   35.0340  -43.5420 C.3   372  VAL372      0.0020
     76  N        -40.5800   39.4730  -43.3720 N.am  373  GLY373     -0.1957
     77  CA       -40.5850   40.9200  -43.1760 C.3   373  GLY373      0.1869
     78  C        -41.5240   41.3820  -42.0920 C.2   373  GLY373      0.2309
     79  O        -41.1530   42.1560  -41.2120 O.2   373  GLY373     -0.2863
     80  N        -40.1590   40.4490  -38.6560 N.3   376  PHE376     -0.1227
     81  CA       -39.0410   41.3010  -38.2340 C.3   376  PHE376      0.1736
     82  C        -39.4540   42.7300  -37.9370 C.2   376  PHE376      0.2595
     83  O        -38.9220   43.3440  -36.9960 O.2   376  PHE376     -0.2718
     84  CB       -37.9100   41.2930  -39.2620 C.3   376  PHE376      0.0547
     85  CG       -37.0100   40.1010  -39.1370 C.ar  376  PHE376     -0.0202
     86  CD1      -37.4800   38.8140  -39.4360 C.ar  376  PHE376     -0.0042
     87  CD2      -35.7460   40.2290  -38.5640 C.ar  376  PHE376     -0.0042
     88  CE1      -36.6510   37.6740  -39.2250 C.ar  376  PHE376     -0.0003
     89  CE2      -34.9160   39.1110  -38.3750 C.ar  376  PHE376     -0.0003
     90  CZ       -35.3770   37.8390  -38.6850 C.ar  376  PHE376     -0.0000
     91  N        -40.4150   43.2550  -38.7230 N.am  377  HIS377     -0.1975
     92  CA       -40.8300   44.6500  -38.6120 C.3   377  HIS377      0.1656
     93  C        -41.8800   44.8350  -37.5200 C.2   377  HIS377      0.2291
     94  O        -41.8470   45.8310  -36.7850 O.2   377  HIS377     -0.2864
     95  CB       -41.3820   45.1720  -39.9660 C.3   377  HIS377      0.0771
     96  CG       -40.3290   45.5530  -40.9720 C.ar  377  HIS377      0.0820
     97  ND1      -40.5830   46.4250  -42.0160 N.ar  377  HIS377     -0.2267
     98  CD2      -39.0400   45.1600  -41.1270 C.ar  377  HIS377      0.1154
     99  CE1      -39.5200   46.5000  -42.8040 C.ar  377  HIS377      0.1986
    100  NE2      -38.5550   45.7670  -42.2740 N.ar  377  HIS377     -0.2212
    101  N        -36.4670   42.0090  -32.0840 N.3   392  LEU392     -0.1245
    102  CA       -36.2730   42.5420  -33.4180 C.3   392  LEU392      0.1561
    103  C        -37.1020   43.8060  -33.6500 C.2   392  LEU392      0.2260
    104  O        -36.6810   44.6680  -34.4100 O.2   392  LEU392     -0.2867
    105  CB       -36.5960   41.5120  -34.5050 C.3   392  LEU392      0.0270
    106  CG       -35.7340   40.2440  -34.4890 C.3   392  LEU392      0.0019
    107  CD1      -36.4580   39.0930  -35.2010 C.3   392  LEU392      0.0001
    108  CD2      -34.3060   40.4600  -34.9920 C.3   392  LEU392      0.0001
    109  N        -35.6080   46.9810  -32.5010 N.3   395  VAL395     -0.1231
    110  CA       -34.6160   47.4430  -33.4550 C.3   395  VAL395      0.1692
    111  C        -35.2860   48.0860  -34.6880 C.2   395  VAL395      0.2592
    112  O        -34.7470   49.0130  -35.2960 O.2   395  VAL395     -0.2718
    113  CB       -33.7420   46.2510  -33.8830 C.3   395  VAL395      0.0266
    114  CG1      -32.7460   46.6400  -34.9670 C.3   395  VAL395      0.0020
    115  CG2      -33.0500   45.6940  -32.6520 C.3   395  VAL395      0.0020
    116  N        -36.4430   47.5640  -35.0800 N.am  396  PHE396     -0.1976
    117  CA       -37.1560   48.1480  -36.1930 C.3   396  PHE396      0.1639
    118  C        -37.6000   49.5550  -35.7840 C.2   396  PHE396      0.2290
    119  O        -37.5040   50.4840  -36.5710 O.2   396  PHE396     -0.2864
    120  CB       -38.3870   47.3380  -36.5850 C.3   396  PHE396      0.0560
    121  CG       -39.2460   48.0210  -37.6390 C.ar  396  PHE396     -0.0200
    122  CD1      -38.8280   48.0700  -38.9600 C.ar  396  PHE396     -0.0042
    123  CD2      -40.4230   48.6780  -37.2850 C.ar  396  PHE396     -0.0042
    124  CE1      -39.6100   48.7070  -39.9430 C.ar  396  PHE396     -0.0003
    125  CE2      -41.2190   49.3210  -38.2590 C.ar  396  PHE396     -0.0003
    126  CZ       -40.7990   49.3580  -39.5680 C.ar  396  PHE396     -0.0000
    127  N        -32.9170   52.1740  -36.3320 N.3   400  GLY400     -0.1210
    128  CA       -32.7190   52.5090  -37.7390 C.3   400  GLY400      0.1956
    129  C        -32.5850   51.3360  -38.7040 C.2   400  GLY400      0.2612
    130  O        -32.0460   50.2840  -38.3480 O.2   400  GLY400     -0.2717
    131  N        -32.9510   51.5750  -39.9660 N.am  401  CYS401     -0.1970
    132  CA       -33.0310   50.5330  -40.9940 C.3   401  CYS401      0.1712
    133  C        -31.7200   49.8790  -41.2780 C.2   401  CYS401      0.2296
    134  O        -31.6790   48.7550  -41.8080 O.2   401  CYS401     -0.2864
    135  CB       -33.5730   51.1230  -42.3140 C.3   401  CYS401      0.0983
    136  SG       -35.0490   52.2030  -42.0470 S.3   401  CYS401     -0.0798
    137  N        -29.6280   48.9030  -39.4710 N.3   403  SER403     -0.1202
    138  CA       -29.5010   47.7420  -38.5790 C.3   403  SER403      0.2020
    139  C        -29.7260   46.3790  -39.2390 C.2   403  SER403      0.2619
    140  O        -29.0640   45.4100  -38.8500 O.2   403  SER403     -0.2717
    141  CB       -30.4660   47.8680  -37.4150 C.3   403  SER403      0.2103
    142  OG       -30.1050   48.9630  -36.6220 O.3   403  SER403     -0.2182
    143  N        -30.6280   46.2890  -40.2270 N.am  404  CYS404     -0.1955
    144  CA       -30.7600   45.0540  -41.0200 C.3   404  CYS404      0.1843
    145  C        -30.5470   45.1540  -42.5300 C.2   404  CYS404      0.2625
    146  O        -30.1530   44.1710  -43.1900 O.2   404  CYS404     -0.2714
    147  CB       -32.0910   44.3680  -40.7410 C.3   404  CYS404      0.0997
    148  SG       -32.4370   44.1350  -38.9990 S.3   404  CYS404     -0.0797
    149  N        -30.8430   46.3250  -43.0840 N.am  405  HIS405     -0.1973
    150  CA       -30.7600   46.5330  -44.5310 C.3   405  HIS405      0.1656
    151  C        -29.4050   47.1930  -44.7980 C.2   405  HIS405      0.2291
    152  O        -29.2050   48.3540  -44.4540 O.2   405  HIS405     -0.2864
    153  CB       -31.9490   47.4350  -44.9890 C.3   405  HIS405      0.0771
    154  CG       -33.3090   46.8160  -44.7850 C.ar  405  HIS405      0.0820
    155  ND1      -33.8820   45.9770  -45.7120 N.ar  405  HIS405     -0.2267
    156  CD2      -34.2190   46.9400  -43.7830 C.ar  405  HIS405      0.1154
    157  CE1      -35.0820   45.5950  -45.2850 C.ar  405  HIS405      0.1986
    158  NE2      -35.3080   46.1560  -44.1130 N.ar  405  HIS405     -0.2212
@<TRIPOS>BOND
     1     6     5    1
     2     5     2    1
     3     1     2    1
     4     2     3    1
     5     3     4    2
     6     3     7   am
     7    23    22    2
     8     7     8    1
     9    22    21    1
    10    10     9    2
    11     8     9    1
    12     9    11   am
    13    20    21    1
    14    24    21    1
    15    24    25    1
    16    26    25    1
    17    26    27    1
    18    11    12    1
    19    27    28    1
    20    12    13    1
    21    12    15    1
    22    47    46    1
    23    13    14    2
    24    46    45    1
    25    45    44    1
    26    15    16    1
    27    44    43    1
    28    16    17    1
    29    67    66    1
    30    32    31    2
    31    37    38   ar
    32    37    35   ar
    33    43    40    1
    34    38    36   ar
    35    40    41    1
    36    40    39    1
    37    17    18    1
    38    19    18    1
    39    35    34   ar
    40    61    60    2
    41    48    41   am
    42    48    49    1
    43    60    59    1
    44    66    68    1
    45    66    65    2
    46    31    39   am
    47    31    30    1
    48    59    58    1
    49    59    62    1
    50    36    34   ar
    51    41    42    2
    52    64    65    1
    53    64    63    1
    54    34    33    1
    55   155   157   ar
    56   155   154   ar
    57    49    50    1
    58    29    30    1
    59    62    63    1
    60   157   158   ar
    61    30    33    1
    62    50    51    2
    63   153   154    1
    64   153   150    1
    65   151   150    1
    66   151   152    2
    67   154   156   ar
    68   150   149    1
    69   158   156   ar
    70    75    73    1
    71    69    70    1
    72    73    70    1
    73    73    74    1
    74    76    77    1
    75    76    71   am
    76   146   145    2
    77    77    78    1
    78   149   145   am
    79    99   100   ar
    80    99    97   ar
    81    70    71    1
    82   145   144    1
    83    57    56    1
    84    71    72    2
    85    52    53    1
    86   135   136    1
    87   135   132    1
    88   100    98   ar
    89    78    79    2
    90    97    96   ar
    91   134   133    2
    92    56    53    1
    93   133   132    1
    94    98    96   ar
    95    53    54    1
    96   144   147    1
    97   144   143    1
    98   132   131    1
    99    96    95    1
   100   147   148    1
   101    54    55    2
   102   143   139   am
   103    95    92    1
   104   131   129   am
   105   124   126   ar
   106   124   122   ar
   107   126   125   ar
   108   137   138    1
   109    86    88   ar
   110    86    85   ar
   111    84    85    1
   112    84    81    1
   113   139   140    2
   114   139   138    1
   115    88    90   ar
   116    85    87   ar
   117   122   121   ar
   118    91    92    1
   119    91    82   am
   120   129   130    2
   121   129   128    1
   122    90    89   ar
   123    80    81    1
   124    92    93    1
   125   138   141    1
   126    87    89   ar
   127   125   123   ar
   128    81    82    1
   129    82    83    2
   130   128   127    1
   131   121   123   ar
   132   121   120    1
   133    93    94    2
   134   141   142    1
   135   120   117    1
   136   119   118    2
   137   117   118    1
   138   117   116    1
   139   112   111    2
   140   107   106    1
   141   116   111   am
   142   108   106    1
   143   114   113    1
   144   111   110    1
   145   105   106    1
   146   105   102    1
   147   104   103    2
   148   113   110    1
   149   113   115    1
   150   103   102    1
   151   110   109    1
   152   102   101    1
