@<TRIPOS>MOLECULE
tmp/3ufhA01.pdb
 133 127 0 0 0
SMALL
GASTEIGER

@<TRIPOS>ATOM
      1  N         -2.8460    3.6060  -18.3200 N.3   738  THR738     -0.1203
      2  CA        -3.0370    3.3130  -19.7660 C.3   738  THR738      0.1994
      3  C         -4.3480    2.5630  -19.9580 C.2   738  THR738      0.2617
      4  O         -5.0930    2.8230  -20.8710 O.2   738  THR738     -0.2717
      5  CB        -1.8320    2.5000  -20.3550 C.3   738  THR738      0.1784
      6  OG1       -0.5960    3.1700  -20.0160 O.3   738  THR738     -0.2211
      7  CG2       -1.9390    2.4320  -21.8560 C.3   738  THR738      0.0376
      8  N         -4.6680    1.6800  -19.0350 N.am  739  VAL739     -0.1979
      9  CA        -5.9490    0.9830  -19.0810 C.3   739  VAL739      0.1595
     10  C         -7.1220    1.9880  -19.0630 C.2   739  VAL739      0.2287
     11  O         -8.0710    1.8410  -19.8300 O.2   739  VAL739     -0.2864
     12  CB        -6.0520   -0.0190  -17.9120 C.3   739  VAL739      0.0276
     13  CG1       -7.4670   -0.4230  -17.6380 C.3   739  VAL739      0.0022
     14  CG2       -5.1840   -1.2820  -18.2120 C.3   739  VAL739      0.0022
     15  N         -7.4030    3.7290  -22.4540 N.3   742  CYS742     -0.1235
     16  CA        -7.9100    2.9540  -23.6060 C.3   742  CYS742      0.1677
     17  C         -9.2880    2.4050  -23.3100 C.2   742  CYS742      0.2270
     18  O        -10.1630    2.4120  -24.1570 O.2   742  CYS742     -0.2867
     19  CB        -6.9720    1.7670  -23.9160 C.3   742  CYS742      0.0956
     20  SG        -5.2340    2.2330  -24.0760 S.3   742  CYS742     -0.0801
     21  N        -12.8520    1.3210  -25.0140 N.3   746  HIS746     -0.1241
     22  CA       -12.7090   -0.0490  -25.4880 C.3   746  HIS746      0.1621
     23  C        -13.3870   -1.0150  -24.4880 C.2   746  HIS746      0.2264
     24  O        -13.7210   -2.1260  -24.8460 O.2   746  HIS746     -0.2867
     25  CB       -11.2080   -0.3970  -25.6980 C.3   746  HIS746      0.0745
     26  CG       -10.6520   -0.0150  -27.0440 C.ar  746  HIS746      0.0817
     27  ND1      -10.8210   -0.8030  -28.1710 N.ar  746  HIS746     -0.2268
     28  CD2       -9.8720    1.0280  -27.4350 C.ar  746  HIS746      0.1154
     29  CE1      -10.2060   -0.2330  -29.2040 C.ar  746  HIS746      0.1986
     30  NE2       -9.6430    0.8930  -28.7950 N.ar  746  HIS746     -0.2212
     31  N        -10.5690   -8.9170  -23.5860 N.3   755  VAL755     -0.1245
     32  CA        -9.9690   -7.5720  -23.5070 C.3   755  VAL755      0.1561
     33  C         -9.4630   -7.3090  -22.0830 C.2   755  VAL755      0.2260
     34  O         -8.3470   -6.8860  -21.8940 O.2   755  VAL755     -0.2867
     35  CB       -10.9560   -6.4570  -23.9530 C.3   755  VAL755      0.0252
     36  CG1      -10.2680   -5.1240  -23.9280 C.3   755  VAL755      0.0019
     37  CG2      -11.4420   -6.7120  -25.3780 C.3   755  VAL755      0.0019
     38  N         -6.4270   -9.3010  -21.5400 N.3   758  HIS758     -0.1226
     39  CA        -5.2920   -8.6780  -22.2250 C.3   758  HIS758      0.1752
     40  C         -4.6880   -7.5760  -21.3490 C.2   758  HIS758      0.2596
     41  O         -3.4620   -7.3800  -21.3390 O.2   758  HIS758     -0.2718
     42  CB        -5.7320   -8.1400  -23.5940 C.3   758  HIS758      0.0759
     43  CG        -4.6870   -7.3630  -24.3360 C.ar  758  HIS758      0.0818
     44  ND1       -3.5620   -7.9440  -24.8840 N.ar  758  HIS758     -0.2268
     45  CD2       -4.6870   -6.0730  -24.7690 C.ar  758  HIS758      0.1154
     46  CE1       -2.8760   -7.0270  -25.5630 C.ar  758  HIS758      0.1986
     47  NE2       -3.5550   -5.8840  -25.5330 N.ar  758  HIS758     -0.2212
     48  N         -5.5490   -6.8330  -20.6370 N.am  759  PHE759     -0.1976
     49  CA        -5.0530   -5.7520  -19.7710 C.3   759  PHE759      0.1639
     50  C         -4.2610   -6.3880  -18.6370 C.2   759  PHE759      0.2290
     51  O         -3.1550   -5.9710  -18.3380 O.2   759  PHE759     -0.2864
     52  CB        -6.1910   -4.8680  -19.1670 C.3   759  PHE759      0.0560
     53  CG        -7.0090   -4.1170  -20.1890 C.ar  759  PHE759     -0.0200
     54  CD1       -6.4640   -3.7250  -21.3760 C.ar  759  PHE759     -0.0042
     55  CD2       -8.3190   -3.7760  -19.9270 C.ar  759  PHE759     -0.0042
     56  CE1       -7.2040   -3.0090  -22.3150 C.ar  759  PHE759     -0.0003
     57  CE2       -9.0900   -3.0610  -20.8650 C.ar  759  PHE759     -0.0003
     58  CZ        -8.5160   -2.6810  -22.0690 C.ar  759  PHE759     -0.0000
     59  N         -0.6560   -7.7740  -19.2580 N.3   762  ASN762     -0.1240
     60  CA         0.4260   -6.8670  -19.6030 C.3   762  ASN762      0.1653
     61  C          0.7090   -5.7770  -18.5660 C.2   762  ASN762      0.2266
     62  O          1.1880   -4.6910  -18.9130 O.2   762  ASN762     -0.2867
     63  CB         0.2040   -6.2690  -20.9850 C.3   762  ASN762      0.1155
     64  CG         0.3180   -7.3120  -22.1020 C.2   762  ASN762      0.2627
     65  OD1        1.4220   -7.6640  -22.5150 O.2   762  ASN762     -0.2716
     66  ND2       -0.8200   -7.7610  -22.6290 N.am  762  ASN762     -0.0877
     67  N         -1.4890   -4.4150  -16.3240 N.3   764  GLY764     -0.1225
     68  CA        -2.5950   -3.4870  -16.1490 C.3   764  GLY764      0.1811
     69  C         -3.5550   -3.9790  -15.0770 C.2   764  GLY764      0.2280
     70  O         -3.6610   -5.1850  -14.8410 O.2   764  GLY764     -0.2866
     71  N          2.7370   -1.3240  -15.9360 N.3   778  GLU778     -0.1231
     72  CA         2.1340   -1.4390  -17.2790 C.3   778  GLU778      0.1699
     73  C          3.2400   -1.4880  -18.3020 C.2   778  GLU778      0.2593
     74  O          4.1480   -0.6470  -18.2660 O.2   778  GLU778     -0.2718
     75  CB         1.1970   -0.2490  -17.6190 C.3   778  GLU778      0.0402
     76  CG        -0.1930   -0.3650  -17.0130 C.3   778  GLU778      0.1161
     77  CD        -1.1350    0.7950  -17.3700 C.2   778  GLU778      0.3649
     78  OE1       -0.6570    1.9130  -17.7090 O.co2 778  GLU778     -0.2457
     79  OE2       -2.3700    0.5490  -17.3800 O.co2 778  GLU778     -0.2457
     80  N          3.0930   -2.3880  -19.2790 N.am  779  THR779     -0.1939
     81  CA         4.0510   -2.4910  -20.3870 C.3   779  THR779      0.2028
     82  C          3.4090   -2.2020  -21.7500 C.2   779  THR779      0.2642
     83  O          3.9150   -2.6300  -22.8030 O.2   779  THR779     -0.2714
     84  CB         4.6960   -3.8960  -20.4450 C.3   779  THR779      0.1808
     85  OG1        3.6780   -4.8870  -20.2380 O.3   779  THR779     -0.2208
     86  CG2        5.7830   -4.0320  -19.3880 C.3   779  THR779      0.0379
     87  N          2.3390   -1.4100  -21.7260 N.am  780  CYS780     -0.1967
     88  CA         1.5640   -1.0730  -22.9190 C.3   780  CYS780      0.1712
     89  C          2.3900   -0.3380  -23.9590 C.2   780  CYS780      0.2296
     90  O          2.1860   -0.5200  -25.1540 O.2   780  CYS780     -0.2864
     91  CB         0.3400   -0.2110  -22.5200 C.3   780  CYS780      0.0983
     92  SG        -0.4490   -0.8150  -21.0340 S.3   780  CYS780     -0.0798
     93  N          5.3230   -0.5260  -25.1880 N.3   782  THR782     -0.1203
     94  CA         6.2520   -1.2570  -26.0490 C.3   782  THR782      0.1994
     95  C          5.5600   -1.6310  -27.3690 C.2   782  THR782      0.2618
     96  O          6.1590   -1.5110  -28.4470 O.2   782  THR782     -0.2717
     97  CB         6.7830   -2.5490  -25.3570 C.3   782  THR782      0.1784
     98  OG1        5.6920   -3.4680  -25.1310 O.3   782  THR782     -0.2211
     99  CG2        7.4360   -2.2200  -24.0280 C.3   782  THR782      0.0376
    100  N          4.2770   -1.9890  -27.2770 N.am  783  CYS783     -0.1955
    101  CA         3.4750   -2.3420  -28.4430 C.3   783  CYS783      0.1843
    102  C          2.5210   -1.2730  -28.9850 C.2   783  CYS783      0.2625
    103  O          2.1440   -1.3380  -30.1650 O.2   783  CYS783     -0.2714
    104  CB         2.6860   -3.6130  -28.1660 C.3   783  CYS783      0.0997
    105  SG         3.7250   -5.0140  -27.6590 S.3   783  CYS783     -0.0797
    106  N          2.0670   -0.3380  -28.1390 N.am  784  HIS784     -0.1973
    107  CA         0.9420    0.5500  -28.5330 C.3   784  HIS784      0.1656
    108  C          1.3690    2.0300  -28.6060 C.2   784  HIS784      0.2291
    109  O          0.6910    2.8610  -29.2220 O.2   784  HIS784     -0.2864
    110  CB        -0.2810    0.3600  -27.6140 C.3   784  HIS784      0.0771
    111  CG        -0.9290   -0.9940  -27.6980 C.ar  784  HIS784      0.0820
    112  ND1       -1.4910   -1.4690  -28.8660 N.ar  784  HIS784     -0.2267
    113  CD2       -1.2780   -1.8840  -26.7300 C.ar  784  HIS784      0.1154
    114  CE1       -2.0940   -2.6310  -28.6320 C.ar  784  HIS784      0.1986
    115  NE2       -1.9400   -2.9300  -27.3500 N.ar  784  HIS784     -0.2212
    116  N          1.9280   -2.2140  -32.7560 N.3   790  PHE790     -0.1241
    117  CA         0.4940   -1.9190  -32.7890 C.3   790  PHE790      0.1605
    118  C          0.2250   -0.5010  -32.2810 C.2   790  PHE790      0.2264
    119  O         -0.6250   -0.2800  -31.4000 O.2   790  PHE790     -0.2867
    120  CB        -0.2900   -2.9780  -32.0130 C.3   790  PHE790      0.0534
    121  CG        -0.3240   -4.3190  -32.7050 C.ar  790  PHE790     -0.0203
    122  CD1       -1.4840   -4.7640  -33.3300 C.ar  790  PHE790     -0.0042
    123  CD2        0.8290   -5.1020  -32.7900 C.ar  790  PHE790     -0.0042
    124  CE1       -1.5010   -5.9770  -34.0280 C.ar  790  PHE790     -0.0003
    125  CE2        0.8180   -6.3230  -33.4730 C.ar  790  PHE790     -0.0003
    126  CZ        -0.3490   -6.7570  -34.0890 C.ar  790  PHE790     -0.0000
    127  N         -3.1600    1.7840  -35.8510 N.3   795  VAL795     -0.1245
    128  CA        -4.3260    0.9310  -35.5940 C.3   795  VAL795      0.1561
    129  C         -5.6870    1.6680  -35.5980 C.2   795  VAL795      0.2260
    130  O         -6.7470    1.0440  -35.6450 O.2   795  VAL795     -0.2867
    131  CB        -4.1180    0.2720  -34.2510 C.3   795  VAL795      0.0252
    132  CG1       -5.3890   -0.3250  -33.7150 C.3   795  VAL795      0.0019
    133  CG2       -2.9650   -0.7770  -34.3420 C.3   795  VAL795      0.0019
@<TRIPOS>BOND
     1   127   128    1
     2   130   129    2
     3   129   128    1
     4   128   131    1
     5   133   131    1
     6   131   132    1
     7   126   124   ar
     8   126   125   ar
     9   124   122   ar
    10   125   123   ar
    11   122   121   ar
    12   123   121   ar
    13   117   116    1
    14   117   118    1
    15   117   120    1
    16   121   120    1
    17   118   119    2
    18   103   102    2
    19   109   108    2
    20    29    30   ar
    21    29    27   ar
    22   102   101    1
    23   102   106   am
    24   112   114   ar
    25   112   111   ar
    26    30    28   ar
    27   114   115   ar
    28   108   107    1
    29   107   106    1
    30   107   110    1
    31    96    95    2
    32   101   104    1
    33   101   100    1
    34    27    26   ar
    35   104   105    1
    36   111   110    1
    37   111   113   ar
    38    28    26   ar
    39    95   100   am
    40    95    94    1
    41   115   113   ar
    42    26    25    1
    43    94    97    1
    44    94    93    1
    45    25    22    1
    46    46    47   ar
    47    46    44   ar
    48    47    45   ar
    49    22    21    1
    50    22    23    1
    51    37    35    1
    52    97    98    1
    53    97    99    1
    54    90    89    2
    55    44    43   ar
    56    24    23    2
    57    45    43   ar
    58    43    42    1
    59    18    17    2
    60    20    19    1
    61    89    88    1
    62    35    36    1
    63    35    32    1
    64    19    16    1
    65    16    17    1
    66    16    15    1
    67    42    39    1
    68    31    32    1
    69    32    33    1
    70    88    91    1
    71    88    87    1
    72    83    82    2
    73    66    64   am
    74    91    92    1
    75    65    64    2
    76    56    58   ar
    77    56    54   ar
    78    39    38    1
    79    39    40    1
    80    64    63    1
    81    33    34    2
    82    58    57   ar
    83     7     5    1
    84    82    87   am
    85    82    81    1
    86    54    53   ar
    87    40    41    2
    88    40    48   am
    89    63    60    1
    90     4     3    2
    91    57    55   ar
    92    48    49    1
    93    84    81    1
    94    84    85    1
    95    84    86    1
    96    81    80    1
    97     5     6    1
    98     5     2    1
    99    53    55   ar
   100    53    52    1
   101     3     2    1
   102     3     8   am
   103    11    10    2
   104    49    52    1
   105    49    50    1
   106     2     1    1
   107    60    59    1
   108    60    61    1
   109    80    73   am
   110     9    10    1
   111     9     8    1
   112     9    12    1
   113    62    61    2
   114    50    51    2
   115    73    74    2
   116    73    72    1
   117    14    12    1
   118    12    13    1
   119    78    77   ar
   120    75    72    1
   121    75    76    1
   122    79    77   ar
   123    77    76    1
   124    72    71    1
   125    67    68    1
   126    68    69    1
   127    69    70    2
