@<TRIPOS>MOLECULE
tmp/3ufhA06.pdb
 207 196 0 0 0
SMALL
GASTEIGER

@<TRIPOS>ATOM
      1  N        -19.5220   30.2570  -48.6660 N.3   203  VAL203     -0.1245
      2  CA       -18.7830   29.4270  -47.7450 C.3   203  VAL203      0.1561
      3  C        -17.8610   28.5010  -48.5110 C.2   203  VAL203      0.2260
      4  O        -18.1140   28.1620  -49.6790 O.2   203  VAL203     -0.2867
      5  CB       -19.7240   28.5980  -46.8220 C.3   203  VAL203      0.0252
      6  CG1      -20.5450   29.5450  -45.9710 C.3   203  VAL203      0.0019
      7  CG2      -20.6130   27.6850  -47.6710 C.3   203  VAL203      0.0019
      8  N        -14.2880   26.9380  -43.5280 N.3   208  ASN208     -0.1225
      9  CA       -15.5110   27.1630  -42.8090 C.3   208  ASN208      0.1785
     10  C        -16.1190   25.9190  -42.1390 C.2   208  ASN208      0.2597
     11  O        -16.9720   26.0860  -41.3070 O.2   208  ASN208     -0.2718
     12  CB       -16.5880   27.8840  -43.6570 C.3   208  ASN208      0.1169
     13  CG       -16.1430   29.2370  -44.1490 C.2   208  ASN208      0.2627
     14  OD1      -16.3670   29.5840  -45.3270 O.2   208  ASN208     -0.2716
     15  ND2      -15.5230   30.0360  -43.2570 N.am  208  ASN208     -0.0877
     16  N        -15.7710   24.7020  -42.5550 N.am  209  CYS209     -0.1970
     17  CA       -16.5190   23.5160  -42.1370 C.3   209  CYS209      0.1712
     18  C        -15.5940   22.4860  -41.5400 C.2   209  CYS209      0.2296
     19  O        -15.9550   21.7120  -40.6520 O.2   209  CYS209     -0.2864
     20  CB       -17.2420   22.8770  -43.3530 C.3   209  CYS209      0.0983
     21  SG       -18.2860   24.0280  -44.1910 S.3   209  CYS209     -0.0798
     22  N        -13.0540   22.7590  -39.6510 N.3   211  LYS211     -0.1231
     23  CA       -12.6820   22.9500  -38.2410 C.3   211  LYS211      0.1693
     24  C        -13.4270   21.9440  -37.3690 C.2   211  LYS211      0.2592
     25  O        -12.8490   21.3880  -36.4240 O.2   211  LYS211     -0.2718
     26  CB       -12.8790   24.4200  -37.7730 C.3   211  LYS211      0.0285
     27  CG       -14.3540   24.8640  -37.6710 C.3   211  LYS211      0.0035
     28  CD       -14.5460   26.3240  -37.2130 C.3   211  LYS211      0.0206
     29  CE       -13.9190   27.3480  -38.1560 C.3   211  LYS211      0.1093
     30  NZ       -14.3250   27.1260  -39.6380 N.3   211  LYS211     -0.1314
     31  N        -14.6430   21.5770  -37.7910 N.am  212  CYS212     -0.1956
     32  CA       -15.4170   20.5450  -37.1320 C.3   212  CYS212      0.1843
     33  C        -15.5980   19.2220  -37.9040 C.2   212  CYS212      0.2625
     34  O        -15.6360   18.1690  -37.3030 O.2   212  CYS212     -0.2714
     35  CB       -16.7970   21.0770  -36.7500 C.3   212  CYS212      0.0997
     36  SG       -16.8870   22.5110  -35.6110 S.3   212  CYS212     -0.0797
     37  N        -15.9110   19.2780  -39.1850 N.am  213  HIS213     -0.1973
     38  CA       -16.2400   18.0440  -39.9380 C.3   213  HIS213      0.1656
     39  C        -15.0070   17.2220  -40.4240 C.2   213  HIS213      0.2291
     40  O        -14.0140   17.7960  -40.8850 O.2   213  HIS213     -0.2864
     41  CB       -17.0920   18.4400  -41.1410 C.3   213  HIS213      0.0771
     42  CG       -18.5000   18.7500  -40.7800 C.ar  213  HIS213      0.0820
     43  ND1      -19.3830   17.7600  -40.4070 N.ar  213  HIS213     -0.2267
     44  CD2      -19.1270   19.9350  -40.5390 C.ar  213  HIS213      0.1154
     45  CE1      -20.5290   18.3170  -40.0230 C.ar  213  HIS213      0.1986
     46  NE2      -20.4010   19.6350  -40.0990 N.ar  213  HIS213     -0.2212
     47  N        -17.3450    9.0830  -40.1680 N.3   225  LYS225     -0.1245
     48  CA       -18.3030   10.1490  -40.0030 C.3   225  LYS225      0.1561
     49  C        -17.8310   11.3170  -40.8960 C.2   225  LYS225      0.2260
     50  O        -17.8380   12.4740  -40.4670 O.2   225  LYS225     -0.2867
     51  CB       -18.3860   10.5360  -38.5000 C.3   225  LYS225      0.0271
     52  CG       -19.3730   11.6500  -38.0940 C.3   225  LYS225      0.0035
     53  CD       -20.8160   11.2490  -38.2870 C.3   225  LYS225      0.0206
     54  CE       -21.4730   10.8190  -36.9880 C.3   225  LYS225      0.1093
     55  NZ       -21.0720   11.6950  -35.8440 N.3   225  LYS225     -0.1314
     56  N        -18.1150   14.1760  -43.9380 N.3   227  LEU227     -0.1245
     57  CA       -19.2280   14.9920  -44.4200 C.3   227  LEU227      0.1561
     58  C        -19.4510   14.6580  -45.8980 C.2   227  LEU227      0.2260
     59  O        -18.9870   15.3800  -46.7840 O.2   227  LEU227     -0.2867
     60  CB       -18.9380   16.4980  -44.2710 C.3   227  LEU227      0.0270
     61  CG       -20.1030   17.4700  -44.6030 C.3   227  LEU227      0.0019
     62  CD1      -21.3620   17.1870  -43.7270 C.3   227  LEU227      0.0001
     63  CD2      -19.6670   18.9270  -44.4170 C.3   227  LEU227      0.0001
     64  N        -22.7320   13.4310  -48.3400 N.3   229  LEU229     -0.1245
     65  CA       -24.1880   13.2900  -48.1860 C.3   229  LEU229      0.1561
     66  C        -24.8100   12.3830  -49.2780 C.2   229  LEU229      0.2260
     67  O        -24.2160   12.1980  -50.3370 O.2   229  LEU229     -0.2867
     68  CB       -24.8550   14.6930  -48.1750 C.3   229  LEU229      0.0270
     69  CG       -24.7710   15.5010  -46.8550 C.3   229  LEU229      0.0019
     70  CD1      -25.5150   14.7510  -45.7530 C.3   229  LEU229      0.0001
     71  CD2      -23.3140   15.7580  -46.4240 C.3   229  LEU229      0.0001
     72  N        -19.4080   21.6770  -51.8210 N.3   237  ILE237     -0.1245
     73  CA       -20.3590   22.7400  -51.5660 C.3   237  ILE237      0.1561
     74  C        -20.9850   23.2470  -52.8850 C.2   237  ILE237      0.2260
     75  O        -22.1330   23.7370  -52.8980 O.2   237  ILE237     -0.2867
     76  CB       -19.6750   23.9410  -50.8640 C.3   237  ILE237      0.0252
     77  CG1      -19.2330   23.6040  -49.4140 C.3   237  ILE237      0.0019
     78  CG2      -20.5620   25.1710  -50.8920 C.3   237  ILE237      0.0019
     79  CD1      -20.3630   23.3500  -48.4070 C.3   237  ILE237      0.0001
     80  N        -30.0140   26.1950  -48.7300 N.3   259  MET259     -0.1245
     81  CA       -28.7840   25.7290  -48.1250 C.3   259  MET259      0.1570
     82  C        -28.5340   26.3850  -46.7500 C.2   259  MET259      0.2261
     83  O        -28.2210   25.7100  -45.7920 O.2   259  MET259     -0.2867
     84  CB       -27.6480   26.0240  -49.0750 C.3   259  MET259      0.0387
     85  CG       -26.3330   25.6830  -48.5530 C.3   259  MET259      0.0595
     86  SD       -25.9630   23.9730  -48.8610 S.3   259  MET259     -0.1393
     87  CE       -24.2130   24.2760  -49.1520 C.3   259  MET259      0.0692
     88  N        -31.4320   25.4860  -44.2530 N.3   262  MET262     -0.1230
     89  CA       -31.2630   24.1180  -43.8180 C.3   262  MET262      0.1702
     90  C        -30.0470   24.0260  -42.8660 C.2   262  MET262      0.2592
     91  O        -30.1080   23.3500  -41.8230 O.2   262  MET262     -0.2718
     92  CB       -31.0590   23.1950  -45.0450 C.3   262  MET262      0.0401
     93  CG       -31.0280   21.7210  -44.7140 C.3   262  MET262      0.0596
     94  SD       -30.5200   20.7460  -46.1690 S.3   262  MET262     -0.1393
     95  CE       -28.9790   21.4880  -46.7300 C.3   262  MET262      0.0692
     96  N        -28.9290   24.6260  -43.2630 N.am  263  VAL263     -0.1980
     97  CA       -27.7070   24.4990  -42.4680 C.3   263  VAL263      0.1595
     98  C        -27.8280   25.2180  -41.1070 C.2   263  VAL263      0.2287
     99  O        -27.4980   24.6370  -40.0610 O.2   263  VAL263     -0.2864
    100  CB       -26.4730   24.9730  -43.2220 C.3   263  VAL263      0.0276
    101  CG1      -25.2800   25.0520  -42.2480 C.3   263  VAL263      0.0022
    102  CG2      -26.1470   23.9710  -44.2890 C.3   263  VAL263      0.0022
    103  N        -30.2450   22.9180  -38.9540 N.3   266  ILE266     -0.1231
    104  CA       -29.6100   21.6630  -38.5720 C.3   266  ILE266      0.1692
    105  C        -28.7200   21.9060  -37.3580 C.2   266  ILE266      0.2592
    106  O        -28.8680   21.2380  -36.3540 O.2   266  ILE266     -0.2718
    107  CB       -28.7770   21.0880  -39.7170 C.3   266  ILE266      0.0266
    108  CG1      -29.6670   20.4000  -40.7590 C.3   266  ILE266      0.0019
    109  CG2      -27.7240   20.0920  -39.1700 C.3   266  ILE266      0.0020
    110  CD1      -28.8920   20.0740  -42.0920 C.3   266  ILE266      0.0001
    111  N        -27.8700   22.9330  -37.4120 N.am  267  HIS267     -0.1976
    112  CA       -26.8670   23.1530  -36.3550 C.3   267  HIS267      0.1656
    113  C        -27.5360   23.7810  -35.1060 C.2   267  HIS267      0.2291
    114  O        -27.0370   23.6270  -34.0030 O.2   267  HIS267     -0.2864
    115  CB       -25.6690   23.9810  -36.8620 C.3   267  HIS267      0.0771
    116  CG       -24.8420   23.2660  -37.8910 C.ar  267  HIS267      0.0820
    117  ND1      -25.2140   23.1980  -39.2200 N.ar  267  HIS267     -0.2267
    118  CD2      -23.7330   22.4930  -37.7760 C.ar  267  HIS267      0.1154
    119  CE1      -24.3440   22.4600  -39.8860 C.ar  267  HIS267      0.1986
    120  NE2      -23.4230   22.0370  -39.0440 N.ar  267  HIS267     -0.2212
    121  N        -33.5440   16.6510  -36.5400 N.3   283  PHE283     -0.1241
    122  CA       -32.3330   17.1520  -35.8690 C.3   283  PHE283      0.1605
    123  C        -32.5420   17.7710  -34.4540 C.2   283  PHE283      0.2264
    124  O        -31.5920   18.2690  -33.8290 O.2   283  PHE283     -0.2867
    125  CB       -31.5830   18.1060  -36.8040 C.3   283  PHE283      0.0534
    126  CG       -31.1660   17.4590  -38.1210 C.ar  283  PHE283     -0.0203
    127  CD1      -29.9060   16.8950  -38.2620 C.ar  283  PHE283     -0.0042
    128  CD2      -32.0610   17.3810  -39.1940 C.ar  283  PHE283     -0.0042
    129  CE1      -29.4980   16.3100  -39.4930 C.ar  283  PHE283     -0.0003
    130  CE2      -31.6910   16.8100  -40.3980 C.ar  283  PHE283     -0.0003
    131  CZ       -30.3800   16.2910  -40.5750 C.ar  283  PHE283     -0.0000
    132  N        -28.9930   17.5040  -32.2950 N.3   309  VAL309     -0.1231
    133  CA       -27.6770   17.9890  -32.6010 C.3   309  VAL309      0.1692
    134  C        -27.1100   18.7950  -31.4360 C.2   309  VAL309      0.2593
    135  O        -27.7830   19.6560  -30.8710 O.2   309  VAL309     -0.2718
    136  CB       -27.7110   18.8580  -33.8610 C.3   309  VAL309      0.0266
    137  CG1      -26.4080   19.7020  -34.0000 C.3   309  VAL309      0.0020
    138  CG2      -27.8890   17.9520  -35.0730 C.3   309  VAL309      0.0020
    139  N        -25.9090   18.4420  -31.0150 N.am  310  THR310     -0.1939
    140  CA       -25.2850   19.1480  -29.9090 C.3   310  THR310      0.2028
    141  C        -24.1130   19.8890  -30.5030 C.2   310  THR310      0.2642
    142  O        -23.0210   19.3250  -30.7580 O.2   310  THR310     -0.2714
    143  CB       -24.8060   18.1910  -28.8240 C.3   310  THR310      0.1808
    144  OG1      -23.8690   17.2910  -29.4090 O.3   310  THR310     -0.2208
    145  CG2      -25.9770   17.3260  -28.2310 C.3   310  THR310      0.0379
    146  N        -24.3100   21.1750  -30.6920 N.am  311  LEU311     -0.1963
    147  CA       -23.2990   21.9670  -31.3400 C.3   311  LEU311      0.1713
    148  C        -22.2930   22.4740  -30.3160 C.2   311  LEU311      0.2458
    149  O        -22.7070   22.9860  -29.2960 O.2   311  LEU311     -0.2730
    150  CB       -23.9550   23.1500  -32.0560 C.3   311  LEU311      0.0310
    151  CG       -23.0690   23.9220  -33.0540 C.3   311  LEU311      0.0022
    152  CD1      -23.0550   23.1130  -34.3000 C.3   311  LEU311      0.0001
    153  CD2      -23.7320   25.3040  -33.3540 C.3   311  LEU311      0.0001
    154  N        -20.9830   22.4550  -30.6480 N.am  312  PRO312     -0.2716
    155  CA       -20.0500   22.7740  -29.5850 C.3   312  PRO312      0.1536
    156  C        -19.7110   24.2640  -29.4870 C.2   312  PRO312      0.2598
    157  O        -18.8250   24.6380  -28.7190 O.2   312  PRO312     -0.2715
    158  CB       -18.8150   21.9550  -29.9460 C.3   312  PRO312      0.0310
    159  CG       -18.8650   21.8260  -31.4760 C.3   312  PRO312      0.0237
    160  CD       -20.3580   21.6510  -31.7220 C.3   312  PRO312      0.0939
    161  N        -20.3200   25.0850  -30.3270 N.am  313  VAL313     -0.1978
    162  CA       -20.3150   26.5400  -30.1160 C.3   313  VAL313      0.1596
    163  C        -21.7710   27.0040  -30.0290 C.2   313  VAL313      0.2287
    164  O        -22.7150   26.2060  -30.2590 O.2   313  VAL313     -0.2864
    165  CB       -19.6240   27.3180  -31.2850 C.3   313  VAL313      0.0276
    166  CG1      -18.1160   27.1030  -31.2680 C.3   313  VAL313      0.0022
    167  CG2      -20.2150   26.8940  -32.6640 C.3   313  VAL313      0.0022
    168  N        -17.7230   30.8430  -36.8760 N.3   320  SER320     -0.1202
    169  CA       -17.4690   29.4450  -36.9490 C.3   320  SER320      0.2020
    170  C        -17.6120   28.9890  -38.3790 C.2   320  SER320      0.2619
    171  O        -16.9860   27.9900  -38.7830 O.2   320  SER320     -0.2717
    172  CB       -18.5050   28.6730  -36.1160 C.3   320  SER320      0.2103
    173  OG       -18.2490   28.8260  -34.7430 O.3   320  SER320     -0.2182
    174  N        -18.5300   29.6270  -39.0970 N.am  321  CYS321     -0.1969
    175  CA       -18.9040   29.1990  -40.4630 C.3   321  CYS321      0.1712
    176  C        -18.7440   30.2800  -41.5420 C.2   321  CYS321      0.2296
    177  O        -18.7060   29.9500  -42.7390 O.2   321  CYS321     -0.2864
    178  CB       -20.3580   28.7290  -40.4800 C.3   321  CYS321      0.0983
    179  SG       -20.6050   27.2180  -39.5790 S.3   321  CYS321     -0.0798
    180  N        -10.6330   24.2350  -32.4480 N.3   612  ASN612     -0.1225
    181  CA       -11.2480   24.0490  -33.7680 C.3   612  ASN612      0.1785
    182  C        -12.7830   23.9380  -33.6370 C.2   612  ASN612      0.2597
    183  O        -13.4890   24.5970  -34.3670 O.2   612  ASN612     -0.2718
    184  CB       -10.7430   22.7860  -34.4810 C.3   612  ASN612      0.1169
    185  CG        -9.3700   22.9630  -35.0860 C.2   612  ASN612      0.2627
    186  OD1       -8.9660   24.0650  -35.4580 O.2   612  ASN612     -0.2716
    187  ND2       -8.6210   21.8810  -35.1100 N.am  612  ASN612     -0.0877
    188  N        -13.2740   23.0700  -32.7490 N.am  613  CYS613     -0.1970
    189  CA       -14.7290   22.8550  -32.5870 C.3   613  CYS613      0.1712
    190  C        -15.3880   23.7620  -31.5530 C.2   613  CYS613      0.2296
    191  O        -16.5140   24.2330  -31.7820 O.2   613  CYS613     -0.2864
    192  CB       -14.9990   21.4290  -32.1640 C.3   613  CYS613      0.0983
    193  SG       -14.5130   20.2090  -33.4390 S.3   613  CYS613     -0.0798
    194  N        -23.2390   14.6480  -30.4120 N.3   700  THR700     -0.1218
    195  CA       -23.1670   14.2950  -31.8420 C.3   700  THR700      0.1862
    196  C        -21.8350   14.7650  -32.3670 C.2   700  THR700      0.2287
    197  O        -21.6780   15.9330  -32.7000 O.2   700  THR700     -0.2866
    198  CB       -24.3130   14.9950  -32.6400 C.3   700  THR700      0.1770
    199  OG1      -24.2560   16.4160  -32.4050 O.3   700  THR700     -0.2211
    200  CG2      -25.6260   14.4910  -32.1320 C.3   700  THR700      0.0375
    201  N        -18.8560   15.5440  -34.6570 N.3   702  PRO702     -0.2116
    202  CA       -18.7930   15.6500  -36.1320 C.3   702  PRO702      0.1372
    203  C        -17.5370   15.0840  -36.7910 C.2   702  PRO702      0.2244
    204  O        -17.3360   15.2640  -38.0180 O.2   702  PRO702     -0.2868
    205  CB       -18.8310   17.1610  -36.3930 C.3   702  PRO702      0.0268
    206  CG       -18.2980   17.8140  -35.0880 C.3   702  PRO702      0.0207
    207  CD       -18.5450   16.8200  -33.9730 C.3   702  PRO702      0.0892
@<TRIPOS>BOND
     1    75    74    2
     2    74    73    1
     3    72    73    1
     4    73    76    1
     5    78    76    1
     6    76    77    1
     7    67    66    2
     8     4     3    2
     9    77    79    1
    10    66    65    1
    11    87    86    1
    12    84    85    1
    13    84    81    1
    14    86    85    1
    15    80    81    1
    16     1     2    1
    17     3     2    1
    18    64    65    1
    19    65    68    1
    20    68    69    1
    21    81    82    1
    22     2     5    1
    23     7     5    1
    24    69    71    1
    25    69    70    1
    26     5     6    1
    27    59    58    2
    28    82    83    2
    29    95    94    1
    30    94    93    1
    31    58    57    1
    32    14    13    2
    33    92    93    1
    34    92    89    1
    35    61    63    1
    36    61    60    1
    37    61    62    1
    38    57    60    1
    39    57    56    1
    40   102   100    1
    41    88    89    1
    42    21    20    1
    43    13    12    1
    44    13    15   am
    45    89    90    1
    46    12     9    1
    47     8     9    1
    48    20    17    1
    49    96    90   am
    50    96    97    1
    51   100    97    1
    52   100   101    1
    53    90    91    2
    54     9    10    1
    55   177   176    2
    56    16    10   am
    57    16    17    1
    58    97    98    1
    59    10    11    2
    60    17    18    1
    61   110   108    1
    62   176   175    1
    63    18    19    2
    64    41    42    1
    65    41    38    1
    66    98    99    2
    67    49    50    2
    68    49    48    1
    69    40    39    2
    70    42    44   ar
    71    42    43   ar
    72   108   107    1
    73   131   130   ar
    74   131   129   ar
    75    44    46   ar
    76   178   175    1
    77   178   179    1
    78   175   174    1
    79    39    38    1
    80    43    45   ar
    81   130   128   ar
    82    47    48    1
    83    46    45   ar
    84    48    51    1
    85    38    37    1
    86   119   117   ar
    87   119   120   ar
    88   107   109    1
    89   107   104    1
    90    22    23    1
    91    30    29    1
    92   129   127   ar
    93   117   116   ar
    94   128   126   ar
    95    37    33   am
    96   174   170   am
    97   120   118   ar
    98   103   104    1
    99   171   170    2
   100   104   105    1
   101    51    52    1
   102   170   169    1
   103    53    52    1
   104    53    54    1
   105   127   126   ar
   106    23    26    1
   107    23    24    1
   108    29    28    1
   109   126   125    1
   110   204   203    2
   111    33    34    2
   112    33    32    1
   113   116   118   ar
   114   116   115    1
   115    31    24   am
   116    31    32    1
   117    26    27    1
   118    27    28    1
   119   111   105   am
   120   111   112    1
   121    24    25    2
   122   105   106    2
   123    32    35    1
   124    54    55    1
   125   169   168    1
   126   169   172    1
   127   115   112    1
   128   125   122    1
   129   203   202    1
   130    35    36    1
   131   121   122    1
   132   205   202    1
   133   205   206    1
   134   112   113    1
   135   202   201    1
   136   172   173    1
   137   122   123    1
   138   186   185    2
   139   187   185   am
   140   113   114    2
   141   206   207    1
   142   185   184    1
   143   138   136    1
   144   201   207    1
   145   184   181    1
   146   123   124    2
   147   183   182    2
   148   152   151    1
   149   137   136    1
   150   136   133    1
   151   181   182    1
   152   181   180    1
   153   182   188   am
   154   193   192    1
   155   153   151    1
   156   151   150    1
   157   188   189    1
   158   197   196    2
   159   167   165    1
   160   198   199    1
   161   198   200    1
   162   198   195    1
   163   133   132    1
   164   133   134    1
   165   189   192    1
   166   189   190    1
   167   196   195    1
   168   150   147    1
   169   195   194    1
   170   191   190    2
   171   160   159    1
   172   160   154    1
   173   159   158    1
   174   134   139   am
   175   134   135    2
   176   147   146    1
   177   147   148    1
   178   165   166    1
   179   165   162    1
   180   139   140    1
   181   142   141    2
   182   146   141   am
   183   154   148   am
   184   154   155    1
   185   141   140    1
   186   161   162    1
   187   161   156   am
   188   148   149    2
   189   164   163    2
   190   162   163    1
   191   158   155    1
   192   140   143    1
   193   155   156    1
   194   156   157    2
   195   144   143    1
   196   143   145    1
