@<TRIPOS>MOLECULE
tmp/3ufhA00.pdb
 160 153 0 0 0
SMALL
GASTEIGER

@<TRIPOS>ATOM
      1  N        -13.2710    2.5130  -41.0060 N.3   221  SER221     -0.1202
      2  CA       -13.5340    2.0900  -39.6180 C.3   221  SER221      0.2020
      3  C        -15.0090    2.1690  -39.2930 C.2   221  SER221      0.2619
      4  O        -15.7530    2.8410  -39.9750 O.2   221  SER221     -0.2717
      5  CB       -12.7260    2.9390  -38.6160 C.3   221  SER221      0.2103
      6  OG       -13.1010    4.3270  -38.6330 O.3   221  SER221     -0.2182
      7  N        -15.4130    1.5260  -38.2020 N.am  222  SER222     -0.1937
      8  CA       -16.8220    1.4520  -37.8190 C.3   222  SER222      0.2055
      9  C        -17.3870    2.7880  -37.3620 C.2   222  SER222      0.2643
     10  O        -18.6030    2.9500  -37.2980 O.2   222  SER222     -0.2714
     11  CB       -16.9800    0.4800  -36.6800 C.3   222  SER222      0.2130
     12  OG       -15.8850    0.6350  -35.7750 O.3   222  SER222     -0.2179
     13  N        -16.5080    3.7250  -36.9960 N.am  223  THR223     -0.1950
     14  CA       -16.9520    5.0020  -36.4550 C.3   223  THR223      0.1897
     15  C        -16.7430    6.1740  -37.4370 C.2   223  THR223      0.2313
     16  O        -16.7630    7.3350  -37.0360 O.2   223  THR223     -0.2863
     17  CB       -16.1920    5.3090  -35.1320 C.3   223  THR223      0.1794
     18  OG1      -14.7790    5.2090  -35.3640 O.3   223  THR223     -0.2208
     19  CG2      -16.5810    4.3310  -34.0330 C.3   223  THR223      0.0378
     20  N        -12.8230   11.3180  -23.4000 N.3   682  HIS682     -0.1241
     21  CA       -12.9040   10.2470  -24.3960 C.3   682  HIS682      0.1621
     22  C        -14.3720    9.7710  -24.4130 C.2   682  HIS682      0.2264
     23  O        -14.9190    9.5730  -25.4590 O.2   682  HIS682     -0.2867
     24  CB       -11.9430    9.0760  -24.0740 C.3   682  HIS682      0.0745
     25  CG       -10.4820    9.3460  -24.3990 C.ar  682  HIS682      0.0817
     26  ND1       -9.4510    8.6140  -23.8380 N.ar  682  HIS682     -0.2268
     27  CD2       -9.8900   10.2050  -25.2680 C.ar  682  HIS682      0.1154
     28  CE1       -8.2890    9.0460  -24.3160 C.ar  682  HIS682      0.1986
     29  NE2       -8.5230   10.0170  -25.1820 N.ar  682  HIS682     -0.2212
     30  N        -16.9070   10.0900  -27.6850 N.3   686  ALA686     -0.1245
     31  CA       -17.0840    8.8060  -28.4080 C.3   686  ALA686      0.1562
     32  C        -18.4560    8.1800  -28.1560 C.2   686  ALA686      0.2260
     33  O        -18.7460    7.0770  -28.6640 O.2   686  ALA686     -0.2867
     34  CB       -15.9820    7.8380  -28.0290 C.3   686  ALA686      0.0290
     35  N        -14.3650    9.7470  -33.6490 N.3   705  PRO705     -0.2102
     36  CA       -13.6530    9.8070  -32.3880 C.3   705  PRO705      0.1504
     37  C        -12.3730    8.9680  -32.3640 C.2   705  PRO705      0.2575
     38  O        -11.4950    9.2110  -31.5000 O.2   705  PRO705     -0.2718
     39  CB       -14.6590    9.2520  -31.3920 C.3   705  PRO705      0.0282
     40  CG       -15.6240    8.4780  -32.1890 C.3   705  PRO705      0.0208
     41  CD       -15.7180    9.1830  -33.4950 C.3   705  PRO705      0.0893
     42  N        -12.2740    7.9730  -33.2590 N.am  706  ALA706     -0.1980
     43  CA       -11.0800    7.1210  -33.3190 C.3   706  ALA706      0.1597
     44  C        -10.0250    7.8070  -34.1490 C.2   706  ALA706      0.2287
     45  O         -8.9040    7.3150  -34.2600 O.2   706  ALA706     -0.2864
     46  CB       -11.3900    5.7180  -33.8900 C.3   706  ALA706      0.0319
     47  N         -7.6330   10.0480  -33.5430 N.3   708  CYS708     -0.1235
     48  CA        -6.9490   10.5600  -32.3980 C.3   708  CYS708      0.1677
     49  C         -6.4530   11.9540  -32.6980 C.2   708  CYS708      0.2270
     50  O         -6.2890   12.7400  -31.7860 O.2   708  CYS708     -0.2867
     51  CB        -5.7410    9.6490  -32.1050 C.3   708  CYS708      0.0956
     52  SG        -6.2040    7.9410  -31.9200 S.3   708  CYS708     -0.0801
     53  N          1.3530   10.9120  -28.0430 N.3   717  LEU717     -0.1245
     54  CA         0.9450    9.5950  -27.5590 C.3   717  LEU717      0.1561
     55  C          2.0780    8.5250  -27.6190 C.2   717  LEU717      0.2260
     56  O          1.8380    7.3520  -27.9130 O.2   717  LEU717     -0.2867
     57  CB        -0.3200    9.1410  -28.3000 C.3   717  LEU717      0.0270
     58  CG        -1.5920   10.0260  -28.1250 C.3   717  LEU717      0.0019
     59  CD1       -2.8150    9.3940  -28.8230 C.3   717  LEU717      0.0001
     60  CD2       -1.8780   10.1740  -26.6260 C.3   717  LEU717      0.0001
     61  N          3.0860    7.2330  -24.9650 N.3   719  LEU719     -0.1245
     62  CA         2.7300    6.4220  -23.7730 C.3   719  LEU719      0.1561
     63  C          3.8810    6.0390  -22.8380 C.2   719  LEU719      0.2260
     64  O          3.7070    5.2050  -21.9420 O.2   719  LEU719     -0.2867
     65  CB         1.9170    5.1570  -24.1280 C.3   719  LEU719      0.0270
     66  CG         0.8960    5.1180  -25.2760 C.3   719  LEU719      0.0019
     67  CD1        0.4560    3.6540  -25.4890 C.3   719  LEU719      0.0001
     68  CD2       -0.3190    6.0020  -24.9540 C.3   719  LEU719      0.0001
     69  N         -2.8460    3.6060  -18.3200 N.3   738  THR738     -0.1218
     70  CA        -3.0370    3.3130  -19.7660 C.3   738  THR738      0.1862
     71  C         -4.3480    2.5630  -19.9580 C.2   738  THR738      0.2287
     72  O         -5.0930    2.8230  -20.8710 O.2   738  THR738     -0.2866
     73  CB        -1.8320    2.5000  -20.3550 C.3   738  THR738      0.1770
     74  OG1       -0.5960    3.1700  -20.0160 O.3   738  THR738     -0.2211
     75  CG2       -1.9390    2.4320  -21.8560 C.3   738  THR738      0.0375
     76  N         -7.1060    5.1200  -19.8750 N.3   741  ALA741     -0.1231
     77  CA        -7.1130    5.8050  -21.1560 C.3   741  ALA741      0.1694
     78  C         -7.7860    4.9930  -22.2660 C.2   741  ALA741      0.2592
     79  O         -8.6630    5.5130  -22.9560 O.2   741  ALA741     -0.2718
     80  CB        -5.7180    6.2190  -21.5510 C.3   741  ALA741      0.0304
     81  N         -7.4030    3.7290  -22.4540 N.am  742  CYS742     -0.1970
     82  CA        -7.9100    2.9540  -23.6060 C.3   742  CYS742      0.1712
     83  C         -9.2880    2.4050  -23.3100 C.2   742  CYS742      0.2296
     84  O        -10.1630    2.4120  -24.1570 O.2   742  CYS742     -0.2864
     85  CB        -6.9720    1.7670  -23.9160 C.3   742  CYS742      0.0983
     86  SG        -5.2340    2.2330  -24.0760 S.3   742  CYS742     -0.0798
     87  N        -11.6300    3.6230  -21.6950 N.3   744  SER744     -0.1202
     88  CA       -12.7020    4.6580  -21.7590 C.3   744  SER744      0.2020
     89  C        -13.5460    4.5460  -23.0460 C.2   744  SER744      0.2619
     90  O        -14.7730    4.7830  -23.0110 O.2   744  SER744     -0.2717
     91  CB       -12.1130    6.0800  -21.5950 C.3   744  SER744      0.2103
     92  OG       -11.1800    6.3750  -22.6280 O.3   744  SER744     -0.2182
     93  N        -12.9150    4.1530  -24.1670 N.am  745  CYS745     -0.1955
     94  CA       -13.6700    3.6320  -25.3410 C.3   745  CYS745      0.1843
     95  C        -13.8600    2.1020  -25.4280 C.2   745  CYS745      0.2625
     96  O        -14.9080    1.6470  -25.8840 O.2   745  CYS745     -0.2714
     97  CB       -13.0450    4.0910  -26.6400 C.3   745  CYS745      0.0997
     98  SG       -12.9630    5.8480  -26.7810 S.3   745  CYS745     -0.0797
     99  N        -12.8520    1.3210  -25.0140 N.am  746  HIS746     -0.1973
    100  CA       -12.7090   -0.0490  -25.4880 C.3   746  HIS746      0.1656
    101  C        -13.3870   -1.0150  -24.4880 C.2   746  HIS746      0.2291
    102  O        -13.7210   -2.1260  -24.8460 O.2   746  HIS746     -0.2864
    103  CB       -11.2080   -0.3970  -25.6980 C.3   746  HIS746      0.0771
    104  CG       -10.6520   -0.0150  -27.0440 C.ar  746  HIS746      0.0820
    105  ND1      -10.8210   -0.8030  -28.1710 N.ar  746  HIS746     -0.2267
    106  CD2       -9.8720    1.0280  -27.4350 C.ar  746  HIS746      0.1154
    107  CE1      -10.2060   -0.2330  -29.2040 C.ar  746  HIS746      0.1986
    108  NE2       -9.6430    0.8930  -28.7950 N.ar  746  HIS746     -0.2212
    109  N          2.0670   -0.3380  -28.1390 N.3   784  HIS784     -0.1241
    110  CA         0.9420    0.5500  -28.5330 C.3   784  HIS784      0.1621
    111  C          1.3690    2.0300  -28.6060 C.2   784  HIS784      0.2264
    112  O          0.6910    2.8610  -29.2220 O.2   784  HIS784     -0.2867
    113  CB        -0.2810    0.3600  -27.6140 C.3   784  HIS784      0.0745
    114  CG        -0.9290   -0.9940  -27.6980 C.ar  784  HIS784      0.0817
    115  ND1       -1.4910   -1.4690  -28.8660 N.ar  784  HIS784     -0.2268
    116  CD2       -1.2780   -1.8840  -26.7300 C.ar  784  HIS784      0.1154
    117  CE1       -2.0940   -2.6310  -28.6320 C.ar  784  HIS784      0.1986
    118  NE2       -1.9400   -2.9300  -27.3500 N.ar  784  HIS784     -0.2212
    119  N          1.9280   -2.2140  -32.7560 N.3   790  PHE790     -0.1241
    120  CA         0.4940   -1.9190  -32.7890 C.3   790  PHE790      0.1605
    121  C          0.2250   -0.5010  -32.2810 C.2   790  PHE790      0.2264
    122  O         -0.6250   -0.2800  -31.4000 O.2   790  PHE790     -0.2867
    123  CB        -0.2900   -2.9780  -32.0130 C.3   790  PHE790      0.0534
    124  CG        -0.3240   -4.3190  -32.7050 C.ar  790  PHE790     -0.0203
    125  CD1       -1.4840   -4.7640  -33.3300 C.ar  790  PHE790     -0.0042
    126  CD2        0.8290   -5.1020  -32.7900 C.ar  790  PHE790     -0.0042
    127  CE1       -1.5010   -5.9770  -34.0280 C.ar  790  PHE790     -0.0003
    128  CE2        0.8180   -6.3230  -33.4730 C.ar  790  PHE790     -0.0003
    129  CZ        -0.3490   -6.7570  -34.0890 C.ar  790  PHE790     -0.0000
    130  N         -0.7970    3.2350  -31.5190 N.3   792  VAL792     -0.1245
    131  CA        -2.0970    3.9260  -31.5760 C.3   792  VAL792      0.1561
    132  C         -2.2970    4.7040  -32.8760 C.2   792  VAL792      0.2260
    133  O         -3.4240    4.8170  -33.3360 O.2   792  VAL792     -0.2867
    134  CB        -2.3810    4.8210  -30.3390 C.3   792  VAL792      0.0252
    135  CG1       -2.5560    3.9650  -29.1240 C.3   792  VAL792      0.0019
    136  CG2       -1.2420    5.7890  -30.1080 C.3   792  VAL792      0.0019
    137  N         -3.1600    1.7840  -35.8510 N.3   795  VAL795     -0.1231
    138  CA        -4.3260    0.9310  -35.5940 C.3   795  VAL795      0.1692
    139  C         -5.6870    1.6680  -35.5980 C.2   795  VAL795      0.2592
    140  O         -6.7470    1.0440  -35.6450 O.2   795  VAL795     -0.2718
    141  CB        -4.1180    0.2720  -34.2510 C.3   795  VAL795      0.0266
    142  CG1       -5.3890   -0.3250  -33.7150 C.3   795  VAL795      0.0020
    143  CG2       -2.9650   -0.7770  -34.3420 C.3   795  VAL795      0.0020
    144  N         -5.6500    2.9980  -35.5560 N.am  796  HIS796     -0.1962
    145  CA        -6.8510    3.8350  -35.5140 C.3   796  HIS796      0.1772
    146  C         -6.8540    4.6270  -36.8130 C.2   796  HIS796      0.2462
    147  O         -5.7980    4.8480  -37.3890 O.2   796  HIS796     -0.2730
    148  CB        -6.7980    4.7900  -34.2860 C.3   796  HIS796      0.0785
    149  CG        -6.9950    4.0910  -32.9620 C.ar  796  HIS796      0.0821
    150  ND1       -5.9880    3.9870  -32.0240 N.ar  796  HIS796     -0.2267
    151  CD2       -8.0780    3.4660  -32.4200 C.ar  796  HIS796      0.1154
    152  CE1       -6.4390    3.3150  -30.9670 C.ar  796  HIS796      0.1986
    153  NE2       -7.7110    2.9990  -31.1730 N.ar  796  HIS796     -0.2212
    154  N         -8.0290    5.0690  -37.2850 N.am  797  PRO797     -0.2727
    155  CA        -8.0400    5.9100  -38.4770 C.3   797  PRO797      0.1402
    156  C         -7.6340    7.3780  -38.2650 C.2   797  PRO797      0.2269
    157  O         -8.3990    8.2830  -38.5680 O.2   797  PRO797     -0.2865
    158  CB        -9.4760    5.7800  -38.9510 C.3   797  PRO797      0.0296
    159  CG       -10.2170    5.7080  -37.7030 C.3   797  PRO797      0.0237
    160  CD        -9.3960    4.7770  -36.8430 C.3   797  PRO797      0.0939
@<TRIPOS>BOND
     1     1     2    1
     2     4     3    2
     3     2     3    1
     4     2     5    1
     5     3     7   am
     6   158   155    1
     7   158   159    1
     8     6     5    1
     9   157   156    2
    10   155   156    1
    11   155   154    1
    12     7     8    1
    13     8     9    1
    14     8    11    1
    15   159   160    1
    16    15    16    2
    17    15    14    1
    18   147   146    2
    19     9    10    2
    20     9    13   am
    21   154   160    1
    22   154   146   am
    23    13    14    1
    24   146   145    1
    25    11    12    1
    26    14    17    1
    27   137   138    1
    28   140   139    2
    29   139   138    1
    30   139   144   am
    31   138   141    1
    32   144   145    1
    33   145   148    1
    34    18    17    1
    35    17    19    1
    36   143   141    1
    37   148   149    1
    38    45    44    2
    39   141   142    1
    40    44    43    1
    41   129   127   ar
    42   129   128   ar
    43   127   125   ar
    44    46    43    1
    45    35    41    1
    46    35    36    1
    47    47    48    1
    48    41    40    1
    49   128   126   ar
    50   133   132    2
    51   125   124   ar
    52    43    42    1
    53    42    37   am
    54   149   151   ar
    55   149   150   ar
    56   132   131    1
    57   126   124   ar
    58   120   119    1
    59   120   121    1
    60   120   123    1
    61   124   123    1
    62    49    48    1
    63    49    50    2
    64   151   153   ar
    65    48    51    1
    66    36    37    1
    67    36    39    1
    68    37    38    2
    69   121   122    2
    70    40    39    1
    71    51    52    1
    72   150   152   ar
    73   131   130    1
    74   131   134    1
    75   153   152   ar
    76   134   136    1
    77   134   135    1
    78   112   111    2
    79   107   108   ar
    80   107   105   ar
    81   115   117   ar
    82   115   114   ar
    83    59    58    1
    84   108   106   ar
    85    33    32    2
    86   117   118   ar
    87   111   110    1
    88   110   109    1
    89   110   113    1
    90    31    32    1
    91    31    34    1
    92    31    30    1
    93    57    58    1
    94    57    54    1
    95   105   104   ar
    96    58    60    1
    97    53    54    1
    98    56    55    2
    99   114   113    1
   100   114   116   ar
   101    55    54    1
   102   106   104   ar
   103   118   116   ar
   104   104   103    1
   105    98    97    1
   106    97    94    1
   107    96    95    2
   108   103   100    1
   109    67    66    1
   110   100    99    1
   111   100   101    1
   112    23    22    2
   113    95    94    1
   114    95    99   am
   115    94    93    1
   116    66    68    1
   117    66    65    1
   118    27    29   ar
   119    27    25   ar
   120    29    28   ar
   121    61    62    1
   122   102   101    2
   123    22    21    1
   124    25    24    1
   125    25    26   ar
   126    21    24    1
   127    21    20    1
   128    28    26   ar
   129    93    89   am
   130    84    83    2
   131    65    62    1
   132    86    85    1
   133    85    82    1
   134    62    63    1
   135    82    83    1
   136    82    81    1
   137    89    90    2
   138    89    88    1
   139    79    78    2
   140    63    64    2
   141    92    91    1
   142    81    78   am
   143    78    77    1
   144    75    73    1
   145    88    87    1
   146    88    91    1
   147    80    77    1
   148    77    76    1
   149    72    71    2
   150    73    74    1
   151    73    70    1
   152    71    70    1
   153    70    69    1
