@<TRIPOS>MOLECULE
tmp/3uflA00.pdb
 221 214 0 0 0
SMALL
GASTEIGER

@<TRIPOS>ATOM
      1  N         40.2140   40.5140    7.3750 N.3    34  LEU34      -0.1245
      2  CA        38.7790   40.7280    7.5740 C.3    34  LEU34       0.1561
      3  C         38.1230   39.6180    8.3980 C.2    34  LEU34       0.2260
      4  O         38.2260   38.4480    8.0620 O.2    34  LEU34      -0.2867
      5  CB        38.0580   40.8660    6.2200 C.3    34  LEU34       0.0270
      6  CG        36.5410   41.1110    6.2370 C.3    34  LEU34       0.0019
      7  CD1       36.1990   42.5530    6.6470 C.3    34  LEU34       0.0001
      8  CD2       35.9450   40.8040    4.8730 C.3    34  LEU34       0.0001
      9  N         35.0490   37.6680    9.1810 N.3    36  ASP36      -0.1239
     10  CA        33.8460   37.3650    8.3980 C.3    36  ASP36       0.1674
     11  C         33.1130   36.1080    8.8790 C.2    36  ASP36       0.2266
     12  O         33.4870   34.9810    8.5290 O.2    36  ASP36      -0.2867
     13  CB        34.2050   37.2370    6.9100 C.3    36  ASP36       0.1410
     14  CG        32.9890   37.0480    6.0320 C.2    36  ASP36       0.3668
     15  OD1       33.1550   36.6110    4.8860 O.co2  36  ASP36      -0.2456
     16  OD2       31.8620   37.3010    6.4970 O.co2  36  ASP36      -0.2456
     17  N         30.3660   35.2500    7.8450 N.3    38  GLY38      -0.1210
     18  CA        29.5320   34.8310    6.7170 C.3    38  GLY38       0.1956
     19  C         30.2330   33.9900    5.6590 C.2    38  GLY38       0.2613
     20  O         29.6620   33.7410    4.6000 O.2    38  GLY38      -0.2717
     21  N         31.4750   33.5840    5.9320 N.am   39  SER39      -0.1938
     22  CA        32.2310   32.6710    5.0650 C.3    39  SER39       0.2055
     23  C         33.1540   31.7880    5.9110 C.2    39  SER39       0.2644
     24  O         33.2380   31.9660    7.1230 O.2    39  SER39      -0.2714
     25  CB        33.0240   33.4310    3.9830 C.3    39  SER39       0.2130
     26  OG        34.0650   34.2160    4.5470 O.3    39  SER39      -0.2179
     27  N         33.8420   30.8390    5.2680 N.am   40  SER40      -0.1935
     28  CA        34.5230   29.7610    5.9840 C.3    40  SER40       0.2055
     29  C         35.9630   29.4680    5.5540 C.2    40  SER40       0.2643
     30  O         36.5510   28.4910    6.0120 O.2    40  SER40      -0.2714
     31  CB        33.6900   28.4850    5.8850 C.3    40  SER40       0.2130
     32  OG        32.4240   28.7040    6.4760 O.3    40  SER40      -0.2179
     33  N         36.5170   30.2990    4.6740 N.am   41  ASN41      -0.1971
     34  CA        37.9040   30.1590    4.2300 C.3    41  ASN41       0.1688
     35  C         38.8100   31.1920    4.8770 C.2    41  ASN41       0.2292
     36  O         38.4030   32.3360    5.0680 O.2    41  ASN41      -0.2864
     37  CB        38.0040   30.3070    2.7090 C.3    41  ASN41       0.1181
     38  CG        37.5440   29.0760    1.9720 C.2    41  ASN41       0.2629
     39  OD1       36.3440   28.8680    1.7640 O.2    41  ASN41      -0.2716
     40  ND2       38.4970   28.2550    1.5590 N.am   41  ASN41      -0.0877
     41  N         36.8580   31.2280   -5.1470 N.3    73  VAL73      -0.1231
     42  CA        35.6630   31.6530   -4.4250 C.3    73  VAL73       0.1678
     43  C         34.8340   32.6070   -5.2850 C.2    73  VAL73       0.2434
     44  O         35.3000   33.6860   -5.6480 O.2    73  VAL73      -0.2733
     45  CB        35.9900   32.2420   -3.0280 C.3    73  VAL73       0.0265
     46  CG1       34.7420   32.8140   -2.3770 C.3    73  VAL73       0.0020
     47  CG2       36.5800   31.1650   -2.1430 C.3    73  VAL73       0.0020
     48  N         33.6080   32.1870   -5.6420 N.am   74  PRO74      -0.2718
     49  CA        32.7700   32.9820   -6.5290 C.3    74  PRO74       0.1535
     50  C         31.8870   33.9570   -5.7730 C.2    74  PRO74       0.2598
     51  O         31.6260   33.7620   -4.5760 O.2    74  PRO74      -0.2715
     52  CB        31.9080   31.9280   -7.2240 C.3    74  PRO74       0.0310
     53  CG        31.8180   30.7940   -6.2400 C.3    74  PRO74       0.0237
     54  CD        32.9480   30.9280   -5.2450 C.3    74  PRO74       0.0939
     55  N         31.4480   35.0060   -6.4710 N.am   75  TYR75      -0.1974
     56  CA        30.4540   35.9330   -5.9310 C.3    75  TYR75       0.1639
     57  C         29.5400   36.5540   -6.9920 C.2    75  TYR75       0.2290
     58  O         29.5730   36.1640   -8.1590 O.2    75  TYR75      -0.2864
     59  CB        31.1040   37.0200   -5.0650 C.3    75  TYR75       0.0560
     60  CG        30.1150   37.6410   -4.1090 C.ar   75  TYR75      -0.0198
     61  CD1       29.4220   36.8460   -3.2000 C.ar   75  TYR75      -0.0009
     62  CD2       29.8520   39.0190   -4.1240 C.ar   75  TYR75      -0.0009
     63  CE1       28.5000   37.3920   -2.3280 C.ar   75  TYR75       0.0417
     64  CE2       28.9230   39.5740   -3.2540 C.ar   75  TYR75       0.0417
     65  CZ        28.2530   38.7490   -2.3570 C.ar   75  TYR75       0.1957
     66  OH        27.3310   39.2580   -1.4720 O.3    75  TYR75      -0.2866
     67  N         29.1720   39.3860   -9.0630 N.3    77  GLN77      -0.1231
     68  CA        29.9150   40.3860   -8.2790 C.3    77  GLN77       0.1698
     69  C         31.3150   40.0420   -7.7800 C.2    77  GLN77       0.2593
     70  O         31.6250   40.1380   -6.5890 O.2    77  GLN77      -0.2718
     71  CB        29.0560   41.2080   -7.3100 C.3    77  GLN77       0.0381
     72  CG        28.3180   42.3330   -8.0480 C.3    77  GLN77       0.0905
     73  CD        27.2660   43.0310   -7.2050 C.2    77  GLN77       0.2608
     74  OE1       27.2680   42.9350   -5.9720 O.2    77  GLN77      -0.2717
     75  NE2       26.3550   43.7440   -7.8690 N.am   77  GLN77      -0.0878
     76  N         32.1470   39.6440   -8.7430 N.am   78  GLY78      -0.1942
     77  CA        33.5680   39.3900   -8.5320 C.3    78  GLY78       0.2014
     78  C         33.9060   37.9480   -8.1930 C.2    78  GLY78       0.2639
     79  O         33.0540   37.0590   -8.3090 O.2    78  GLY78      -0.2714
     80  N         35.1620   37.7320   -7.7870 N.am   79  LYS79      -0.1963
     81  CA        35.6800   36.4280   -7.3380 C.3    79  LYS79       0.1728
     82  C         37.1760   36.5160   -6.9640 C.2    79  LYS79       0.2616
     83  O         37.8360   37.5070   -7.2680 O.2    79  LYS79      -0.2715
     84  CB        35.4670   35.3750   -8.4110 C.3    79  LYS79       0.0311
     85  CG        35.6980   35.8640   -9.8500 C.3    79  LYS79       0.0038
     86  CD        37.1900   35.8930  -10.2630 C.3    79  LYS79       0.0206
     87  CE        37.4700   36.8580  -11.4420 C.3    79  LYS79       0.1093
     88  NZ        36.7660   36.5540  -12.7480 N.3    79  LYS79      -0.1314
     89  N         37.7000   35.4950   -6.2870 N.am   80  TRP80      -0.1974
     90  CA        39.1570   35.3520   -6.1610 C.3    80  TRP80       0.1640
     91  C         39.6450   33.9230   -6.4360 C.2    80  TRP80       0.2290
     92  O         38.9010   32.9450   -6.2710 O.2    80  TRP80      -0.2864
     93  CB        39.7090   35.9380   -4.8400 C.3    80  TRP80       0.0576
     94  CG        39.2680   35.2600   -3.5460 C.ar   80  TRP80       0.0006
     95  CD1       38.3940   35.7620   -2.6070 C.ar   80  TRP80       0.0946
     96  CD2       39.7030   33.9860   -3.0440 C.ar   80  TRP80       0.0152
     97  NE1       38.2540   34.8730   -1.5620 N.ar   80  TRP80      -0.2442
     98  CE2       39.0450   33.7780   -1.8010 C.ar   80  TRP80       0.0810
     99  CE3       40.5820   33.0000   -3.5190 C.ar   80  TRP80       0.0012
    100  CZ2       39.2350   32.6190   -1.0380 C.ar   80  TRP80       0.0191
    101  CZ3       40.7680   31.8470   -2.7610 C.ar   80  TRP80       0.0001
    102  CH2       40.0990   31.6690   -1.5300 C.ar   80  TRP80       0.0015
    103  N         38.9530   39.6210   -8.5350 N.3   110  ASP110     -0.1225
    104  CA        38.1010   40.5770   -9.2060 C.3   110  ASP110      0.1805
    105  C         37.1160   41.1410   -8.1860 C.2   110  ASP110      0.2598
    106  O         36.2750   40.4110   -7.6600 O.2   110  ASP110     -0.2718
    107  CB        37.3690   39.8790  -10.3580 C.3   110  ASP110      0.1424
    108  CG        36.4560   40.8110  -11.1310 C.2   110  ASP110      0.3668
    109  OD1       36.9150   41.8990  -11.5550 O.co2 110  ASP110     -0.2456
    110  OD2       35.2790   40.4430  -11.3230 O.co2 110  ASP110     -0.2456
    111  N         37.2570   42.4300   -7.8870 N.am  111  LYS111     -0.1966
    112  CA        36.3250   43.1630   -7.0220 C.3   111  LYS111      0.1728
    113  C         36.2300   42.5990   -5.5980 C.2   111  LYS111      0.2616
    114  O         35.1950   42.7240   -4.9340 O.2   111  LYS111     -0.2715
    115  CB        34.9320   43.2640   -7.6730 C.3   111  LYS111      0.0311
    116  CG        34.9300   43.9330   -9.0470 C.3   111  LYS111      0.0038
    117  CD        33.5060   44.1070   -9.5600 C.3   111  LYS111      0.0206
    118  CE        33.4900   44.6220  -10.9960 C.3   111  LYS111      0.1093
    119  NZ        32.0870   44.8470  -11.4530 N.3   111  LYS111     -0.1314
    120  N         37.3190   41.9810   -5.1440 N.am  112  PHE112     -0.1974
    121  CA        37.3860   41.4180   -3.7990 C.3   112  PHE112      0.1639
    122  C         37.9980   42.4240   -2.8390 C.2   112  PHE112      0.2290
    123  O         37.3370   42.8590   -1.8900 O.2   112  PHE112     -0.2864
    124  CB        38.1550   40.0880   -3.7780 C.3   112  PHE112      0.0560
    125  CG        38.2660   39.4700   -2.4120 C.ar  112  PHE112     -0.0200
    126  CD1       37.1220   39.1070   -1.6970 C.ar  112  PHE112     -0.0042
    127  CD2       39.5130   39.2570   -1.8340 C.ar  112  PHE112     -0.0042
    128  CE1       37.2220   38.5310   -0.4230 C.ar  112  PHE112     -0.0003
    129  CE2       39.6290   38.6800   -0.5590 C.ar  112  PHE112     -0.0003
    130  CZ        38.4840   38.3170    0.1440 C.ar  112  PHE112     -0.0000
    131  N         39.1870   45.8880   -1.3540 N.3   114  ILE114     -0.1245
    132  CA        38.5340   47.1910   -1.3380 C.3   114  ILE114      0.1561
    133  C         39.5770   48.2950   -1.1670 C.2   114  ILE114      0.2260
    134  O         40.3450   48.2850   -0.2030 O.2   114  ILE114     -0.2867
    135  CB        37.4760   47.2820   -0.2030 C.3   114  ILE114      0.0252
    136  CG1       36.4620   46.1320   -0.3030 C.3   114  ILE114      0.0019
    137  CG2       36.7800   48.6400   -0.2260 C.3   114  ILE114      0.0019
    138  CD1       35.5050   46.0180    0.8930 C.3   114  ILE114      0.0001
    139  N         42.5410   46.0510    4.8880 N.3   119  TRP119     -0.1241
    140  CA        42.6860   44.5990    5.0400 C.3   119  TRP119      0.1605
    141  C         43.2390   43.9060    3.7930 C.2   119  TRP119      0.2264
    142  O         42.9720   44.3190    2.6570 O.2   119  TRP119     -0.2867
    143  CB        41.4330   43.8990    5.5960 C.3   119  TRP119      0.0550
    144  CG        40.1450   44.1070    4.8590 C.ar  119  TRP119      0.0003
    145  CD1       39.1720   45.0080    5.1690 C.ar  119  TRP119      0.0946
    146  CD2       39.6620   43.3690    3.7250 C.ar  119  TRP119      0.0152
    147  NE1       38.1210   44.8940    4.2910 N.ar  119  TRP119     -0.2442
    148  CE2       38.3920   43.8950    3.3970 C.ar  119  TRP119      0.0810
    149  CE3       40.1800   42.3190    2.9520 C.ar  119  TRP119      0.0012
    150  CZ2       37.6290   43.4140    2.3200 C.ar  119  TRP119      0.0191
    151  CZ3       39.4180   41.8360    1.8770 C.ar  119  TRP119      0.0001
    152  CH2       38.1580   42.3850    1.5780 C.ar  119  TRP119      0.0015
    153  N         41.0470   37.5790    4.4510 N.3   122  ILE122     -0.1245
    154  CA        39.7330   37.3080    5.0480 C.3   122  ILE122      0.1561
    155  C         39.7940   36.0750    5.9630 C.2   122  ILE122      0.2260
    156  O         40.4630   35.0830    5.6580 O.2   122  ILE122     -0.2867
    157  CB        38.6400   37.1230    3.9440 C.3   122  ILE122      0.0252
    158  CG1       37.2440   36.9330    4.5610 C.3   122  ILE122      0.0019
    159  CG2       39.0160   35.9700    2.9830 C.3   122  ILE122      0.0019
    160  CD1       36.0840   37.1000    3.5660 C.3   122  ILE122      0.0001
    161  N         30.1850   25.3550    4.0880 N.3   130  ILE130     -0.1245
    162  CA        30.2460   26.3850    3.0480 C.3   130  ILE130      0.1561
    163  C         31.6810   26.7520    2.6200 C.2   130  ILE130      0.2260
    164  O         31.8820   27.7320    1.9050 O.2   130  ILE130     -0.2867
    165  CB        29.4150   27.6530    3.4080 C.3   130  ILE130      0.0252
    166  CG1       29.9010   28.2690    4.7190 C.3   130  ILE130      0.0019
    167  CG2       27.9100   27.3140    3.4580 C.3   130  ILE130      0.0019
    168  CD1       29.5150   29.7200    4.9130 C.3   130  ILE130      0.0001
    169  N         35.1940   26.4460    0.5130 N.3   132  ARG132     -0.1245
    170  CA        35.6630   26.0800   -0.8280 C.3   132  ARG132      0.1563
    171  C         37.0660   25.4640   -0.7400 C.2   132  ARG132      0.2260
    172  O         37.8570   25.8700    0.1060 O.2   132  ARG132     -0.2867
    173  CB        35.7130   27.3090   -1.7320 C.3   132  ARG132      0.0307
    174  CG        34.4030   28.0650   -1.8510 C.3   132  ARG132      0.0489
    175  CD        33.4660   27.4160   -2.8330 C.3   132  ARG132      0.2205
    176  NE        32.1090   27.9120   -2.6310 N.pl3 132  ARG132     -0.0865
    177  CZ        31.1840   27.9990   -3.5800 C.cat 132  ARG132      0.5346
    178  NH1       31.4560   27.6320   -4.8270 N.pl3 132  ARG132      0.1354
    179  NH2       29.9840   28.4680   -3.2820 N.pl3 132  ARG132      0.1354
    180  N         26.2320   28.4540    7.5190 N.3   191  TYR191     -0.1241
    181  CA        26.2760   29.8400    7.9700 C.3   191  TYR191      0.1605
    182  C         25.8880   29.8450    9.4520 C.2   191  TYR191      0.2264
    183  O         25.4970   28.8090   10.0010 O.2   191  TYR191     -0.2867
    184  CB        25.3050   30.7210    7.1660 C.3   191  TYR191      0.0534
    185  CG        25.6470   30.8430    5.6940 C.ar  191  TYR191     -0.0201
    186  CD1       26.5920   31.7760    5.2450 C.ar  191  TYR191     -0.0009
    187  CD2       25.0190   30.0340    4.7500 C.ar  191  TYR191     -0.0009
    188  CE1       26.9060   31.8840    3.8810 C.ar  191  TYR191      0.0417
    189  CE2       25.3250   30.1360    3.3940 C.ar  191  TYR191      0.0417
    190  CZ        26.2660   31.0550    2.9720 C.ar  191  TYR191      0.1957
    191  OH        26.5550   31.1380    1.6310 O.3   191  TYR191     -0.2866
    192  N         26.1020   37.8340   10.0440 N.3   221  ASP221     -0.1239
    193  CA        27.2420   37.9810    9.1350 C.3   221  ASP221      0.1674
    194  C         27.9980   39.2800    9.4030 C.2   221  ASP221      0.2266
    195  O         27.5990   40.3530    8.9370 O.2   221  ASP221     -0.2867
    196  CB        26.7570   37.9250    7.6750 C.3   221  ASP221      0.1410
    197  CG        27.8930   38.0370    6.6550 C.2   221  ASP221      0.3668
    198  OD1       29.0710   38.1530    7.0490 O.co2 221  ASP221     -0.2456
    199  OD2       27.6060   37.9860    5.4410 O.co2 221  ASP221     -0.2456
    200  N         30.7080   40.2370    8.1430 N.3   223  GLY223     -0.1210
    201  CA        31.3750   40.7320    6.9390 C.3   223  GLY223      0.1956
    202  C         30.4780   41.4710    5.9570 C.2   223  GLY223      0.2612
    203  O         30.9650   42.0130    4.9570 O.2   223  GLY223     -0.2717
    204  N         29.1700   41.4680    6.2170 N.am  224  THR224     -0.1952
    205  CA        28.2100   42.2280    5.4090 C.3   224  THR224      0.1897
    206  C         27.8620   43.5280    6.1310 C.2   224  THR224      0.2313
    207  O         27.5820   43.5260    7.3310 O.2   224  THR224     -0.2863
    208  CB        26.9180   41.4280    5.1450 C.3   224  THR224      0.1794
    209  OG1       27.1970   40.3490    4.2460 O.3   224  THR224     -0.2208
    210  CG2       25.8280   42.3230    4.5350 C.3   224  THR224      0.0378
    211  N         20.2140   43.1200    5.3650 N.3   228  ARG228     -0.1245
    212  CA        19.6300   42.7080    4.0930 C.3   228  ARG228      0.1563
    213  C         18.3730   41.8670    4.3310 C.2   228  ARG228      0.2260
    214  O         18.3690   40.9640    5.1700 O.2   228  ARG228     -0.2867
    215  CB        20.6560   41.9540    3.2390 C.3   228  ARG228      0.0307
    216  CG        21.9570   42.7340    3.0200 C.3   228  ARG228      0.0489
    217  CD        22.9040   42.0020    2.0860 C.3   228  ARG228      0.2205
    218  NE        22.3280   41.8700    0.7530 N.pl3 228  ARG228     -0.0865
    219  CZ        22.5710   40.8640   -0.0840 C.cat 228  ARG228      0.5346
    220  NH1       23.3920   39.8800    0.2590 N.pl3 228  ARG228      0.1354
    221  NH2       21.9840   40.8380   -1.2750 N.pl3 228  ARG228      0.1354
@<TRIPOS>BOND
     1    88    87    1
     2   109   108   ar
     3   119   118    1
     4    87    86    1
     5   110   108   ar
     6   108   107    1
     7   118   117    1
     8   107   104    1
     9    86    85    1
    10    85    84    1
    11   117   116    1
    12   104   103    1
    13   104   105    1
    14    67    68    1
    15   116   115    1
    16    76    77    1
    17    76    69   am
    18    77    78    1
    19    84    81    1
    20    79    78    2
    21    68    69    1
    22    68    71    1
    23    78    80   am
    24   105   111   am
    25   105   106    2
    26    58    57    2
    27    72    71    1
    28    72    73    1
    29   111   112    1
    30    75    73   am
    31    80    81    1
    32    69    70    2
    33   115   112    1
    34    81    82    1
    35    83    82    2
    36    52    49    1
    37    52    53    1
    38    73    74    2
    39   112   113    1
    40    57    56    1
    41    82    89   am
    42    49    50    1
    43    49    48    1
    44    55    56    1
    45    55    50   am
    46    91    92    2
    47    91    90    1
    48    89    90    1
    49    53    54    1
    50    90    93    1
    51    56    59    1
    52    50    51    2
    53    44    43    2
    54    48    43   am
    55    48    54    1
    56   113   120   am
    57   113   114    2
    58    43    42    1
    59    41    42    1
    60   120   121    1
    61    59    60    1
    62    93    94    1
    63   178   177    1
    64    42    45    1
    65    62    60   ar
    66    62    64   ar
    67    60    61   ar
    68   121   124    1
    69   121   122    1
    70   124   125    1
    71   177   179    1
    72   177   176    2
    73    94    96   ar
    74    94    95   ar
    75    99    96   ar
    76    99   101   ar
    77    64    65   ar
    78    61    63   ar
    79    96    98   ar
    80    45    46    1
    81    45    47    1
    82   122   123    2
    83   175   176    1
    84   175   174    1
    85   101   102   ar
    86    95    97   ar
    87   125   127   ar
    88   125   126   ar
    89    65    63   ar
    90    65    66    1
    91   174   173    1
    92   127   129   ar
    93    98    97   ar
    94    98   100   ar
    95   173   170    1
    96   126   128   ar
    97   102   100   ar
    98   131   132    1
    99   132   133    1
   100   132   135    1
   101   221   219    1
   102   133   134    2
   103   170   171    1
   104   170   169    1
   105   171   172    2
   106   129   130   ar
   107   128   130   ar
   108   136   135    1
   109   136   138    1
   110   137   135    1
   111   219   220    1
   112   219   218    2
   113   218   217    1
   114    40    38   am
   115   152   151   ar
   116   152   150   ar
   117   191   190    1
   118    39    38    2
   119   151   149   ar
   120   164   163    2
   121    38    37    1
   122   217   216    1
   123   150   148   ar
   124   163   162    1
   125   142   141    2
   126    37    34    1
   127   149   146   ar
   128   190   189   ar
   129   190   188   ar
   130   159   157    1
   131   216   215    1
   132   162   165    1
   133   162   161    1
   134   215   212    1
   135   189   187   ar
   136   148   146   ar
   137   148   147   ar
   138   165   167    1
   139   165   166    1
   140   160   158    1
   141   146   144   ar
   142   141   140    1
   143   188   186   ar
   144   157   158    1
   145   157   154    1
   146    25    26    1
   147    25    22    1
   148   212   213    1
   149   212   211    1
   150    34    33    1
   151    34    35    1
   152   209   208    1
   153   147   145   ar
   154   213   214    2
   155   153   154    1
   156   210   208    1
   157    20    19    2
   158    33    29   am
   159   166   168    1
   160   187   185   ar
   161   144   145   ar
   162   144   143    1
   163     8     6    1
   164    35    36    2
   165    15    14   ar
   166   139   140    1
   167   203   202    2
   168   140   143    1
   169   154   155    1
   170    22    23    1
   171    22    21    1
   172   208   205    1
   173   186   185   ar
   174    27    23   am
   175    27    28    1
   176   205   206    1
   177   205   204    1
   178   199   197   ar
   179    29    28    1
   180    29    30    2
   181   156   155    2
   182    19    21   am
   183    19    18    1
   184   185   184    1
   185    31    28    1
   186    31    32    1
   187    23    24    2
   188   202   204   am
   189   202   201    1
   190    14    16   ar
   191    14    13    1
   192   206   207    2
   193     5     6    1
   194     5     2    1
   195     6     7    1
   196   197   198   ar
   197   197   196    1
   198    18    17    1
   199    13    10    1
   200   201   200    1
   201   184   181    1
   202     1     2    1
   203   180   181    1
   204     2     3    1
   205   196   193    1
   206   181   182    1
   207     4     3    2
   208    10    11    1
   209    10     9    1
   210    12    11    2
   211   195   194    2
   212   193   194    1
   213   193   192    1
   214   182   183    2
