@<TRIPOS>MOLECULE
tmp/3ufnB00.pdb
 127 118 0 0 0
SMALL
GASTEIGER

@<TRIPOS>ATOM
      1  N          3.3360    1.0340   -5.5620 N.3     8  ARG8       -0.1245
      2  CA         4.1760    0.5360   -6.6490 C.3     8  ARG8        0.1563
      3  C          4.0080    1.3990   -7.8840 C.2     8  ARG8        0.2260
      4  O          2.8470    1.6840   -8.1990 O.2     8  ARG8       -0.2867
      5  CB         3.8120   -0.9240   -6.9940 C.3     8  ARG8        0.0307
      6  CG         4.0230   -1.8140   -5.7810 C.3     8  ARG8        0.0489
      7  CD         3.9030   -3.2750   -6.1350 C.3     8  ARG8        0.2205
      8  NE         3.9290   -4.1320   -4.9460 N.pl3   8  ARG8       -0.0865
      9  CZ         2.8980   -4.6580   -4.3220 C.cat   8  ARG8        0.5346
     10  NH1        1.6190   -4.4660   -4.6940 N.pl3   8  ARG8        0.1354
     11  NH2        3.2030   -5.4150   -3.2600 N.pl3   8  ARG8        0.1354
     12  N          5.3090   -2.2370  -14.2650 N.3    23  LEU23      -0.1245
     13  CA         6.0310   -1.6260  -13.1490 C.3    23  LEU23       0.1561
     14  C          7.2910   -0.9020  -13.5970 C.2    23  LEU23       0.2260
     15  O          8.1200   -1.5350  -14.2500 O.2    23  LEU23      -0.2867
     16  CB         6.3080   -2.7850  -12.1950 C.3    23  LEU23       0.0270
     17  CG         7.0220   -2.5370  -10.8940 C.3    23  LEU23       0.0019
     18  CD1        6.1510   -1.6300  -10.0460 C.3    23  LEU23       0.0001
     19  CD2        7.2610   -3.8970  -10.2330 C.3    23  LEU23       0.0001
     20  N         10.7550    0.0130  -13.1310 N.3    25  ASP25      -0.1239
     21  CA        11.6600   -0.6600  -12.2250 C.3    25  ASP25       0.1674
     22  C         13.1300   -0.2910  -12.4430 C.2    25  ASP25       0.2266
     23  O         13.7830   -0.8390  -13.3420 O.2    25  ASP25      -0.2867
     24  CB        11.4990   -2.1670  -12.4150 C.3    25  ASP25       0.1410
     25  CG        12.2190   -2.9060  -11.3010 C.2    25  ASP25       0.3668
     26  OD1       12.9710   -2.2810  -10.5160 O.co2  25  ASP25      -0.2456
     27  OD2       12.0090   -4.1240  -11.2160 O.co2  25  ASP25      -0.2456
     28  N         15.5150   -1.1370  -10.7740 N.3    27  GLY27      -0.1210
     29  CA        16.4780   -2.1770  -10.4340 C.3    27  GLY27       0.1956
     30  C         16.6480   -3.1930  -11.5380 C.2    27  GLY27       0.2612
     31  O         17.5620   -4.0120  -11.5220 O.2    27  GLY27      -0.2717
     32  N         15.7630   -3.1680  -12.5370 N.am   28  ALA28      -0.1965
     33  CA        15.8090   -4.1830  -13.5910 C.3    28  ALA28       0.1728
     34  C         16.5920   -3.7460  -14.8150 C.2    28  ALA28       0.2616
     35  O         16.4240   -2.6240  -15.2980 O.2    28  ALA28      -0.2715
     36  CB        14.3810   -4.4980  -14.0140 C.3    28  ALA28       0.0334
     37  N         17.4160   -4.6400  -15.3440 N.am   29  ASP29      -0.1957
     38  CA        18.0740   -4.4250  -16.6150 C.3    29  ASP29       0.1840
     39  C         17.0870   -4.5030  -17.7810 C.2    29  ASP29       0.2622
     40  O         17.2330   -3.7700  -18.7670 O.2    29  ASP29      -0.2715
     41  CB        19.1060   -5.5390  -16.8610 C.3    29  ASP29       0.1450
     42  CG        20.4420   -5.3150  -16.1790 C.2    29  ASP29       0.3671
     43  OD1       20.6230   -4.3930  -15.3420 O.co2  29  ASP29      -0.2456
     44  OD2       21.3820   -6.0890  -16.4870 O.co2  29  ASP29      -0.2456
     45  N         16.1360   -5.3920  -17.6650 N.am   30  ASN30      -0.1972
     46  CA        15.2900   -5.8650  -18.7490 C.3    30  ASN30       0.1688
     47  C         13.8310   -5.4550  -18.6100 C.2    30  ASN30       0.2292
     48  O         13.3800   -5.1330  -17.5290 O.2    30  ASN30      -0.2864
     49  CB        15.3280   -7.4090  -18.7730 C.3    30  ASN30       0.1181
     50  CG        16.7250   -7.9370  -18.9980 C.2    30  ASN30       0.2629
     51  OD1       17.2690   -7.8030  -20.0880 O.2    30  ASN30      -0.2716
     52  ND2       17.3300   -8.5360  -17.9860 N.am   30  ASN30      -0.0877
     53  N          9.9200   -6.8380  -19.4590 N.3    32  ILE32      -0.1245
     54  CA         9.2900   -8.1330  -19.6680 C.3    32  ILE32       0.1561
     55  C          7.7760   -8.0670  -19.4750 C.2    32  ILE32       0.2260
     56  O          7.2980   -7.3440  -18.5960 O.2    32  ILE32      -0.2867
     57  CB         9.8970   -9.1750  -18.7070 C.3    32  ILE32       0.0252
     58  CG1        9.3830  -10.5990  -19.0180 C.3    32  ILE32       0.0019
     59  CG2        9.6670   -8.7970  -17.2540 C.3    32  ILE32       0.0019
     60  CD1       10.1510  -11.6850  -18.3170 C.3    32  ILE32       0.0001
     61  N         16.3230  -15.2900  -17.8330 N.3    47  VAL47      -0.1231
     62  CA        16.6100  -14.1240  -16.9950 C.3    47  VAL47       0.1692
     63  C         16.4980  -14.5910  -15.5550 C.2    47  VAL47       0.2593
     64  O         15.6030  -15.3670  -15.2300 O.2    47  VAL47      -0.2718
     65  CB        15.6860  -12.9440  -17.3260 C.3    47  VAL47       0.0266
     66  CG1       14.2300  -13.2780  -17.0550 C.3    47  VAL47       0.0020
     67  CG2       16.1060  -11.7120  -16.5420 C.3    47  VAL47       0.0020
     68  N         17.4250  -14.1180  -14.7260 N.am   48  GLY48      -0.1942
     69  CA        17.3760  -14.4930  -13.3280 C.3    48  GLY48       0.2014
     70  C         16.9130  -13.3690  -12.4210 C.2    48  GLY48       0.2639
     71  O         17.0190  -12.1850  -12.7080 O.2    48  GLY48      -0.2714
     72  N         16.3550  -13.7260  -11.2670 N.am   49  GLY49      -0.1939
     73  CA        16.0600  -12.7360  -10.2710 C.3    49  GLY49       0.2014
     74  C         15.8780  -13.4400   -8.9390 C.2    49  GLY49       0.2638
     75  O         16.4070  -14.5420   -8.7410 O.2    49  GLY49      -0.2714
     76  N         15.1500  -12.7880   -8.0470 N.am   50  ILE50      -0.1977
     77  CA        14.9120  -13.4010   -6.7400 C.3    50  ILE50       0.1596
     78  C         14.0810  -14.6550   -6.9180 C.2    50  ILE50       0.2287
     79  O         12.9810  -14.7050   -7.4570 O.2    50  ILE50      -0.2864
     80  CB        14.2840  -12.3490   -5.8040 C.3    50  ILE50       0.0276
     81  CG1       15.4110  -11.4390   -5.2870 C.3    50  ILE50       0.0022
     82  CG2       13.5010  -12.9040   -4.6290 C.3    50  ILE50       0.0022
     83  CD1       14.9320  -10.1030   -4.7840 C.3    50  ILE50       0.0001
     84  N         13.9190  -17.4790  -15.1360 N.3    54  LEU54      -0.1245
     85  CA        12.7780  -17.4380  -16.0130 C.3    54  LEU54       0.1561
     86  C         13.2460  -17.6910  -17.4540 C.2    54  LEU54       0.2260
     87  O         14.1820  -17.0420  -17.8930 O.2    54  LEU54      -0.2867
     88  CB        12.0460  -16.0800  -15.9490 C.3    54  LEU54       0.0270
     89  CG        10.5200  -16.1980  -15.8780 C.3    54  LEU54       0.0019
     90  CD1       10.1620  -17.2220  -14.8060 C.3    54  LEU54       0.0001
     91  CD2        9.8170  -14.9020  -15.5650 C.3    54  LEU54       0.0001
     92  N         11.0730   -8.7410  -23.4910 N.3    76  LEU76      -0.1245
     93  CA        11.0190  -10.1610  -23.1420 C.3    76  LEU76       0.1561
     94  C          9.5810  -10.5760  -22.8520 C.2    76  LEU76       0.2260
     95  O          8.8380   -9.7530  -22.3130 O.2    76  LEU76      -0.2867
     96  CB        11.8840  -10.4930  -21.9250 C.3    76  LEU76       0.0270
     97  CG        13.3080   -9.9310  -21.9450 C.3    76  LEU76       0.0019
     98  CD1       14.0030  -10.2780  -20.6410 C.3    76  LEU76       0.0001
     99  CD2       14.0590  -10.4450  -23.1890 C.3    76  LEU76       0.0001
    100  N          6.0940  -14.3710  -16.1330 N.3    80  THR80      -0.1204
    101  CA         6.3560  -13.4590  -15.0310 C.3    80  THR80       0.1979
    102  C          5.0690  -13.1340  -14.2770 C.2    80  THR80       0.2460
    103  O          4.0260  -13.0440  -14.9010 O.2    80  THR80      -0.2732
    104  CB         6.9920  -12.1420  -15.5510 C.3    80  THR80       0.1783
    105  OG1        7.1760  -11.2510  -14.4470 O.3    80  THR80      -0.2211
    106  CG2        6.0830  -11.4240  -16.5450 C.3    80  THR80       0.0376
    107  N          5.1220  -12.9560  -12.9610 N.am   81  PRO81      -0.2717
    108  CA         3.9260  -12.5430  -12.2020 C.3    81  PRO81       0.1535
    109  C          3.5980  -11.0680  -12.4470 C.2    81  PRO81       0.2598
    110  O          2.5330  -10.6220  -12.0580 O.2    81  PRO81      -0.2715
    111  CB         4.3530  -12.7490  -10.7480 C.3    81  PRO81       0.0310
    112  CG         5.8420  -12.6400  -10.7560 C.3    81  PRO81       0.0237
    113  CD         6.2890  -13.1850  -12.0730 C.3    81  PRO81       0.0939
    114  N          4.4920  -10.2960  -13.0810 N.am   82  VAL82      -0.1978
    115  CA         4.2740   -8.8460  -13.2310 C.3    82  VAL82       0.1596
    116  C          4.9650   -8.3650  -14.5100 C.2    82  VAL82       0.2287
    117  O          6.0520   -8.8370  -14.8180 O.2    82  VAL82      -0.2864
    118  CB         4.7830   -8.1050  -11.9830 C.3    82  VAL82       0.0276
    119  CG1        6.2980   -8.2710  -11.8060 C.3    82  VAL82       0.0022
    120  CG2        4.4380   -6.6200  -11.9970 C.3    82  VAL82       0.0022
    121  N          7.1600   -5.6100  -16.3270 N.3    84  VAL84      -0.1245
    122  CA         8.1800   -4.7060  -15.8070 C.3    84  VAL84       0.1561
    123  C          8.8140   -3.8980  -16.9400 C.2    84  VAL84       0.2260
    124  O          9.1800   -4.4410  -17.9830 O.2    84  VAL84      -0.2867
    125  CB         9.2970   -5.4910  -15.0750 C.3    84  VAL84       0.0252
    126  CG1       10.4220   -4.6000  -14.6450 C.3    84  VAL84       0.0019
    127  CG2        8.7280   -6.2030  -13.8450 C.3    84  VAL84       0.0019
@<TRIPOS>BOND
     1    92    93    1
     2    99    97    1
     3    93    94    1
     4    93    96    1
     5    94    95    2
     6    97    96    1
     7    97    98    1
     8    51    50    2
     9    54    55    1
    10    54    53    1
    11    54    57    1
    12    55    56    2
    13    58    57    1
    14    58    60    1
    15    50    49    1
    16    50    52   am
    17    49    46    1
    18    40    39    2
    19    46    47    1
    20    46    45    1
    21    57    59    1
    22    47    48    2
    23   124   123    2
    24    87    86    2
    25    61    62    1
    26    39    45   am
    27    39    38    1
    28    86    85    1
    29    65    66    1
    30    65    62    1
    31    65    67    1
    32    62    63    1
    33   123   122    1
    34    41    38    1
    35    41    42    1
    36    38    37    1
    37   106   104    1
    38    44    42   ar
    39   121   122    1
    40    42    43   ar
    41   100   101    1
    42    85    88    1
    43    85    84    1
    44    88    89    1
    45    89    91    1
    46    89    90    1
    47   122   125    1
    48    63    64    2
    49    63    68   am
    50   104   101    1
    51   104   105    1
    52    37    34   am
    53    35    34    2
    54   125   126    1
    55   125   127    1
    56   101   102    1
    57   103   102    2
    58   117   116    2
    59    34    33    1
    60    68    69    1
    61   116   115    1
    62   102   107   am
    63    12    13    1
    64    15    14    2
    65    36    33    1
    66    14    13    1
    67    33    32    1
    68    23    22    2
    69    69    70    1
    70   115   114    1
    71   115   118    1
    72    13    16    1
    73    20    21    1
    74   114   109   am
    75   107   108    1
    76   107   113    1
    77    71    70    2
    78    32    30   am
    79   109   108    1
    80   109   110    2
    81    22    21    1
    82    70    72   am
    83    24    21    1
    84    24    25    1
    85   108   111    1
    86    16    17    1
    87   113   112    1
    88   120   118    1
    89   118   119    1
    90    30    31    2
    91    30    29    1
    92    25    27   ar
    93    25    26   ar
    94    72    73    1
    95    17    19    1
    96    17    18    1
    97    28    29    1
    98   112   111    1
    99    73    74    1
   100    74    75    2
   101    74    76   am
   102     4     3    2
   103    76    77    1
   104     3     2    1
   105    79    78    2
   106     5     2    1
   107     5     6    1
   108    78    77    1
   109    77    80    1
   110     2     1    1
   111     7     6    1
   112     7     8    1
   113    80    81    1
   114    80    82    1
   115    81    83    1
   116     8     9    2
   117    10     9    1
   118     9    11    1
