@<TRIPOS>MOLECULE
tmp/3ufoA02.pdb
 193 188 0 0 0
SMALL
GASTEIGER

@<TRIPOS>ATOM
      1  N          2.8260    9.0490   34.9200 N.3    38  MET38      -0.1230
      2  CA         3.2270    8.7170   33.5590 C.3    38  MET38       0.1702
      3  C          3.0930    9.8660   32.5270 C.2    38  MET38       0.2592
      4  O          3.9200    9.9380   31.6070 O.2    38  MET38      -0.2718
      5  CB         2.4870    7.4840   33.0760 C.3    38  MET38       0.0401
      6  CG         3.0880    6.1930   33.6020 C.3    38  MET38       0.0596
      7  SD         3.3630    5.0100   32.2770 S.3    38  MET38      -0.1393
      8  CE         3.8070    6.0980   30.8930 C.3    38  MET38       0.0692
      9  N          2.0630   10.7270   32.6580 N.am   39  LEU39      -0.1980
     10  CA         1.9780   11.9550   31.8410 C.3    39  LEU39       0.1596
     11  C          1.3890   13.1670   32.5830 C.2    39  LEU39       0.2287
     12  O          0.1620   13.3010   32.7220 O.2    39  LEU39      -0.2864
     13  CB         1.2260   11.7150   30.5270 C.3    39  LEU39       0.0297
     14  CG         0.5270   10.3680   30.2760 C.3    39  LEU39       0.0022
     15  CD1       -0.9520   10.5850   29.8830 C.3    39  LEU39       0.0001
     16  CD2        1.2660    9.4960   29.2690 C.3    39  LEU39       0.0001
     17  N         15.4240    7.5970   29.0190 N.3   106  CYS106     -0.1235
     18  CA        16.1950    6.6210   28.2380 C.3   106  CYS106      0.1677
     19  C         17.5150    6.2880   28.8660 C.2   106  CYS106      0.2270
     20  O         18.3990    7.1570   28.9470 O.2   106  CYS106     -0.2867
     21  CB        16.4870    7.1480   26.8080 C.3   106  CYS106      0.0956
     22  SG        17.1220    5.8450   25.6570 S.3   106  CYS106     -0.0801
     23  N          1.8500    1.8270   17.8120 N.3   168  SER168     -0.1202
     24  CA         2.7510    2.3890   18.8230 C.3   168  SER168      0.2020
     25  C          4.2310    1.9660   18.6420 C.2   168  SER168      0.2618
     26  O          5.1400    2.7530   18.8920 O.2   168  SER168     -0.2717
     27  CB         2.2510    2.0640   20.2220 C.3   168  SER168      0.2103
     28  OG         1.8810    0.7040   20.3070 O.3   168  SER168     -0.2182
     29  N          4.4730    0.7300   18.2060 N.am  169  GLN169     -0.1979
     30  CA         5.8330    0.3300   17.7450 C.3   169  GLN169      0.1601
     31  C          5.6800   -0.1660   16.3080 C.2   169  GLN169      0.2287
     32  O          4.5690   -0.4700   15.8900 O.2   169  GLN169     -0.2864
     33  CB         6.4550   -0.7540   18.6330 C.3   169  GLN169      0.0394
     34  CG         6.5400   -0.3910   20.0890 C.3   169  GLN169      0.0908
     35  CD         7.1580   -1.4820   20.9440 C.2   169  GLN169      0.2608
     36  OE1        8.1300   -2.1460   20.5590 O.2   169  GLN169     -0.2717
     37  NE2        6.5900   -1.6800   22.1070 N.am  169  GLN169     -0.0878
     38  N          4.6820   -5.1640   16.5860 N.3   172  ARG172     -0.1245
     39  CA         3.9160   -5.5410   17.7830 C.3   172  ARG172      0.1563
     40  C          2.9290   -6.6700   17.4610 C.2   172  ARG172      0.2260
     41  O          2.4080   -6.7390   16.3390 O.2   172  ARG172     -0.2867
     42  CB         3.0920   -4.3710   18.3130 C.3   172  ARG172      0.0307
     43  CG         3.8460   -3.3510   19.1380 C.3   172  ARG172      0.0489
     44  CD         2.9400   -2.6610   20.1520 C.3   172  ARG172      0.2205
     45  NE         3.1550   -3.1440   21.5190 N.pl3 172  ARG172     -0.0865
     46  CZ         2.6890   -2.5360   22.6140 C.cat 172  ARG172      0.5346
     47  NH1        1.9450   -1.4300   22.5200 N.pl3 172  ARG172      0.1354
     48  NH2        2.9480   -3.0330   23.8170 N.pl3 172  ARG172      0.1354
     49  N         13.1910   -3.0710   18.7070 N.3   256  PRO256     -0.2116
     50  CA        12.2680   -2.1270   19.3510 C.3   256  PRO256      0.1372
     51  C         12.2360   -0.8190   18.5750 C.2   256  PRO256      0.2244
     52  O         13.2830   -0.2150   18.3130 O.2   256  PRO256     -0.2868
     53  CB        12.8830   -1.9280   20.7350 C.3   256  PRO256      0.0268
     54  CG        14.3210   -2.2250   20.5620 C.3   256  PRO256      0.0207
     55  CD        14.4680   -3.1940   19.4290 C.3   256  PRO256      0.0892
     56  N          9.9070    2.6220   18.4350 N.3   258  VAL258     -0.1245
     57  CA         8.7660    3.3880   18.9400 C.3   258  VAL258      0.1561
     58  C          8.3370    4.2220   17.7860 C.2   258  VAL258      0.2260
     59  O          9.1920    4.7740   17.0940 O.2   258  VAL258     -0.2867
     60  CB         9.1880    4.2510   20.1560 C.3   258  VAL258      0.0252
     61  CG1        8.1630    5.3950   20.4630 C.3   258  VAL258      0.0019
     62  CG2        9.4180    3.3250   21.3710 C.3   258  VAL258      0.0019
     63  N          5.0420    6.1670   17.8860 N.3   260  ASN260     -0.1225
     64  CA         3.8810    6.9910   18.1770 C.3   260  ASN260      0.1785
     65  C          4.1700    8.3790   18.7020 C.2   260  ASN260      0.2597
     66  O          3.2350    9.1570   18.9130 O.2   260  ASN260     -0.2718
     67  CB         2.8300    6.2730   19.0640 C.3   260  ASN260      0.1169
     68  CG         3.3930    5.8150   20.4340 C.2   260  ASN260      0.2627
     69  OD1        2.6870    5.1700   21.2210 O.2   260  ASN260     -0.2716
     70  ND2        4.6420    6.1320   20.7090 N.am  260  ASN260     -0.0877
     71  N          5.4440    8.7020   18.8480 N.am  261  MET261     -0.1979
     72  CA         5.8240    9.9570   19.4620 C.3   261  MET261      0.1605
     73  C          5.9730   11.0500   18.4550 C.2   261  MET261      0.2287
     74  O          5.8220   10.8490   17.2580 O.2   261  MET261     -0.2864
     75  CB         7.1150    9.7600   20.2610 C.3   261  MET261      0.0413
     76  CG         6.9040    8.8640   21.5170 C.3   261  MET261      0.0598
     77  SD         8.3770    8.7100   22.5370 S.3   261  MET261     -0.1393
     78  CE         8.1680   10.0690   23.7190 C.3   261  MET261      0.0692
     79  N         11.4320    5.5220   15.4960 N.3   275  PHE275     -0.1227
     80  CA        12.8750    5.3300   15.8150 C.3   275  PHE275      0.1736
     81  C         13.1040    4.0180   16.5500 C.2   275  PHE275      0.2596
     82  O         12.1730    3.4810   17.1510 O.2   275  PHE275     -0.2718
     83  CB        13.4160    6.4790   16.6500 C.3   275  PHE275      0.0547
     84  CG        12.6910    6.7110   17.9600 C.ar  275  PHE275     -0.0202
     85  CD1       13.0060    5.9850   19.1060 C.ar  275  PHE275     -0.0042
     86  CD2       11.7340    7.7040   18.0630 C.ar  275  PHE275     -0.0042
     87  CE1       12.3750    6.2360   20.3280 C.ar  275  PHE275     -0.0003
     88  CE2       11.0680    7.9500   19.2760 C.ar  275  PHE275     -0.0003
     89  CZ        11.3890    7.2210   20.4090 C.ar  275  PHE275     -0.0000
     90  N         14.3330    3.5080   16.5080 N.am  276  SER276     -0.1938
     91  CA        14.5800    2.1760   16.9500 C.3   276  SER276      0.2055
     92  C         16.0490    2.0440   17.3580 C.2   276  SER276      0.2644
     93  O         16.9030    2.7750   16.8390 O.2   276  SER276     -0.2714
     94  CB        14.2410    1.1820   15.8180 C.3   276  SER276      0.2130
     95  OG        15.2080    1.2020   14.7770 O.3   276  SER276     -0.2179
     96  N         16.3410    1.1110   18.2780 N.am  277  GLY277     -0.1939
     97  CA        17.7630    0.7840   18.6670 C.3   277  GLY277      0.2014
     98  C         17.8410   -0.7190   18.9320 C.2   277  GLY277      0.2639
     99  O         17.6490   -1.5460   18.0250 O.2   277  GLY277     -0.2714
    100  N         18.0420   -1.0820   20.1940 N.am  278  TRP278     -0.1959
    101  CA        17.9620   -2.4790   20.6120 C.3   278  TRP278      0.1771
    102  C         17.5430   -2.6490   22.0830 C.2   278  TRP278      0.2620
    103  O         17.7250   -1.7380   22.9310 O.2   278  TRP278     -0.2715
    104  CB        19.3130   -3.1430   20.3850 C.3   278  TRP278      0.0590
    105  CG        20.4190   -2.5270   21.1340 C.ar  278  TRP278      0.0006
    106  CD1       20.6900   -2.6860   22.4660 C.ar  278  TRP278      0.0946
    107  CD2       21.4500   -1.6680   20.6130 C.ar  278  TRP278      0.0152
    108  NE1       21.8220   -1.9890   22.8070 N.ar  278  TRP278     -0.2442
    109  CE2       22.3030   -1.3380   21.7000 C.ar  278  TRP278      0.0810
    110  CE3       21.7210   -1.1240   19.3470 C.ar  278  TRP278      0.0012
    111  CZ2       23.4320   -0.5070   21.5560 C.ar  278  TRP278      0.0191
    112  CZ3       22.8570   -0.2860   19.2040 C.ar  278  TRP278      0.0001
    113  CH2       23.6880    0.0070   20.3030 C.ar  278  TRP278      0.0015
    114  N         17.0520   -3.8500   22.3840 N.am  279  TYR279     -0.1960
    115  CA        16.3840   -4.1400   23.6600 C.3   279  TYR279      0.1771
    116  C         17.3510   -4.2430   24.8090 C.2   279  TYR279      0.2619
    117  O         18.5060   -4.7050   24.6510 O.2   279  TYR279     -0.2715
    118  CB        15.6050   -5.4510   23.5420 C.3   279  TYR279      0.0574
    119  CG        14.1290   -5.2950   23.1680 C.ar  279  TYR279     -0.0198
    120  CD1       13.6200   -5.9310   22.0440 C.ar  279  TYR279     -0.0009
    121  CD2       13.2590   -4.5320   23.9360 C.ar  279  TYR279     -0.0009
    122  CE1       12.3060   -5.8430   21.7000 C.ar  279  TYR279      0.0417
    123  CE2       11.9080   -4.4380   23.6100 C.ar  279  TYR279      0.0417
    124  CZ        11.4420   -5.1050   22.4950 C.ar  279  TYR279      0.1957
    125  OH        10.1270   -5.0280   22.1360 O.3   279  TYR279     -0.2866
    126  N         16.9010   -3.7810   25.9680 N.am  280  MET280     -0.1977
    127  CA        17.4850   -4.2150   27.2350 C.3   280  MET280      0.1605
    128  C         16.6190   -5.4320   27.6280 C.2   280  MET280      0.2287
    129  O         15.4160   -5.4070   27.4340 O.2   280  MET280     -0.2864
    130  CB        17.4430   -3.0760   28.2690 C.3   280  MET280      0.0413
    131  CG        18.0160   -3.4510   29.6730 C.3   280  MET280      0.0598
    132  SD        18.1330   -2.0080   30.7550 S.3   280  MET280     -0.1393
    133  CE        16.3520   -1.6860   31.1190 C.3   280  MET280      0.0692
    134  N         13.0710   -5.4350   29.4170 N.3   283  GLU283     -0.1245
    135  CA        11.8790   -4.9110   28.7500 C.3   283  GLU283      0.1567
    136  C         10.9910   -6.0480   28.2570 C.2   283  GLU283      0.2260
    137  O          9.7620   -5.9430   28.2470 O.2   283  GLU283     -0.2867
    138  CB        12.2540   -4.0440   27.5650 C.3   283  GLU283      0.0388
    139  CG        12.8280   -2.7040   27.9190 C.3   283  GLU283      0.1160
    140  CD        13.2800   -1.9470   26.6710 C.2   283  GLU283      0.3649
    141  OE1       12.4050   -1.2370   26.1160 O.co2 283  GLU283     -0.2457
    142  OE2       14.4580   -2.1120   26.2200 O.co2 283  GLU283     -0.2457
    143  N          7.1630   -7.3010   29.2990 N.3   288  ASP288     -0.1239
    144  CA         6.3650   -7.9590   28.2410 C.3   288  ASP288      0.1674
    145  C          5.7520   -9.2960   28.6990 C.2   288  ASP288      0.2266
    146  O          4.6030   -9.6300   28.3520 O.2   288  ASP288     -0.2867
    147  CB         7.1480   -8.0570   26.9060 C.3   288  ASP288      0.1410
    148  CG         7.4340   -6.6630   26.2760 C.2   288  ASP288      0.3668
    149  OD1        6.4780   -5.8540   26.2450 O.co2 288  ASP288     -0.2456
    150  OD2        8.6130   -6.3590   25.8350 O.co2 288  ASP288     -0.2456
    151  N         12.1110    5.7880   35.7130 N.3   369  TRP369     -0.1241
    152  CA        12.2080    5.0430   34.4780 C.3   369  TRP369      0.1605
    153  C         13.6020    4.4560   34.2470 C.2   369  TRP369      0.2264
    154  O         13.6990    3.3830   33.6180 O.2   369  TRP369     -0.2867
    155  CB        11.8630    5.9790   33.3230 C.3   369  TRP369      0.0550
    156  CG        10.3560    6.1510   33.2290 C.ar  369  TRP369      0.0003
    157  CD1        9.5420    6.7290   34.1550 C.ar  369  TRP369      0.0946
    158  CD2        9.5050    5.6800   32.1700 C.ar  369  TRP369      0.0152
    159  NE1        8.2220    6.6950   33.7120 N.ar  369  TRP369     -0.2442
    160  CE2        8.1810    6.0450   32.5030 C.ar  369  TRP369      0.0810
    161  CE3        9.7460    5.0270   30.9620 C.ar  369  TRP369      0.0012
    162  CZ2        7.0930    5.7480   31.6820 C.ar  369  TRP369      0.0191
    163  CZ3        8.6830    4.7320   30.1470 C.ar  369  TRP369      0.0001
    164  CH2        7.3610    5.1020   30.5020 C.ar  369  TRP369      0.0015
    165  N          4.9910   12.8470   23.9570 N.3   397  TYR397     -0.1227
    166  CA         3.8210   12.0700   23.6470 C.3   397  TYR397      0.1736
    167  C          2.7880   12.8860   22.9210 C.2   397  TYR397      0.2595
    168  O          2.7220   14.1100   23.0410 O.2   397  TYR397     -0.2718
    169  CB         3.1770   11.5660   24.9090 C.3   397  TYR397      0.0548
    170  CG         4.0700   10.6660   25.7100 C.ar  397  TYR397     -0.0200
    171  CD1        4.6860   11.1430   26.8690 C.ar  397  TYR397     -0.0009
    172  CD2        4.2790    9.3200   25.3360 C.ar  397  TYR397     -0.0009
    173  CE1        5.5030   10.3100   27.6500 C.ar  397  TYR397      0.0417
    174  CE2        5.0980    8.4680   26.1160 C.ar  397  TYR397      0.0417
    175  CZ         5.6910    8.9850   27.2660 C.ar  397  TYR397      0.1957
    176  OH         6.4630    8.2040   28.0670 O.3   397  TYR397     -0.2866
    177  N          1.9610   12.2060   22.1610 N.am  398  GLN398     -0.1979
    178  CA         0.8830   12.9040   21.5000 C.3   398  GLN398      0.1601
    179  C         -0.3590   12.0270   21.6040 C.2   398  GLN398      0.2287
    180  O         -0.2220   10.8040   21.7980 O.2   398  GLN398     -0.2864
    181  CB         1.2810   13.2090   20.0500 C.3   398  GLN398      0.0394
    182  CG         1.6250   11.9830   19.2220 C.3   398  GLN398      0.0908
    183  CD         2.0850   12.3300   17.8150 C.2   398  GLN398      0.2608
    184  OE1        1.6600   13.3310   17.2430 O.2   398  GLN398     -0.2717
    185  NE2        2.9500   11.4950   17.2530 N.am  398  GLN398     -0.0878
    186  N         -3.1250    9.4940   20.8680 N.3   400  ASP400     -0.1239
    187  CA        -3.5460    8.5360   19.8500 C.3   400  ASP400      0.1674
    188  C         -4.4000    9.2180   18.7740 C.2   400  ASP400      0.2266
    189  O         -5.3060   10.0150   19.0870 O.2   400  ASP400     -0.2867
    190  CB        -4.3410    7.3910   20.4700 C.3   400  ASP400      0.1410
    191  CG        -3.4570    6.3790   21.1320 C.2   400  ASP400      0.3668
    192  OD1       -2.2600    6.3400   20.7790 O.co2 400  ASP400     -0.2456
    193  OD2       -3.9640    5.6200   21.9850 O.co2 400  ASP400     -0.2456
@<TRIPOS>BOND
     1    95    94    1
     2    79    80    1
     3    80    81    1
     4    80    83    1
     5    94    91    1
     6    32    31    2
     7    31    30    1
     8    41    40    2
     9    90    81   am
    10    90    91    1
    11    81    82    2
    12    38    39    1
    13    83    84    1
    14    93    92    2
    15    91    92    1
    16    59    58    2
    17   184   183    2
    18   185   183   am
    19    74    73    2
    20    92    96   am
    21    40    39    1
    22    30    29    1
    23    30    33    1
    24    39    42    1
    25    58    57    1
    26    23    24    1
    27   183   182    1
    28    63    64    1
    29    84    86   ar
    30    84    85   ar
    31    99    98    2
    32    86    88   ar
    33    64    65    1
    34    64    67    1
    35    29    25   am
    36    96    97    1
    37    52    51    2
    38    42    43    1
    39    56    57    1
    40    73    72    1
    41    51    50    1
    42    33    34    1
    43    25    24    1
    44    25    26    2
    45    97    98    1
    46    65    71   am
    47    65    66    2
    48    49    50    1
    49    49    55    1
    50   188   189    2
    51   188   187    1
    52    24    27    1
    53    71    72    1
    54    98   100   am
    55    57    60    1
    56    67    68    1
    57    85    87   ar
    58    43    44    1
    59   112   110   ar
    60   112   113   ar
    61   182   181    1
    62    88    89   ar
    63   110   107   ar
    64    50    53    1
    65    55    54    1
    66    72    75    1
    67   187   190    1
    68   187   186    1
    69   181   178    1
    70    34    35    1
    71    44    45    1
    72    60    61    1
    73    60    62    1
    74   100   101    1
    75    27    28    1
    76    75    76    1
    77   113   111   ar
    78    87    89   ar
    79   104   101    1
    80   104   105    1
    81    68    70   am
    82    68    69    2
    83   190   191    1
    84    36    35    2
    85    54    53    1
    86   101   102    1
    87   107   105   ar
    88   107   109   ar
    89   192   191   ar
    90    35    37   am
    91   191   193   ar
    92   105   106   ar
    93   178   179    1
    94   178   177    1
    95    76    77    1
    96    45    46    2
    97   111   109   ar
    98   179   180    2
    99   122   120   ar
   100   122   124   ar
   101   109   108   ar
   102   120   119   ar
   103   102   114   am
   104   102   103    2
   105   125   124    1
   106   177   167   am
   107   114   115    1
   108   106   108   ar
   109   124   123   ar
   110    47    46    1
   111    77    78    1
   112    46    48    1
   113   167   168    2
   114   167   166    1
   115   119   118    1
   116   119   121   ar
   117   118   115    1
   118   123   121   ar
   119   166   165    1
   120   166   169    1
   121   115   116    1
   122   117   116    2
   123   116   126   am
   124   169   170    1
   125   172   170   ar
   126   172   174   ar
   127    22    21    1
   128   170   171   ar
   129   150   148   ar
   130   126   127    1
   131   141   140   ar
   132   174   175   ar
   133   142   140   ar
   134   149   148   ar
   135   148   147    1
   136   140   139    1
   137    21    18    1
   138   171   173   ar
   139   147   144    1
   140   127   128    1
   141   127   130    1
   142   175   173   ar
   143   175   176    1
   144   129   128    2
   145   138   139    1
   146   138   135    1
   147    18    19    1
   148    18    17    1
   149   144   145    1
   150   144   143    1
   151   137   136    2
   152   136   135    1
   153   130   131    1
   154   146   145    2
   155   135   134    1
   156    19    20    2
   157    16    14    1
   158   131   132    1
   159    15    14    1
   160   163   164   ar
   161   163   161   ar
   162    14    13    1
   163   164   162   ar
   164    13    10    1
   165   132   133    1
   166     8     7    1
   167   161   158   ar
   168     4     3    2
   169   162   160   ar
   170    10    11    1
   171    10     9    1
   172   158   160   ar
   173   158   156   ar
   174     7     6    1
   175   160   159   ar
   176     3     9   am
   177     3     2    1
   178    11    12    2
   179     5     2    1
   180     5     6    1
   181   156   155    1
   182   156   157   ar
   183   155   152    1
   184     2     1    1
   185   154   153    2
   186   159   157   ar
   187   153   152    1
   188   152   151    1
