@<TRIPOS>MOLECULE
tmp/3ufoB03.pdb
 157 153 0 0 0
SMALL
GASTEIGER

@<TRIPOS>ATOM
      1  N          7.1350    5.5550   53.6170 N.3   108  CYS108     -0.1235
      2  CA         6.9060    4.3660   54.4610 C.3   108  CYS108      0.1677
      3  C          5.8440    3.4730   53.9210 C.2   108  CYS108      0.2270
      4  O          4.6560    3.8500   53.8420 O.2   108  CYS108     -0.2867
      5  CB         6.5550    4.7230   55.9280 C.3   108  CYS108      0.0956
      6  SG         6.3380    3.2830   57.0720 S.3   108  CYS108     -0.0801
      7  N         20.2340    3.9120   64.3910 N.3   171  GLN171     -0.1245
      8  CA        19.2160    3.0120   64.9100 C.3   171  GLN171      0.1566
      9  C         19.7470    2.5100   66.2510 C.2   171  GLN171      0.2260
     10  O         20.9780    2.4050   66.4730 O.2   171  GLN171     -0.2867
     11  CB        18.9070    1.8240   63.9610 C.3   171  GLN171      0.0367
     12  CG        18.7160    2.1670   62.4510 C.3   171  GLN171      0.0905
     13  CD        18.6510    0.9010   61.5160 C.2   171  GLN171      0.2608
     14  OE1       18.3200   -0.2170   61.9480 O.2   171  GLN171     -0.2717
     15  NE2       18.9460    1.1010   60.2330 N.am  171  GLN171     -0.0878
     16  N         22.2470   -1.8200   65.8180 N.3   174  ARG174     -0.1245
     17  CA        22.9790   -1.7890   64.6090 C.3   174  ARG174      0.1563
     18  C         24.3720   -2.3860   64.8970 C.2   174  ARG174      0.2260
     19  O         24.8300   -2.3150   66.0240 O.2   174  ARG174     -0.2867
     20  CB        23.2300   -0.3200   64.2210 C.3   174  ARG174      0.0307
     21  CG        22.4080    0.1720   63.1030 C.3   174  ARG174      0.0489
     22  CD        23.1550    1.1790   62.3420 C.3   174  ARG174      0.2205
     23  NE        23.0190    0.8960   60.9300 N.pl3 174  ARG174     -0.0865
     24  CZ        23.0470    1.8250   59.9810 C.cat 174  ARG174      0.5346
     25  NH1       23.2350    3.1010   60.3060 N.pl3 174  ARG174      0.1354
     26  NH2       22.8760    1.4740   58.7050 N.pl3 174  ARG174      0.1354
     27  N         13.9000   -3.1870   64.0630 N.3   258  PRO258     -0.2168
     28  CA        14.4560   -2.0490   63.3660 C.3   258  PRO258      0.1057
     29  C         13.8280   -0.8480   64.0490 C.3   258  PRO258      0.1993
     30  O         12.5250   -0.7500   64.1870 O.3   258  PRO258     -0.2189
     31  CB        13.9520   -2.2350   61.9500 C.3   258  PRO258      0.0215
     32  CG        12.4860   -2.7850   62.1800 C.3   258  PRO258      0.0203
     33  CD        12.8110   -3.8380   63.3090 C.3   258  PRO258      0.0888
     34  N         14.3770    3.3030   64.3130 N.3   260  VAL260     -0.1245
     35  CA        15.0550    4.5380   63.8140 C.3   260  VAL260      0.1561
     36  C         15.2030    5.5300   64.9330 C.2   260  VAL260      0.2260
     37  O         14.2310    5.9150   65.5700 O.2   260  VAL260     -0.2867
     38  CB        14.3750    5.1600   62.5850 C.3   260  VAL260      0.0252
     39  CG1       14.9200    6.6030   62.3020 C.3   260  VAL260      0.0019
     40  CG2       14.5580    4.2200   61.3590 C.3   260  VAL260      0.0019
     41  N         15.7530   10.7720   63.7920 N.3   263  MET263     -0.1245
     42  CA        14.8200   11.6710   63.2000 C.3   263  MET263      0.1570
     43  C         14.2430   12.6420   64.2110 C.2   263  MET263      0.2261
     44  O         14.4090   12.4650   65.4270 O.2   263  MET263     -0.2867
     45  CB        13.7370   10.8750   62.4430 C.3   263  MET263      0.0387
     46  CG        14.3970   10.2010   61.1820 C.3   263  MET263      0.0595
     47  SD        13.2160    9.4470   60.0680 S.3   263  MET263     -0.1393
     48  CE        12.9760   10.8300   58.9620 C.3   263  MET263      0.0692
     49  N         11.7010    5.2540   67.0830 N.3   277  PHE277     -0.1227
     50  CA        10.5070    4.4570   66.8510 C.3   277  PHE277      0.1736
     51  C         10.9290    3.1510   66.1750 C.2   277  PHE277      0.2596
     52  O         12.0400    3.0220   65.6510 O.2   277  PHE277     -0.2718
     53  CB         9.5160    5.1980   65.9640 C.3   277  PHE277      0.0547
     54  CG        10.1380    5.8030   64.7050 C.ar  277  PHE277     -0.0202
     55  CD1       10.1710    5.0860   63.5040 C.ar  277  PHE277     -0.0042
     56  CD2       10.6150    7.1030   64.7110 C.ar  277  PHE277     -0.0042
     57  CE1       10.7420    5.6180   62.3440 C.ar  277  PHE277     -0.0003
     58  CE2       11.2360    7.6550   63.5440 C.ar  277  PHE277     -0.0003
     59  CZ        11.2570    6.8960   62.3520 C.ar  277  PHE277     -0.0000
     60  N         10.0320    2.1900   66.1710 N.am  278  SER278     -0.1938
     61  CA        10.4130    0.8830   65.6800 C.3   278  SER278      0.2055
     62  C          9.1710    0.1090   65.3020 C.2   278  SER278      0.2644
     63  O          8.0940    0.3980   65.8480 O.2   278  SER278     -0.2714
     64  CB        11.2700    0.1190   66.7060 C.3   278  SER278      0.2130
     65  OG        10.5930   -0.1630   67.9140 O.3   278  SER278     -0.2179
     66  N          9.2930   -0.8030   64.3290 N.am  279  GLY279     -0.1939
     67  CA         8.1400   -1.5980   63.8800 C.3   279  GLY279      0.2014
     68  C          8.5930   -3.0390   63.7110 C.2   279  GLY279      0.2639
     69  O          9.0650   -3.6490   64.6710 O.2   279  GLY279     -0.2714
     70  N          8.4530   -3.5870   62.5070 N.am  280  TRP280     -0.1959
     71  CA         9.1580   -4.8210   62.1270 C.3   280  TRP280      0.1771
     72  C          9.6440   -4.7660   60.6590 C.2   280  TRP280      0.2620
     73  O          9.0860   -4.0290   59.8450 O.2   280  TRP280     -0.2715
     74  CB         8.2680   -6.0250   62.3090 C.3   280  TRP280      0.0590
     75  CG         6.9120   -5.9080   61.6680 C.ar  280  TRP280      0.0006
     76  CD1        6.6010   -6.2070   60.3690 C.ar  280  TRP280      0.0946
     77  CD2        5.6990   -5.4760   62.2780 C.ar  280  TRP280      0.0152
     78  NE1        5.2770   -5.9840   60.1320 N.ar  280  TRP280     -0.2442
     79  CE2        4.6850   -5.5510   61.2900 C.ar  280  TRP280      0.0810
     80  CE3        5.3540   -5.0430   63.5630 C.ar  280  TRP280      0.0012
     81  CZ2        3.3410   -5.2280   61.5530 C.ar  280  TRP280      0.0191
     82  CZ3        4.0020   -4.7380   63.8320 C.ar  280  TRP280      0.0001
     83  CH2        3.0180   -4.8250   62.8210 C.ar  280  TRP280      0.0015
     84  N         10.6780   -5.5460   60.3370 N.am  281  TYR281     -0.1960
     85  CA        11.2680   -5.5270   59.0110 C.3   281  TYR281      0.1771
     86  C         10.3870   -6.0620   57.8660 C.2   281  TYR281      0.2619
     87  O          9.5990   -6.9850   58.0360 O.2   281  TYR281     -0.2715
     88  CB        12.5270   -6.3540   59.0410 C.3   281  TYR281      0.0574
     89  CG        13.7840   -5.6410   59.4680 C.ar  281  TYR281     -0.0198
     90  CD1       14.4580   -6.0220   60.6100 C.ar  281  TYR281     -0.0009
     91  CD2       14.3060   -4.6120   58.7110 C.ar  281  TYR281     -0.0009
     92  CE1       15.6560   -5.4010   60.9860 C.ar  281  TYR281      0.0417
     93  CE2       15.4860   -4.0020   59.0660 C.ar  281  TYR281      0.0417
     94  CZ        16.1550   -4.4090   60.1840 C.ar  281  TYR281      0.1957
     95  OH        17.2620   -3.7500   60.4890 O.3   281  TYR281     -0.2866
     96  N         10.5700   -5.4680   56.6850 N.am  282  MET282     -0.1977
     97  CA        10.2960   -6.1010   55.4040 C.3   282  MET282      0.1605
     98  C         11.6310   -6.7830   54.9950 C.2   282  MET282      0.2287
     99  O         12.7130   -6.1910   55.1000 O.2   282  MET282     -0.2864
    100  CB         9.9400   -5.0120   54.3960 C.3   282  MET282      0.0413
    101  CG         9.4590   -5.4960   52.9930 C.3   282  MET282      0.0598
    102  SD         8.6350   -4.1980   52.0000 S.3   282  MET282     -0.1393
    103  CE        10.0900   -3.1570   51.5390 C.3   282  MET282      0.0692
    104  N         14.8650   -5.2190   53.2460 N.3   285  GLU285     -0.1245
    105  CA        15.7110   -4.2140   53.9110 C.3   285  GLU285      0.1567
    106  C         16.9750   -4.8610   54.3900 C.2   285  GLU285      0.2260
    107  O         18.0400   -4.2350   54.2980 O.2   285  GLU285     -0.2867
    108  CB        15.0260   -3.5390   55.0890 C.3   285  GLU285      0.0388
    109  CG        13.6640   -2.8720   54.7360 C.3   285  GLU285      0.1160
    110  CD        12.9620   -2.4020   55.9720 C.2   285  GLU285      0.3649
    111  OE1       13.3700   -1.3480   56.5140 O.co2 285  GLU285     -0.2457
    112  OE2       11.9970   -3.0620   56.4120 O.co2 285  GLU285     -0.2457
    113  N         20.9620   -4.3330   53.3090 N.3   290  ASP290     -0.1239
    114  CA        21.9700   -4.6480   54.3400 C.3   290  ASP290      0.1674
    115  C         22.9910   -5.7050   53.9100 C.2   290  ASP290      0.2266
    116  O         24.1800   -5.5790   54.2390 O.2   290  ASP290     -0.2867
    117  CB        21.3350   -5.0290   55.6880 C.3   290  ASP290      0.1410
    118  CG        20.4100   -3.9340   56.2350 C.2   290  ASP290      0.3668
    119  OD1       20.5640   -2.7460   55.8580 O.co2 290  ASP290     -0.2456
    120  OD2       19.5190   -4.2490   57.0530 O.co2 290  ASP290     -0.2456
    121  N         27.7030   -2.1190   51.8230 N.3   296  ARG296     -0.1245
    122  CA        27.3140   -2.8080   53.0620 C.3   296  ARG296      0.1563
    123  C         28.0990   -4.1330   53.2340 C.2   296  ARG296      0.2260
    124  O         29.3260   -4.1910   52.9940 O.2   296  ARG296     -0.2867
    125  CB        25.7830   -3.0290   53.1040 C.3   296  ARG296      0.0307
    126  CG        24.8870   -1.7360   52.9540 C.3   296  ARG296      0.0489
    127  CD        25.0770   -0.6590   54.0970 C.3   296  ARG296      0.2205
    128  NE        24.8230   -1.2320   55.4390 N.pl3 296  ARG296     -0.0865
    129  CZ        23.6100   -1.3970   55.9870 C.cat 296  ARG296      0.5346
    130  NH1       22.5270   -1.0110   55.3310 N.pl3 296  ARG296      0.1354
    131  NH2       23.4840   -1.9290   57.2000 N.pl3 296  ARG296      0.1354
    132  N         10.7230    5.5410   46.9680 N.3   371  TRP371     -0.1241
    133  CA        10.9750    4.8240   48.2080 C.3   371  TRP371      0.1605
    134  C         10.0630    3.6650   48.4340 C.2   371  TRP371      0.2264
    135  O         10.5070    2.6640   48.9700 O.2   371  TRP371     -0.2867
    136  CB        10.9820    5.7900   49.4220 C.3   371  TRP371      0.0550
    137  CG        12.3350    6.5230   49.5940 C.ar  371  TRP371      0.0003
    138  CD1       12.9090    7.3950   48.7220 C.ar  371  TRP371      0.0946
    139  CD2       13.2140    6.4330   50.7070 C.ar  371  TRP371      0.0152
    140  NE1       14.0810    7.8530   49.2210 N.ar  371  TRP371     -0.2442
    141  CE2       14.2860    7.2870   50.4530 C.ar  371  TRP371      0.0810
    142  CE3       13.1730    5.7310   51.9250 C.ar  371  TRP371      0.0012
    143  CZ2       15.3470    7.4390   51.3500 C.ar  371  TRP371      0.0191
    144  CZ3       14.2080    5.8860   52.8140 C.ar  371  TRP371      0.0001
    145  CH2       15.2750    6.7420   52.5310 C.ar  371  TRP371      0.0015
    146  N         14.4200   14.7750   58.8170 N.3   399  TYR399     -0.1241
    147  CA        15.8470   14.5490   58.9720 C.3   399  TYR399      0.1605
    148  C         16.4470   15.6530   59.8030 C.2   399  TYR399      0.2264
    149  O         15.9280   16.7730   59.8100 O.2   399  TYR399     -0.2867
    150  CB        16.4980   14.5450   57.6070 C.3   399  TYR399      0.0534
    151  CG        16.2400   13.2720   56.8890 C.ar  399  TYR399     -0.0201
    152  CD1       15.1580   13.1390   56.0020 C.ar  399  TYR399     -0.0009
    153  CD2       17.0380   12.1810   57.1330 C.ar  399  TYR399     -0.0009
    154  CE1       14.9290   11.9340   55.3600 C.ar  399  TYR399      0.0417
    155  CE2       16.8170   11.0020   56.5140 C.ar  399  TYR399      0.0417
    156  CZ        15.7780   10.8770   55.6340 C.ar  399  TYR399      0.1957
    157  OH        15.6450    9.6600   55.0380 O.3   399  TYR399     -0.2866
@<TRIPOS>BOND
     1   132   133    1
     2   133   134    1
     3   133   136    1
     4   134   135    2
     5   138   140   ar
     6   138   137   ar
     7   140   141   ar
     8   136   137    1
     9   137   139   ar
    10   141   139   ar
    11   141   143   ar
    12   139   142   ar
    13   143   145   ar
    14   103   102    1
    15   121   122    1
    16   142   144   ar
    17   102   101    1
    18   145   144   ar
    19   126   125    1
    20   126   127    1
    21   101   100    1
    22   124   123    2
    23   122   125    1
    24   122   123    1
    25   104   105    1
    26   113   114    1
    27     1     2    1
    28     4     3    2
    29   115   116    2
    30   115   114    1
    31   105   106    1
    32   105   108    1
    33     3     2    1
    34   127   128    1
    35   107   106    2
    36   114   117    1
    37   100    97    1
    38     2     5    1
    39   109   108    1
    40   109   110    1
    41    98    99    2
    42    98    97    1
    43   157   156    1
    44   130   129    1
    45   154   156   ar
    46   154   152   ar
    47    97    96    1
    48   128   129    2
    49   156   155   ar
    50   117   118    1
    51   119   118   ar
    52     5     6    1
    53   110   112   ar
    54   110   111   ar
    55   129   131    1
    56   152   151   ar
    57   118   120   ar
    58   155   153   ar
    59    96    86   am
    60   151   153   ar
    61   151   150    1
    62   150   147    1
    63    86    87    2
    64    86    85    1
    65    26    24    1
    66    91    93   ar
    67    91    89   ar
    68   146   147    1
    69    48    47    1
    70   147   148    1
    71    85    88    1
    72    85    84    1
    73    88    89    1
    74    93    94   ar
    75    89    90   ar
    76   148   149    2
    77    73    72    2
    78    24    25    1
    79    24    23    2
    80    47    46    1
    81    78    76   ar
    82    78    79   ar
    83    94    95    1
    84    94    92   ar
    85    15    13   am
    86    84    72   am
    87    76    75   ar
    88    90    92   ar
    89    72    71    1
    90    23    22    1
    91    46    45    1
    92    79    81   ar
    93    79    77   ar
    94    40    38    1
    95    13    14    2
    96    13    12    1
    97    81    83   ar
    98    75    77   ar
    99    75    74    1
   100    31    32    1
   101    31    28    1
   102    71    74    1
   103    71    70    1
   104    32    33    1
   105    77    80   ar
   106    39    38    1
   107    22    21    1
   108    57    59   ar
   109    57    55   ar
   110    59    58   ar
   111    45    42    1
   112    12    11    1
   113    70    68   am
   114    38    35    1
   115    83    82   ar
   116    21    20    1
   117    42    41    1
   118    42    43    1
   119    33    27    1
   120    28    29    1
   121    28    27    1
   122    55    54   ar
   123    58    56   ar
   124    80    82   ar
   125    68    67    1
   126    68    69    2
   127    35    34    1
   128    35    36    1
   129    67    66    1
   130    11     8    1
   131    29    30    1
   132    43    44    2
   133    20    17    1
   134    66    62   am
   135     7     8    1
   136    17    18    1
   137    17    16    1
   138    54    56   ar
   139    54    53    1
   140    18    19    2
   141     8     9    1
   142    36    37    2
   143    62    61    1
   144    62    63    2
   145    52    51    2
   146    61    60    1
   147    61    64    1
   148    53    50    1
   149    60    51   am
   150    51    50    1
   151     9    10    2
   152    64    65    1
   153    50    49    1
