@<TRIPOS>MOLECULE
tmp/3ufrA02.pdb
 175 172 0 0 0
SMALL
GASTEIGER

@<TRIPOS>ATOM
      1  N          2.5870    8.9670   34.7040 N.3    38  MET38      -0.1230
      2  CA         2.9430    8.6680   33.2990 C.3    38  MET38       0.1702
      3  C          2.9160    9.8990   32.3580 C.2    38  MET38       0.2592
      4  O          3.8350   10.0670   31.5340 O.2    38  MET38      -0.2718
      5  CB         2.0190    7.6160   32.7070 C.3    38  MET38       0.0401
      6  CG         2.2580    6.1920   33.1300 C.3    38  MET38       0.0596
      7  SD         3.4680    5.2850   32.1450 S.3    38  MET38      -0.1393
      8  CE         3.4390    6.1900   30.5840 C.3    38  MET38       0.0692
      9  N          1.8590   10.7260   32.4670 N.am   39  LEU39      -0.1980
     10  CA         1.6920   11.9280   31.6410 C.3    39  LEU39       0.1596
     11  C          1.3180   13.1330   32.5290 C.2    39  LEU39       0.2287
     12  O          0.1380   13.3510   32.7860 O.2    39  LEU39      -0.2864
     13  CB         0.5700   11.7130   30.6130 C.3    39  LEU39       0.0297
     14  CG         0.1550   10.2990   30.1760 C.3    39  LEU39       0.0022
     15  CD1       -1.3660   10.1970   29.9680 C.3    39  LEU39       0.0001
     16  CD2        0.9010    9.8560   28.9330 C.3    39  LEU39       0.0001
     17  N         15.3290    7.4720   29.0670 N.3   106  CYS106     -0.1235
     18  CA        16.0410    6.4720   28.2750 C.3   106  CYS106      0.1677
     19  C         17.4320    6.1540   28.8150 C.2   106  CYS106      0.2270
     20  O         18.3100    7.0360   28.8390 O.2   106  CYS106     -0.2867
     21  CB        16.2440    6.9990   26.8400 C.3   106  CYS106      0.0956
     22  SG        17.1190    5.8510   25.6820 S.3   106  CYS106     -0.0801
     23  N          4.2600    0.7550   18.0670 N.3   169  GLN169     -0.1245
     24  CA         5.6210    0.3040   17.6870 C.3   169  GLN169      0.1566
     25  C          5.5360   -0.2680   16.2590 C.2   169  GLN169      0.2260
     26  O          4.4650   -0.6880   15.8360 O.2   169  GLN169     -0.2867
     27  CB         6.1420   -0.7540   18.6430 C.3   169  GLN169      0.0367
     28  CG         6.2750   -0.3300   20.0890 C.3   169  GLN169      0.0905
     29  CD         6.8490   -1.4620   20.9370 C.2   169  GLN169      0.2608
     30  OE1        7.8320   -2.1190   20.5450 O.2   169  GLN169     -0.2717
     31  NE2        6.2170   -1.7210   22.0820 N.am  169  GLN169     -0.0878
     32  N          4.6740   -5.1950   16.5470 N.3   172  ARG172     -0.1245
     33  CA         3.9980   -5.6720   17.7560 C.3   172  ARG172      0.1563
     34  C          3.0690   -6.8480   17.4320 C.2   172  ARG172      0.2260
     35  O          2.6470   -7.0070   16.2810 O.2   172  ARG172     -0.2867
     36  CB         3.1900   -4.5580   18.4040 C.3   172  ARG172      0.0307
     37  CG         3.9750   -3.6860   19.3410 C.3   172  ARG172      0.0489
     38  CD         3.0550   -3.0710   20.3540 C.3   172  ARG172      0.2205
     39  NE         3.6320   -3.1210   21.6830 N.pl3 172  ARG172     -0.0865
     40  CZ         3.0280   -2.6330   22.7660 C.cat 172  ARG172      0.5346
     41  NH1        1.8230   -2.0770   22.6690 N.pl3 172  ARG172      0.1354
     42  NH2        3.6290   -2.6900   23.9550 N.pl3 172  ARG172      0.1354
     43  N         13.1550   -3.1940   18.7680 N.3   256  PRO256     -0.2102
     44  CA        12.2810   -2.2560   19.4160 C.3   256  PRO256      0.1504
     45  C         12.1710   -0.9370   18.6280 C.2   256  PRO256      0.2576
     46  O         13.1640   -0.3130   18.3550 O.2   256  PRO256     -0.2718
     47  CB        12.9020   -2.0840   20.8020 C.3   256  PRO256      0.0282
     48  CG        14.3810   -2.3280   20.6050 C.3   256  PRO256      0.0208
     49  CD        14.5010   -3.2550   19.4020 C.3   256  PRO256      0.0893
     50  N         10.9520   -0.5040   18.3130 N.am  257  ALA257     -0.1966
     51  CA        10.7710    0.5940   17.3460 C.3   257  ALA257      0.1728
     52  C          9.5640    1.4480   17.6360 C.2   257  ALA257      0.2616
     53  O          8.4430    1.1190   17.1860 O.2   257  ALA257     -0.2715
     54  CB        10.6750    0.0410   15.9380 C.3   257  ALA257      0.0334
     55  N          9.7660    2.5310   18.3820 N.am  258  VAL258     -0.1977
     56  CA         8.6480    3.3250   18.8760 C.3   258  VAL258      0.1596
     57  C          8.1500    4.1760   17.7240 C.2   258  VAL258      0.2287
     58  O          8.9470    4.8150   17.0450 O.2   258  VAL258     -0.2864
     59  CB         9.1040    4.2190   20.1180 C.3   258  VAL258      0.0276
     60  CG1        8.0980    5.3890   20.3790 C.3   258  VAL258      0.0022
     61  CG2        9.2670    3.3370   21.3580 C.3   258  VAL258      0.0022
     62  N          4.9310    6.2090   17.8490 N.3   260  ASN260     -0.1225
     63  CA         3.7530    7.0130   18.1310 C.3   260  ASN260      0.1785
     64  C          4.0780    8.3470   18.7520 C.2   260  ASN260      0.2597
     65  O          3.1650    9.0730   19.1140 O.2   260  ASN260     -0.2718
     66  CB         2.7060    6.2530   18.9600 C.3   260  ASN260      0.1169
     67  CG         3.2400    5.8120   20.3310 C.2   260  ASN260      0.2627
     68  OD1        2.4640    5.3270   21.1330 O.2   260  ASN260     -0.2716
     69  ND2        4.5760    5.9740   20.6030 N.am  260  ASN260     -0.0877
     70  N          5.3570    8.6860   18.7540 N.am  261  MET261     -0.1979
     71  CA         5.8100    9.9350   19.3570 C.3   261  MET261      0.1605
     72  C          5.9990   11.0650   18.3620 C.2   261  MET261      0.2287
     73  O          6.0120   10.8580   17.1480 O.2   261  MET261     -0.2864
     74  CB         7.0630    9.7100   20.2000 C.3   261  MET261      0.0413
     75  CG         6.7090    8.9150   21.4830 C.3   261  MET261      0.0598
     76  SD         8.0580    8.5980   22.5890 S.3   261  MET261     -0.1393
     77  CE         8.0360    9.9920   23.7430 C.3   261  MET261      0.0692
     78  N         11.3060    5.4530   15.4400 N.3   275  PHE275     -0.1227
     79  CA        12.7110    5.2410   15.7540 C.3   275  PHE275      0.1736
     80  C         12.9170    3.9280   16.5080 C.2   275  PHE275      0.2596
     81  O         11.9620    3.3870   17.1280 O.2   275  PHE275     -0.2718
     82  CB        13.2130    6.3880   16.5810 C.3   275  PHE275      0.0547
     83  CG        12.4830    6.6070   17.9020 C.ar  275  PHE275     -0.0202
     84  CD1       12.7880    5.8350   19.0250 C.ar  275  PHE275     -0.0042
     85  CD2       11.6490    7.6810   18.0620 C.ar  275  PHE275     -0.0042
     86  CE1       12.1830    6.0970   20.2560 C.ar  275  PHE275     -0.0003
     87  CE2       11.0760    7.9560   19.2810 C.ar  275  PHE275     -0.0003
     88  CZ        11.3300    7.1670   20.3720 C.ar  275  PHE275     -0.0000
     89  N         14.1380    3.4100   16.4490 N.am  276  SER276     -0.1938
     90  CA        14.3980    2.0770   16.8860 C.3   276  SER276      0.2055
     91  C         15.8490    1.9890   17.3550 C.2   276  SER276      0.2644
     92  O         16.7030    2.7210   16.8710 O.2   276  SER276     -0.2714
     93  CB        14.1360    1.0880   15.7330 C.3   276  SER276      0.2130
     94  OG        15.1500    1.1250   14.7050 O.3   276  SER276     -0.2179
     95  N         16.1020    1.1010   18.3190 N.am  277  GLY277     -0.1939
     96  CA        17.4800    0.8170   18.7570 C.3   277  GLY277      0.2014
     97  C         17.6030   -0.6910   18.9130 C.2   277  GLY277      0.2639
     98  O         17.4900   -1.4270   17.9390 O.2   277  GLY277     -0.2714
     99  N         17.8200   -1.1300   20.1440 N.am  278  TRP278     -0.1959
    100  CA        17.8420   -2.5490   20.5130 C.3   278  TRP278      0.1771
    101  C         17.4550   -2.7210   21.9960 C.2   278  TRP278      0.2620
    102  O         17.5450   -1.7820   22.7990 O.2   278  TRP278     -0.2715
    103  CB        19.2250   -3.1450   20.2570 C.3   278  TRP278      0.0590
    104  CG        20.3540   -2.5300   21.0280 C.ar  278  TRP278      0.0006
    105  CD1       20.6630   -2.7440   22.3550 C.ar  278  TRP278      0.0946
    106  CD2       21.3550   -1.6400   20.5290 C.ar  278  TRP278      0.0152
    107  NE1       21.7770   -2.0320   22.7060 N.ar  278  TRP278     -0.2442
    108  CE2       22.2270   -1.3460   21.6050 C.ar  278  TRP278      0.0810
    109  CE3       21.6110   -1.0650   19.2740 C.ar  278  TRP278      0.0012
    110  CZ2       23.3450   -0.4970   21.4580 C.ar  278  TRP278      0.0191
    111  CZ3       22.7170   -0.2200   19.1340 C.ar  278  TRP278      0.0001
    112  CH2       23.5620    0.0480   20.2080 C.ar  278  TRP278      0.0015
    113  N         17.0510   -3.9360   22.3520 N.am  279  TYR279     -0.1960
    114  CA        16.3360   -4.1940   23.6130 C.3   279  TYR279      0.1771
    115  C         17.2680   -4.2720   24.8050 C.2   279  TYR279      0.2619
    116  O         18.4570   -4.6600   24.7060 O.2   279  TYR279     -0.2715
    117  CB        15.5420   -5.4980   23.5000 C.3   279  TYR279      0.0574
    118  CG        14.0690   -5.3490   23.1130 C.ar  279  TYR279     -0.0198
    119  CD1       13.5620   -5.9810   21.9740 C.ar  279  TYR279     -0.0009
    120  CD2       13.1910   -4.5940   23.8860 C.ar  279  TYR279     -0.0009
    121  CE1       12.2030   -5.8670   21.6050 C.ar  279  TYR279      0.0417
    122  CE2       11.7980   -4.4900   23.5460 C.ar  279  TYR279      0.0417
    123  CZ        11.3140   -5.1430   22.4070 C.ar  279  TYR279      0.1957
    124  OH         9.9440   -5.0580   22.0570 O.3   279  TYR279     -0.2866
    125  N         16.7480   -3.8530   25.9400 N.am  280  MET280     -0.1977
    126  CA        17.3890   -4.2190   27.1990 C.3   280  MET280      0.1605
    127  C         16.5720   -5.4370   27.5730 C.2   280  MET280      0.2287
    128  O         15.3600   -5.4330   27.3360 O.2   280  MET280     -0.2864
    129  CB        17.2650   -3.0790   28.2080 C.3   280  MET280      0.0413
    130  CG        17.6190   -3.4700   29.6320 C.3   280  MET280      0.0598
    131  SD        18.0010   -2.0550   30.6820 S.3   280  MET280     -0.1393
    132  CE        16.3960   -1.6670   31.2350 C.3   280  MET280      0.0692
    133  N         13.0850   -5.5340   29.2870 N.3   283  GLU283     -0.1245
    134  CA        11.9240   -4.9680   28.5980 C.3   283  GLU283      0.1567
    135  C         10.9660   -6.0700   28.1260 C.2   283  GLU283      0.2260
    136  O          9.7320   -5.9170   28.1930 O.2   283  GLU283     -0.2867
    137  CB        12.3550   -4.1010   27.4190 C.3   283  GLU283      0.0388
    138  CG        12.7700   -2.6880   27.7870 C.3   283  GLU283      0.1160
    139  CD        13.2430   -1.8500   26.5610 C.2   283  GLU283      0.3649
    140  OE1       12.4600   -0.9840   26.1170 O.co2 283  GLU283     -0.2457
    141  OE2       14.3720   -2.0300   26.0270 O.co2 283  GLU283     -0.2457
    142  N          7.0770   -7.3830   29.2280 N.3   288  ASP288     -0.1239
    143  CA         6.3530   -8.0960   28.1540 C.3   288  ASP288      0.1674
    144  C          5.8250   -9.4630   28.6550 C.2   288  ASP288      0.2266
    145  O          4.6490   -9.8010   28.4620 O.2   288  ASP288     -0.2867
    146  CB         7.2080   -8.1980   26.8550 C.3   288  ASP288      0.1410
    147  CG         7.4790   -6.8120   26.1950 C.2   288  ASP288      0.3668
    148  OD1        6.5800   -5.9530   26.2280 O.co2 288  ASP288     -0.2456
    149  OD2        8.5830   -6.5550   25.6350 O.co2 288  ASP288     -0.2456
    150  N         12.0770    5.7680   35.5820 N.3   369  TRP369     -0.1241
    151  CA        12.1600    4.9980   34.3410 C.3   369  TRP369      0.1605
    152  C         13.5400    4.4110   34.1390 C.2   369  TRP369      0.2264
    153  O         13.6450    3.3580   33.5270 O.2   369  TRP369     -0.2867
    154  CB        11.8160    5.8820   33.1440 C.3   369  TRP369      0.0550
    155  CG        10.3120    6.1370   33.1280 C.ar  369  TRP369      0.0003
    156  CD1        9.5640    6.7440   34.1000 C.ar  369  TRP369      0.0946
    157  CD2        9.4190    5.7720   32.0870 C.ar  369  TRP369      0.0152
    158  NE1        8.2150    6.7880   33.7120 N.ar  369  TRP369     -0.2442
    159  CE2        8.1100    6.1850   32.4820 C.ar  369  TRP369      0.0810
    160  CE3        9.5920    5.1530   30.8500 C.ar  369  TRP369      0.0012
    161  CZ2        6.9950    5.9850   31.6780 C.ar  369  TRP369      0.0191
    162  CZ3        8.4660    4.9400   30.0460 C.ar  369  TRP369      0.0001
    163  CH2        7.1930    5.3680   30.4620 C.ar  369  TRP369      0.0015
    164  N          4.7940   12.5860   23.8690 N.3   397  TYR397     -0.1241
    165  CA         3.6690   11.7400   23.5680 C.3   397  TYR397      0.1605
    166  C          2.6490   12.5680   22.8420 C.2   397  TYR397      0.2264
    167  O          2.6460   13.7890   22.9110 O.2   397  TYR397     -0.2867
    168  CB         2.9960   11.2100   24.8270 C.3   397  TYR397      0.0534
    169  CG         3.9240   10.4880   25.7430 C.ar  397  TYR397     -0.0201
    170  CD1        4.3530   11.0870   26.9470 C.ar  397  TYR397     -0.0009
    171  CD2        4.4010    9.2090   25.4280 C.ar  397  TYR397     -0.0009
    172  CE1        5.2350   10.4180   27.8270 C.ar  397  TYR397      0.0417
    173  CE2        5.3060    8.5310   26.3060 C.ar  397  TYR397      0.0417
    174  CZ         5.6910    9.1410   27.4930 C.ar  397  TYR397      0.1957
    175  OH         6.5320    8.4810   28.3430 O.3   397  TYR397     -0.2866
@<TRIPOS>BOND
     1    94    93    1
     2    78    79    1
     3    93    90    1
     4    79    80    1
     5    79    82    1
     6    26    25    2
     7    54    51    1
     8    25    24    1
     9    35    34    2
    10    89    80   am
    11    89    90    1
    12    80    81    2
    13    32    33    1
    14    82    83    1
    15    92    91    2
    16    90    91    1
    17    58    57    2
    18    73    72    2
    19    53    52    2
    20    51    52    1
    21    51    50    1
    22    91    95   am
    23    34    33    1
    24    52    55   am
    25    24    23    1
    26    24    27    1
    27    57    56    1
    28    33    36    1
    29    62    63    1
    30    83    85   ar
    31    83    84   ar
    32    98    97    2
    33    85    87   ar
    34    63    64    1
    35    63    66    1
    36    50    45   am
    37    95    96    1
    38    46    45    2
    39    72    71    1
    40    55    56    1
    41    36    37    1
    42    45    44    1
    43    27    28    1
    44    64    70   am
    45    64    65    2
    46    70    71    1
    47    96    97    1
    48    43    49    1
    49    43    44    1
    50    56    59    1
    51    97    99   am
    52    66    67    1
    53    84    86   ar
    54   111   109   ar
    55   111   112   ar
    56   109   106   ar
    57    87    88   ar
    58    37    38    1
    59    71    74    1
    60    49    48    1
    61    44    47    1
    62    28    29    1
    63    59    60    1
    64    59    61    1
    65    99   100    1
    66    74    75    1
    67   112   110   ar
    68    86    88   ar
    69   103   100    1
    70   103   104    1
    71    67    69   am
    72    67    68    2
    73    38    39    1
    74   100   101    1
    75   106   104   ar
    76   106   108   ar
    77    30    29    2
    78    48    47    1
    79    29    31   am
    80   104   105   ar
    81   110   108   ar
    82    75    76    1
    83   108   107   ar
    84   121   119   ar
    85   121   123   ar
    86    39    40    2
    87   119   118   ar
    88   101   113   am
    89   101   102    2
    90   124   123    1
    91   113   114    1
    92   105   107   ar
    93   123   122   ar
    94    76    77    1
    95    41    40    1
    96    40    42    1
    97   166   167    2
    98   166   165    1
    99   118   117    1
   100   118   120   ar
   101   117   114    1
   102   122   120   ar
   103   165   164    1
   104   165   168    1
   105   114   115    1
   106   116   115    2
   107   115   125   am
   108   168   169    1
   109   171   169   ar
   110   171   173   ar
   111   149   147   ar
   112    22    21    1
   113   169   170   ar
   114   125   126    1
   115   141   139   ar
   116   140   139   ar
   117   147   148   ar
   118   147   146    1
   119   173   174   ar
   120   139   138    1
   121    21    18    1
   122   146   143    1
   123   170   172   ar
   124   126   127    1
   125   126   129    1
   126   128   127    2
   127   137   138    1
   128   137   134    1
   129   174   172   ar
   130   174   175    1
   131   135   136    2
   132   135   134    1
   133   143   144    1
   134   143   142    1
   135   129   130    1
   136    18    19    1
   137    18    17    1
   138   145   144    2
   139   134   133    1
   140    19    20    2
   141    16    14    1
   142   130   131    1
   143    15    14    1
   144   162   163   ar
   145   162   160   ar
   146    14    13    1
   147   163   161   ar
   148     8     7    1
   149    13    10    1
   150   131   132    1
   151   160   157   ar
   152     4     3    2
   153    10     9    1
   154    10    11    1
   155   161   159   ar
   156   157   159   ar
   157   157   155   ar
   158     7     6    1
   159     3     9   am
   160     3     2    1
   161   159   158   ar
   162    11    12    2
   163     5     6    1
   164     5     2    1
   165   155   154    1
   166   155   156   ar
   167   154   151    1
   168     2     1    1
   169   153   152    2
   170   158   156   ar
   171   152   151    1
   172   151   150    1
