@<TRIPOS>MOLECULE
tmp/3uftB03.pdb
 195 190 0 0 0
SMALL
GASTEIGER

@<TRIPOS>ATOM
      1  N         17.9180   12.5220   47.4440 N.3    38  MET38      -0.1230
      2  CA        17.7210   11.9970   48.7980 C.3    38  MET38       0.1702
      3  C         17.2720   13.0930   49.8200 C.2    38  MET38       0.2592
      4  O         16.2770   12.9070   50.5550 O.2    38  MET38      -0.2718
      5  CB        18.9700   11.2540   49.2530 C.3    38  MET38       0.0401
      6  CG        18.7860   10.3370   50.4030 C.3    38  MET38       0.0596
      7  SD        18.7450    8.5790   49.9370 S.3    38  MET38      -0.1393
      8  CE        20.3950    8.3460   49.3840 C.3    38  MET38       0.0692
      9  N         17.9520   14.2480   49.7810 N.am   39  LEU39      -0.1980
     10  CA        17.6540   15.4400   50.6220 C.3    39  LEU39       0.1596
     11  C         17.3290   16.6820   49.7760 C.2    39  LEU39       0.2287
     12  O         18.2320   17.4690   49.4900 O.2    39  LEU39      -0.2864
     13  CB        18.9050   15.7740   51.4730 C.3    39  LEU39       0.0297
     14  CG        19.3710   14.6760   52.4330 C.3    39  LEU39       0.0022
     15  CD1       20.7460   14.9570   52.9560 C.3    39  LEU39       0.0001
     16  CD2       18.3290   14.5290   53.5610 C.3    39  LEU39       0.0001
     17  N          7.4040    8.1250   52.2800 N.3   107  ARG107     -0.1231
     18  CA         8.2980    7.0800   51.9300 C.3   107  ARG107      0.1694
     19  C          8.0970    5.6890   52.6100 C.2   107  ARG107      0.2592
     20  O          8.8640    4.7610   52.3040 O.2   107  ARG107     -0.2718
     21  CB         9.7930    7.5020   52.1610 C.3   107  ARG107      0.0321
     22  CG        10.2230    8.7280   51.3340 C.3   107  ARG107      0.0489
     23  CD        11.4470    9.4310   51.8450 C.3   107  ARG107      0.2205
     24  NE        12.0870   10.2640   50.8230 N.pl3 107  ARG107     -0.0865
     25  CZ        13.2400   10.9390   50.9950 C.cat 107  ARG107      0.5346
     26  NH1       13.8440   10.9410   52.1540 N.pl3 107  ARG107      0.1354
     27  NH2       13.7840   11.6570   50.0210 N.pl3 107  ARG107      0.1354
     28  N          7.1460    5.5760   53.5360 N.am  108  CYS108     -0.1970
     29  CA         6.8660    4.3120   54.2700 C.3   108  CYS108      0.1712
     30  C          5.8120    3.4190   53.6510 C.2   108  CYS108      0.2296
     31  O          4.6250    3.7520   53.5130 O.2   108  CYS108     -0.2864
     32  CB         6.5120    4.5770   55.7490 C.3   108  CYS108      0.0983
     33  SG         6.3030    3.1340   56.8010 S.3   108  CYS108     -0.0798
     34  N         20.2570    3.7330   64.0940 N.3   171  GLN171     -0.1196
     35  CA        19.1120    2.8840   64.4950 C.3   171  GLN171      0.1782
     36  C         19.5160    2.3720   65.8730 C.2   171  GLN171      0.2306
     37  O         20.7350    2.3440   66.1770 O.2   171  GLN171     -0.2863
     38  CB        18.8710    1.6860   63.5320 C.2   171  GLN171      0.0051
     39  CG        18.7790    2.0630   62.0170 C.2   171  GLN171      0.0584
     40  CD        18.6780    0.8760   61.0030 C.2   171  GLN171      0.2840
     41  OE1       18.2790   -0.2890   61.3110 O.2   171  GLN171     -0.2667
     42  NE2       18.9710    1.2150   59.7500 N.am  171  GLN171     -0.0837
     43  N         22.3510   -1.8320   65.5500 N.3   174  ARG174     -0.1245
     44  CA        23.0620   -1.8830   64.3160 C.3   174  ARG174      0.1563
     45  C         24.3970   -2.5260   64.6110 C.2   174  ARG174      0.2260
     46  O         24.8390   -2.4770   65.7510 O.2   174  ARG174     -0.2867
     47  CB        23.3680   -0.4620   63.8270 C.3   174  ARG174      0.0307
     48  CG        22.2980    0.1320   62.9690 C.3   174  ARG174      0.0489
     49  CD        22.9010    1.2290   62.1530 C.3   174  ARG174      0.2205
     50  NE        22.9970    0.8790   60.7420 N.pl3 174  ARG174     -0.0865
     51  CZ        23.1560    1.7600   59.7510 C.cat 174  ARG174      0.5346
     52  NH1       23.2730    3.0680   59.9780 N.pl3 174  ARG174      0.1354
     53  NH2       23.2170    1.3290   58.5120 N.pl3 174  ARG174      0.1354
     54  N         13.8170   -3.4540   63.5780 N.3   258  PRO258     -0.2116
     55  CA        14.2230   -2.2620   62.8660 C.3   258  PRO258      0.1372
     56  C         13.7590   -1.0300   63.6730 C.2   258  PRO258      0.2244
     57  O         12.5260   -0.8420   63.9810 O.2   258  PRO258     -0.2868
     58  CB        13.5090   -2.3970   61.5090 C.3   258  PRO258      0.0268
     59  CG        12.2460   -3.1000   61.8330 C.3   258  PRO258      0.0207
     60  CD        12.6390   -4.0760   62.9760 C.3   258  PRO258      0.0892
     61  N         14.4630    3.0960   63.9410 N.3   260  VAL260     -0.1245
     62  CA        15.0510    4.3930   63.5010 C.3   260  VAL260      0.1561
     63  C         15.1450    5.3730   64.6350 C.2   260  VAL260      0.2260
     64  O         14.1450    5.6730   65.2640 O.2   260  VAL260     -0.2867
     65  CB        14.4030    4.9730   62.2500 C.3   260  VAL260      0.0252
     66  CG1       14.9720    6.4600   61.8570 C.3   260  VAL260      0.0019
     67  CG2       14.6080    3.9550   61.0870 C.3   260  VAL260      0.0019
     68  N         17.3410    8.4310   64.3790 N.3   262  ASN262     -0.1225
     69  CA        17.9510    9.6940   64.0230 C.3   262  ASN262      0.1785
     70  C         17.0010   10.7090   63.4250 C.2   262  ASN262      0.2597
     71  O         17.4490   11.6980   62.8950 O.2   262  ASN262     -0.2718
     72  CB        19.1610    9.4850   63.0960 C.3   262  ASN262      0.1169
     73  CG        18.7980    8.7850   61.7930 C.2   262  ASN262      0.2627
     74  OD1       17.6010    8.4330   61.4850 O.2   262  ASN262     -0.2716
     75  ND2       19.8250    8.5300   61.0220 N.am  262  ASN262     -0.0877
     76  N         15.6910   10.5070   63.5110 N.am  263  MET263     -0.1979
     77  CA        14.8470   11.4570   62.8600 C.3   263  MET263      0.1605
     78  C         14.1380   12.4490   63.7990 C.2   263  MET263      0.2287
     79  O         14.2120   12.3100   65.0110 O.2   263  MET263     -0.2864
     80  CB        13.8980   10.7550   61.8910 C.3   263  MET263      0.0413
     81  CG        14.6650   10.2220   60.5810 C.3   263  MET263      0.0598
     82  SD        13.3370    9.3750   59.7760 S.3   263  MET263     -0.1393
     83  CE        12.8840   10.6350   58.5300 C.3   263  MET263      0.0692
     84  N         11.7320    5.0810   66.7390 N.3   277  PHE277     -0.1227
     85  CA        10.4630    4.3280   66.5020 C.3   277  PHE277      0.1736
     86  C         10.9460    3.0150   65.8710 C.2   277  PHE277      0.2596
     87  O         12.0780    2.8830   65.4300 O.2   277  PHE277     -0.2718
     88  CB         9.5170    5.0630   65.6070 C.3   277  PHE277      0.0547
     89  CG        10.0930    5.4160   64.2290 C.ar  277  PHE277     -0.0202
     90  CD1       10.0470    4.5030   63.1590 C.ar  277  PHE277     -0.0042
     91  CD2       10.5730    6.6910   63.9770 C.ar  277  PHE277     -0.0042
     92  CE1       10.5610    4.8570   61.9140 C.ar  277  PHE277     -0.0003
     93  CE2       11.0370    7.0370   62.7280 C.ar  277  PHE277     -0.0003
     94  CZ        11.0080    6.1350   61.6970 C.ar  277  PHE277     -0.0000
     95  N         10.0530    2.0590   65.8390 N.am  278  SER278     -0.1938
     96  CA        10.4000    0.7500   65.3770 C.3   278  SER278      0.2055
     97  C          9.1740    0.1010   64.8780 C.2   278  SER278      0.2644
     98  O          8.0680    0.3960   65.3890 O.2   278  SER278     -0.2714
     99  CB        11.0750   -0.0990   66.4780 C.3   278  SER278      0.2130
    100  OG        10.3020   -0.2840   67.6090 O.3   278  SER278     -0.2179
    101  N          9.3340   -0.7360   63.8460 N.am  279  GLY279     -0.1939
    102  CA         8.1720   -1.5460   63.3490 C.3   279  GLY279      0.2014
    103  C          8.6300   -3.0050   63.2140 C.2   279  GLY279      0.2639
    104  O          9.1020   -3.5910   64.1910 O.2   279  GLY279     -0.2714
    105  N          8.5350   -3.5760   62.0190 N.am  280  TRP280     -0.1959
    106  CA         9.1630   -4.8740   61.7180 C.3   280  TRP280      0.1771
    107  C          9.6930   -4.9050   60.2940 C.2   280  TRP280      0.2620
    108  O          9.3110   -4.0760   59.5050 O.2   280  TRP280     -0.2715
    109  CB         8.2170   -6.0340   61.9380 C.3   280  TRP280      0.0590
    110  CG         6.9240   -5.8830   61.2710 C.ar  280  TRP280      0.0006
    111  CD1        6.6350   -6.1500   59.9590 C.ar  280  TRP280      0.0946
    112  CD2        5.7350   -5.4560   61.8660 C.ar  280  TRP280      0.0152
    113  NE1        5.3120   -5.9330   59.7130 N.ar  280  TRP280     -0.2442
    114  CE2        4.7260   -5.5210   60.8770 C.ar  280  TRP280      0.0810
    115  CE3        5.3860   -5.0660   63.1590 C.ar  280  TRP280      0.0012
    116  CZ2        3.4170   -5.1590   61.1320 C.ar  280  TRP280      0.0191
    117  CZ3        4.0620   -4.7240   63.4110 C.ar  280  TRP280      0.0001
    118  CH2        3.1010   -4.7730   62.4020 C.ar  280  TRP280      0.0015
    119  N         10.6070   -5.8330   59.9790 N.am  281  TYR281     -0.1960
    120  CA        11.2900   -5.7310   58.6800 C.3   281  TYR281      0.1771
    121  C         10.3730   -6.2060   57.5520 C.2   281  TYR281      0.2619
    122  O          9.5950   -7.1650   57.6960 O.2   281  TYR281     -0.2715
    123  CB        12.5710   -6.5340   58.6240 C.3   281  TYR281      0.0574
    124  CG        13.8080   -5.8090   59.1260 C.ar  281  TYR281     -0.0198
    125  CD1       14.4050   -6.1360   60.3340 C.ar  281  TYR281     -0.0009
    126  CD2       14.4070   -4.8430   58.3590 C.ar  281  TYR281     -0.0009
    127  CE1       15.5440   -5.5030   60.7550 C.ar  281  TYR281      0.0417
    128  CE2       15.5780   -4.2130   58.7770 C.ar  281  TYR281      0.0417
    129  CZ        16.1140   -4.5420   59.9660 C.ar  281  TYR281      0.1957
    130  OH        17.2550   -3.8990   60.2870 O.3   281  TYR281     -0.2866
    131  N         10.5200   -5.5060   56.4240 N.am  282  MET282     -0.1977
    132  CA        10.2760   -6.0640   55.1080 C.3   282  MET282      0.1605
    133  C         11.5620   -6.7900   54.7160 C.2   282  MET282      0.2287
    134  O         12.6400   -6.2570   54.8690 O.2   282  MET282     -0.2864
    135  CB         9.9680   -4.9640   54.0910 C.3   282  MET282      0.0413
    136  CG         9.3380   -5.5510   52.7840 C.3   282  MET282      0.0598
    137  SD         8.5560   -4.3750   51.6620 S.3   282  MET282     -0.1393
    138  CE         9.9950   -3.4060   51.1080 C.3   282  MET282      0.0692
    139  N         14.8260   -5.2800   52.8920 N.3   285  GLU285     -0.1245
    140  CA        15.7430   -4.3910   53.6030 C.3   285  GLU285      0.1567
    141  C         17.0270   -5.1070   54.0500 C.2   285  GLU285      0.2260
    142  O         18.1390   -4.5410   53.8980 O.2   285  GLU285     -0.2867
    143  CB        15.0450   -3.8560   54.8300 C.3   285  GLU285      0.0388
    144  CG        15.6230   -2.5810   55.2940 C.3   285  GLU285      0.1160
    145  CD        15.2870   -1.4960   54.3230 C.2   285  GLU285      0.3649
    146  OE1       14.1490   -1.5460   53.7840 O.co2 285  GLU285     -0.2457
    147  OE2       16.1560   -0.6370   54.0580 O.co2 285  GLU285     -0.2457
    148  N         19.2480   -4.7740   50.5580 N.3   289  ARG289     -0.1245
    149  CA        20.0310   -3.6090   50.9730 C.3   289  ARG289      0.1563
    150  C         21.2410   -3.9360   51.8870 C.2   289  ARG289      0.2260
    151  O         22.3980   -3.7110   51.4930 O.2   289  ARG289     -0.2867
    152  CB        19.1250   -2.5220   51.5430 C.3   289  ARG289      0.0307
    153  CG        17.9040   -2.1600   50.6160 C.3   289  ARG289      0.0489
    154  CD        18.3290   -1.7610   49.1560 C.3   289  ARG289      0.2205
    155  NE        19.3600   -0.7010   49.1500 N.pl3 289  ARG289     -0.0865
    156  CZ        19.1040    0.5770   49.4130 C.cat 289  ARG289      0.5346
    157  NH1       17.8060    1.0320   49.6140 N.pl3 289  ARG289      0.1354
    158  NH2       20.1160    1.4120   49.4310 N.pl3 289  ARG289      0.1354
    159  N         27.6060   -2.0420   51.4530 N.3   296  ARG296     -0.1245
    160  CA        27.2620   -2.7640   52.7030 C.3   296  ARG296      0.1563
    161  C         27.9680   -4.1500   52.8550 C.2   296  ARG296      0.2260
    162  O         29.1900   -4.2510   52.6670 O.2   296  ARG296     -0.2867
    163  CB        25.7400   -2.8780   52.8280 C.3   296  ARG296      0.0307
    164  CG        25.0130   -1.5230   52.8350 C.3   296  ARG296      0.0489
    165  CD        25.2820   -0.6320   54.0710 C.3   296  ARG296      0.2205
    166  NE        24.8650   -1.1960   55.3710 N.pl3 296  ARG296     -0.0865
    167  CZ        23.5890   -1.4540   55.6970 C.cat 296  ARG296      0.5346
    168  NH1       22.6400   -1.2360   54.8140 N.pl3 296  ARG296      0.1354
    169  NH2       23.2540   -1.9250   56.8940 N.pl3 296  ARG296      0.1354
    170  N         10.7770    5.4890   46.7770 N.3   371  TRP371     -0.1241
    171  CA        11.0840    4.7000   47.9720 C.3   371  TRP371      0.1605
    172  C         10.1990    3.5430   48.2160 C.2   371  TRP371      0.2264
    173  O         10.6480    2.5660   48.7940 O.2   371  TRP371     -0.2867
    174  CB        11.1340    5.5740   49.2660 C.3   371  TRP371      0.0550
    175  CG        12.3160    6.4780   49.3600 C.ar  371  TRP371      0.0003
    176  CD1       12.8050    7.3370   48.4000 C.ar  371  TRP371      0.0946
    177  CD2       13.1640    6.5860   50.4810 C.ar  371  TRP371      0.0152
    178  NE1       13.9490    7.9420   48.8660 N.ar  371  TRP371     -0.2442
    179  CE2       14.1730    7.5000   50.1550 C.ar  371  TRP371      0.0810
    180  CE3       13.1940    5.9420   51.7460 C.ar  371  TRP371      0.0012
    181  CZ2       15.1850    7.8600   51.0790 C.ar  371  TRP371      0.0191
    182  CZ3       14.2050    6.2770   52.6680 C.ar  371  TRP371      0.0001
    183  CH2       15.1890    7.2480   52.3150 C.ar  371  TRP371      0.0015
    184  N         14.4960   14.1840   58.2420 N.3   399  TYR399     -0.1241
    185  CA        15.9130   13.7860   58.3810 C.3   399  TYR399      0.1605
    186  C         16.5130   14.9170   59.2050 C.2   399  TYR399      0.2264
    187  O         16.0480   16.0460   59.1220 O.2   399  TYR399     -0.2867
    188  CB        16.5940   13.5770   57.0080 C.3   399  TYR399      0.0534
    189  CG        18.1340   13.3960   57.0970 C.ar  399  TYR399     -0.0201
    190  CD1       18.7370   12.1340   57.3800 C.ar  399  TYR399     -0.0009
    191  CD2       18.9810   14.4890   56.9490 C.ar  399  TYR399     -0.0009
    192  CE1       20.2150   11.9920   57.4690 C.ar  399  TYR399      0.0417
    193  CE2       20.4440   14.3540   57.0430 C.ar  399  TYR399      0.0417
    194  CZ        21.0140   13.1120   57.3180 C.ar  399  TYR399      0.1957
    195  OH        22.4210   13.0450   57.3900 O.3   399  TYR399     -0.2866
@<TRIPOS>BOND
     1   170   171    1
     2     1     2    1
     3   171   172    1
     4   171   174    1
     5   172   173    2
     6   176   178   ar
     7   176   175   ar
     8     2     5    1
     9     2     3    1
    10   178   179   ar
    11   155   154    1
    12   155   156    2
    13   154   153    1
    14     5     6    1
    15   174   175    1
    16   175   177   ar
    17     8     7    1
    18   156   158    1
    19   156   157    1
    20    12    11    2
    21    11    10    1
    22     9     3   am
    23     9    10    1
    24     3     4    2
    25     7     6    1
    26    27    25    1
    27   179   177   ar
    28   179   181   ar
    29   177   180   ar
    30   148   149    1
    31   153   152    1
    32    10    13    1
    33    24    25    2
    34    24    23    1
    35   149   152    1
    36   149   150    1
    37    25    26    1
    38   181   183   ar
    39   138   137    1
    40    22    23    1
    41    22    21    1
    42   159   160    1
    43    13    14    1
    44   151   150    2
    45   137   136    1
    46   180   182   ar
    47    18    21    1
    48    18    17    1
    49    18    19    1
    50    20    19    2
    51   183   182   ar
    52    14    15    1
    53    14    16    1
    54    19    28   am
    55   162   161    2
    56   160   163    1
    57   160   161    1
    58   136   135    1
    59   163   164    1
    60   164   165    1
    61   139   140    1
    62    31    30    2
    63    28    29    1
    64   140   141    1
    65   140   143    1
    66    30    29    1
    67   146   145   ar
    68   142   141    2
    69   147   145   ar
    70   165   166    1
    71   135   132    1
    72    29    32    1
    73   145   144    1
    74   133   134    2
    75   133   132    1
    76   168   167    1
    77   143   144    1
    78   132   131    1
    79   166   167    2
    80   167   169    1
    81    32    33    1
    82   131   121   am
    83   191   193   ar
    84   191   189   ar
    85   188   189    1
    86   188   185    1
    87   193   194   ar
    88   189   190   ar
    89   194   195    1
    90   194   192   ar
    91   190   192   ar
    92   121   122    2
    93   121   120    1
    94   184   185    1
    95   126   128   ar
    96   126   124   ar
    97   185   186    1
    98    53    51    1
    99    83    82    1
   100   123   120    1
   101   123   124    1
   102   120   119    1
   103   128   129   ar
   104   187   186    2
   105   124   125   ar
   106   108   107    2
   107   113   111   ar
   108   113   114   ar
   109    42    40   am
   110    51    52    1
   111    51    50    2
   112    82    81    1
   113   111   110   ar
   114   129   130    1
   115   129   127   ar
   116   119   107   am
   117   107   106    1
   118   125   127   ar
   119    81    80    1
   120    50    49    1
   121   114   116   ar
   122   114   112   ar
   123    40    41    2
   124    40    39    1
   125    75    73   am
   126    67    65    1
   127   116   118   ar
   128   110   112   ar
   129   110   109    1
   130    74    73    2
   131    58    59    1
   132    58    55    1
   133    94    92   ar
   134    94    93   ar
   135   106   109    1
   136   106   105    1
   137    73    72    1
   138    59    60    1
   139    66    65    1
   140   112   115   ar
   141    80    77    1
   142    92    90   ar
   143    39    38    2
   144   105   103   am
   145    49    48    1
   146    65    62    1
   147   118   117   ar
   148    93    91   ar
   149    77    76    1
   150    77    78    1
   151    55    54    1
   152    55    56    1
   153    71    70    2
   154    48    47    1
   155    60    54    1
   156    72    69    1
   157    90    89   ar
   158   115   117   ar
   159   103   102    1
   160   103   104    2
   161   102   101    1
   162    70    76   am
   163    70    69    1
   164    62    61    1
   165    62    63    1
   166    38    35    1
   167    56    57    2
   168    78    79    2
   169    47    44    1
   170   101    97   am
   171    91    89   ar
   172    69    68    1
   173    34    35    1
   174    89    88    1
   175    44    45    1
   176    44    43    1
   177    35    36    1
   178    45    46    2
   179    63    64    2
   180    97    96    1
   181    97    98    2
   182    96    95    1
   183    96    99    1
   184    87    86    2
   185    88    85    1
   186    95    86   am
   187    86    85    1
   188    36    37    2
   189    99   100    1
   190    85    84    1
