@<TRIPOS>MOLECULE
tmp/3ufxB00.pdb
 146 137 0 0 0
SMALL
GASTEIGER

@<TRIPOS>ATOM
      1  N         36.4410   -0.8960   94.1350 N.3    20  PRO20      -0.2116
      2  CA        36.7130    0.4310   93.5720 C.3    20  PRO20       0.1372
      3  C         37.4280    0.2770   92.2580 C.2    20  PRO20       0.2244
      4  O         38.3000   -0.5830   92.1500 O.2    20  PRO20      -0.2868
      5  CB        37.6750    1.0630   94.5800 C.3    20  PRO20       0.0268
      6  CG        37.5740    0.2230   95.8100 C.3    20  PRO20       0.0207
      7  CD        37.2580   -1.1540   95.3270 C.3    20  PRO20       0.0892
      8  N         43.8970    6.5840   95.3380 N.3    43  VAL43      -0.1245
      9  CA        44.8520    6.0590   96.3010 C.3    43  VAL43       0.1561
     10  C         45.9600    5.4200   95.4810 C.2    43  VAL43       0.2260
     11  O         45.6930    4.8270   94.4490 O.2    43  VAL43      -0.2867
     12  CB        44.2140    4.9770   97.1740 C.3    43  VAL43       0.0252
     13  CG1       44.9390    4.8710   98.4880 C.3    43  VAL43       0.0019
     14  CG2       42.7390    5.2850   97.3950 C.3    43  VAL43       0.0019
     15  N         48.6310    2.5350   95.8050 N.3    45  LYS45      -0.1245
     16  CA        48.9350    1.4060   96.6860 C.3    45  LYS45       0.1561
     17  C         50.0580    0.4970   96.1640 C.2    45  LYS45       0.2260
     18  O         49.9650   -0.0750   95.0750 O.2    45  LYS45      -0.2867
     19  CB        47.6640    0.5990   96.9600 C.3    45  LYS45       0.0271
     20  CG        46.4180    1.4650   97.0560 C.3    45  LYS45       0.0035
     21  CD        45.1780    0.6290   97.3130 C.3    45  LYS45       0.0206
     22  CE        45.2330    0.0150   98.7010 C.3    45  LYS45       0.1093
     23  NZ        43.9890   -0.7300   98.9710 N.3    45  LYS45      -0.1314
     24  N         53.2410   -8.5750  101.0320 N.3    50  VAL50      -0.1231
     25  CA        53.1650   -8.5470  102.4950 C.3    50  VAL50       0.1692
     26  C         51.9960   -7.6770  102.9050 C.2    50  VAL50       0.2593
     27  O         51.3660   -7.0160  102.0690 O.2    50  VAL50      -0.2718
     28  CB        54.4320   -7.9970  103.1740 C.3    50  VAL50       0.0266
     29  CG1       55.5280   -9.0430  103.1920 C.3    50  VAL50       0.0020
     30  CG2       54.8980   -6.7300  102.4840 C.3    50  VAL50       0.0020
     31  N         51.6970   -7.6950  104.1960 N.am   51  GLY51      -0.1942
     32  CA        50.6610   -6.8420  104.7400 C.3    51  GLY51       0.2014
     33  C         51.3220   -5.6870  105.4620 C.2    51  GLY51       0.2639
     34  O         52.5540   -5.6400  105.5560 O.2    51  GLY51      -0.2714
     35  N         50.5120   -4.7640  105.9800 N.am   52  GLY52      -0.1939
     36  CA        51.0390   -3.6020  106.6750 C.3    52  GLY52       0.2014
     37  C         51.6330   -2.5870  105.7140 C.2    52  GLY52       0.2639
     38  O         52.4590   -1.7620  106.0970 O.2    52  GLY52      -0.2714
     39  N         51.2120   -2.6490  104.4580 N.am   53  ARG53      -0.1963
     40  CA        51.6900   -1.7120  103.4570 C.3    53  ARG53       0.1729
     41  C         51.4080   -0.2870  103.9100 C.2    53  ARG53       0.2616
     42  O         52.2180    0.6100  103.6880 O.2    53  ARG53      -0.2715
     43  CB        51.0220   -1.9950  102.1130 C.3    53  ARG53       0.0348
     44  CG        51.3910   -3.3380  101.5010 C.3    53  ARG53       0.0492
     45  CD        50.5340   -3.6170  100.2760 C.3    53  ARG53       0.2205
     46  NE        49.1090   -3.5810  100.5950 N.pl3  53  ARG53      -0.0865
     47  CZ        48.1490   -3.5170   99.6830 C.cat  53  ARG53       0.5346
     48  NH1       48.4680   -3.4740   98.4020 N.pl3  53  ARG53       0.1354
     49  NH2       46.8770   -3.4850  100.0460 N.pl3  53  ARG53       0.1354
     50  N         50.2650   -0.0930  104.5700 N.am   54  GLY54      -0.1955
     51  CA        49.8380    1.2140  105.0570 C.3    54  GLY54       0.1869
     52  C         50.7640    1.8240  106.1010 C.2    54  GLY54       0.2309
     53  O         51.2410    2.9550  105.9450 O.2    54  GLY54      -0.2863
     54  N         50.8400    3.2180  101.0020 N.3    59  VAL59      -0.1245
     55  CA        49.4660    3.5340  100.6270 C.3    59  VAL59       0.1561
     56  C         49.2260    5.0080  100.8790 C.2    59  VAL59       0.2260
     57  O         49.1230    5.4320  102.0270 O.2    59  VAL59      -0.2867
     58  CB        48.4520    2.7350  101.4430 C.3    59  VAL59       0.0252
     59  CG1       47.0490    3.2430  101.1700 C.3    59  VAL59       0.0019
     60  CG2       48.5570    1.2600  101.1310 C.3    59  VAL59       0.0019
     61  N         47.1550    8.6820   99.6510 N.3    61  LEU61      -0.1245
     62  CA        46.0920    9.3910   98.9620 C.3    61  LEU61       0.1561
     63  C         46.6670   10.4270   97.9910 C.2    61  LEU61       0.2260
     64  O         47.7720   10.9320   98.1940 O.2    61  LEU61      -0.2867
     65  CB        45.1920   10.0570   99.9950 C.3    61  LEU61       0.0270
     66  CG        44.5760    8.9560  100.8500 C.3    61  LEU61       0.0019
     67  CD1       45.1560    8.9720  102.2590 C.3    61  LEU61       0.0001
     68  CD2       43.0660    9.0510  100.8560 C.3    61  LEU61       0.0001
     69  N         40.3170    4.6110   92.6480 N.3    92  GLU92      -0.1231
     70  CA        39.4410    5.6420   93.1690 C.3    92  GLU92       0.1699
     71  C         39.3430    5.5000   94.6790 C.2    92  GLU92       0.2592
     72  O         39.1470    4.4140   95.1950 O.2    92  GLU92      -0.2718
     73  CB        38.0550    5.5640   92.5340 C.3    92  GLU92       0.0402
     74  CG        38.0370    5.9520   91.0680 C.3    92  GLU92       0.1161
     75  CD        36.6270    5.9740   90.4810 C.2    92  GLU92       0.3649
     76  OE1       35.6420    5.7300   91.2370 O.co2  92  GLU92      -0.2457
     77  OE2       36.5190    6.2380   89.2570 O.co2  92  GLU92      -0.2457
     78  N         39.4850    6.6130   95.3820 N.am   93  ALA93      -0.1966
     79  CA        39.3980    6.6100   96.8320 C.3    93  ALA93       0.1728
     80  C         37.9380    6.4980   97.2350 C.2    93  ALA93       0.2616
     81  O         37.0690    7.1020   96.6120 O.2    93  ALA93      -0.2715
     82  CB        40.0200    7.8800   97.3990 C.3    93  ALA93       0.0334
     83  N         37.6530    5.7080   98.2590 N.am   94  VAL94      -0.1963
     84  CA        36.2890    5.6150   98.7360 C.3    94  VAL94       0.1727
     85  C         36.2150    6.4190  100.0170 C.2    94  VAL94       0.2616
     86  O         37.1920    6.4930  100.7720 O.2    94  VAL94      -0.2715
     87  CB        35.8400    4.1440   98.9830 C.3    94  VAL94       0.0290
     88  CG1       35.8380    3.3530   97.6780 C.3    94  VAL94       0.0023
     89  CG2       36.7110    3.4700  100.0280 C.3    94  VAL94       0.0023
     90  N         35.0700    7.0560  100.2480 N.am   95  ASP95      -0.1957
     91  CA        34.8400    7.7400  101.5150 C.3    95  ASP95       0.1840
     92  C         34.3030    6.7480  102.5400 C.2    95  ASP95       0.2621
     93  O         33.1930    6.2380  102.4110 O.2    95  ASP95      -0.2715
     94  CB        33.8770    8.9120  101.3300 C.3    95  ASP95       0.1450
     95  CG        34.4130    9.9480  100.3650 C.2    95  ASP95       0.3671
     96  OD1       35.3440   10.6810  100.7610 O.co2  95  ASP95      -0.2456
     97  OD2       33.9110   10.0280   99.2170 O.co2  95  ASP95      -0.2456
     98  N         35.0930    6.4840  103.5670 N.am   96  ILE96      -0.1977
     99  CA        34.8030    5.3920  104.4800 C.3    96  ILE96       0.1596
    100  C         33.9920    5.7920  105.7180 C.2    96  ILE96       0.2287
    101  O         34.3800    6.7030  106.4340 O.2    96  ILE96      -0.2864
    102  CB        36.1220    4.7520  104.9390 C.3    96  ILE96       0.0276
    103  CG1       36.8630    4.1520  103.7350 C.3    96  ILE96       0.0022
    104  CG2       35.8820    3.7240  106.0600 C.3    96  ILE96       0.0022
    105  CD1       38.2100    3.5620  104.0760 C.3    96  ILE96       0.0001
    106  N         34.6010    0.2050  108.7590 N.3    99  GLU99      -0.1245
    107  CA        35.6030   -0.7740  108.3330 C.3    99  GLU99       0.1567
    108  C         35.3850   -2.1100  109.0210 C.2    99  GLU99       0.2260
    109  O         35.5450   -2.2230  110.2340 O.2    99  GLU99      -0.2867
    110  CB        37.0200   -0.2850  108.6210 C.3    99  GLU99       0.0388
    111  CG        37.4590    0.9140  107.7870 C.3    99  GLU99       0.1160
    112  CD        38.9150    1.2720  108.0280 C.2    99  GLU99       0.3649
    113  OE1       39.3160    1.3870  109.2050 O.co2  99  GLU99      -0.2457
    114  OE2       39.6670    1.4220  107.0420 O.co2  99  GLU99      -0.2457
    115  N         40.1390   -3.1280  109.2860 N.3   122  GLY122     -0.1225
    116  CA        41.2210   -2.1920  109.0430 C.3   122  GLY122      0.1811
    117  C         42.4130   -2.4340  109.9440 C.2   122  GLY122      0.2280
    118  O         43.3800   -1.6680  109.9350 O.2   122  GLY122     -0.2866
    119  N         39.7450   -6.9130  103.7950 N.3   190  ASN190     -0.1226
    120  CA        40.0780   -6.1070  104.9590 C.3   190  ASN190      0.1770
    121  C         40.7010   -4.7800  104.5730 C.2   190  ASN190      0.2439
    122  O         41.8770   -4.7340  104.2350 O.2   190  ASN190     -0.2733
    123  CB        41.0290   -6.8680  105.8880 C.3   190  ASN190      0.1168
    124  CG        41.2000   -6.1710  107.2360 C.2   190  ASN190      0.2627
    125  OD1       40.3770   -5.3410  107.6270 O.2   190  ASN190     -0.2716
    126  ND2       42.2640   -6.5030  107.9470 N.am  190  ASN190     -0.0877
    127  N         39.9360   -3.6840  104.6690 N.am  191  PRO191     -0.2729
    128  CA        38.5930   -3.6260  105.2590 C.3   191  PRO191      0.1401
    129  C         37.4660   -3.8210  104.2630 C.2   191  PRO191      0.2269
    130  O         37.5280   -3.2900  103.1490 O.2   191  PRO191     -0.2865
    131  CB        38.5280   -2.1900  105.7880 C.3   191  PRO191      0.0296
    132  CG        39.3670   -1.3980  104.8080 C.3   191  PRO191      0.0237
    133  CD        40.4430   -2.3420  104.3070 C.3   191  PRO191      0.0939
    134  N         37.5140   -2.5920   99.9290 N.3   203  ALA203     -0.1231
    135  CA        38.5270   -1.5580   99.7490 C.3   203  ALA203      0.1694
    136  C         39.9130   -2.1820   99.5950 C.2   203  ALA203      0.2592
    137  O         40.7900   -1.6250   98.9400 O.2   203  ALA203     -0.2718
    138  CB        38.4950   -0.5720  100.9060 C.3   203  ALA203      0.0304
    139  N         40.1000   -3.3430  100.2120 N.am  204  ASP204     -0.1974
    140  CA        41.3200   -4.1230  100.0350 C.3   204  ASP204      0.1709
    141  C         40.9340   -5.5790   99.8990 C.2   204  ASP204      0.2293
    142  O         39.8600   -5.9690  100.3350 O.2   204  ASP204     -0.2864
    143  CB        42.2720   -3.9480  101.2170 C.3   204  ASP204      0.1436
    144  CG        43.6580   -4.5660  100.9610 C.2   204  ASP204      0.3671
    145  OD1       43.9900   -4.8560   99.7860 O.co2 204  ASP204     -0.2456
    146  OD2       44.4270   -4.7580  101.9370 O.co2 204  ASP204     -0.2456
@<TRIPOS>BOND
     1    77    75   ar
     2    75    74    1
     3    75    76   ar
     4    74    73    1
     5     4     3    2
     6     3     2    1
     7    73    70    1
     8    69    70    1
     9    70    71    1
    10     2     1    1
    11     2     5    1
    12     1     7    1
    13    11    10    2
    14     5     6    1
    15    71    72    2
    16    71    78   am
    17    18    17    2
    18     7     6    1
    19     8     9    1
    20    78    79    1
    21    10     9    1
    22    15    16    1
    23    17    16    1
    24     9    12    1
    25    81    80    2
    26    16    19    1
    27    79    80    1
    28    79    82    1
    29    19    20    1
    30    20    21    1
    31    12    14    1
    32    12    13    1
    33    80    83   am
    34    21    22    1
    35    88    87    1
    36    63    64    2
    37    63    62    1
    38    83    84    1
    39    48    47    1
    40    22    23    1
    41    84    87    1
    42    84    85    1
    43   137   136    2
    44    62    61    1
    45    62    65    1
    46    87    89    1
    47    97    95   ar
    48   136   135    1
    49   136   139   am
    50    47    49    1
    51    47    46    2
    52   135   134    1
    53   135   138    1
    54   145   144   ar
    55   141   140    1
    56   141   142    2
    57    65    66    1
    58    85    90   am
    59    85    86    2
    60   140   139    1
    61   140   143    1
    62    90    91    1
    63    45    46    1
    64    45    44    1
    65    95    96   ar
    66    95    94    1
    67    55    56    1
    68    55    54    1
    69    55    58    1
    70    66    68    1
    71    66    67    1
    72    56    57    2
    73   144   143    1
    74   144   146   ar
    75    24    25    1
    76    60    58    1
    77    59    58    1
    78    94    91    1
    79    44    43    1
    80    91    92    1
    81    27    26    2
    82    43    40    1
    83    93    92    2
    84    30    28    1
    85    25    26    1
    86    25    28    1
    87    92    98   am
    88    26    31   am
    89   130   129    2
    90    28    29    1
    91    40    41    1
    92    40    39    1
    93    98    99    1
    94    42    41    2
    95   103   105    1
    96   103   102    1
    97   119   120    1
    98    41    50   am
    99    31    32    1
   100   122   121    2
   101   129   128    1
   102   133   127    1
   103   133   132    1
   104    39    37   am
   105    99   102    1
   106    99   100    1
   107    50    51    1
   108   121   127   am
   109   121   120    1
   110   127   128    1
   111    32    33    1
   112   132   131    1
   113   102   104    1
   114   120   123    1
   115    51    52    1
   116   128   131    1
   117    33    34    2
   118    33    35   am
   119    37    38    2
   120    37    36    1
   121   100   101    2
   122   123   124    1
   123    53    52    2
   124    35    36    1
   125   114   112   ar
   126   124   125    2
   127   124   126   am
   128   111   112    1
   129   111   110    1
   130   112   113   ar
   131   107   110    1
   132   107   106    1
   133   107   108    1
   134   108   109    2
   135   116   115    1
   136   116   117    1
   137   118   117    2
