@<TRIPOS>MOLECULE
tmp/3ug4C04.pdb
 99 98 0 0 0
SMALL
GASTEIGER

@<TRIPOS>ATOM
      1  N         51.1880   -2.7370   54.6150 N.3   213  ASP213     -0.1239
      2  CA        51.2460   -3.9430   53.7810 C.3   213  ASP213      0.1674
      3  C         52.3240   -4.0120   52.7030 C.2   213  ASP213      0.2266
      4  O         52.5460   -5.0660   52.1150 O.2   213  ASP213     -0.2867
      5  CB        49.8710   -4.2350   53.1760 C.3   213  ASP213      0.1410
      6  CG        48.9690   -4.8500   54.1880 C.2   213  ASP213      0.3668
      7  OD1       49.3960   -5.8590   54.7910 O.co2 213  ASP213     -0.2456
      8  OD2       47.8930   -4.3050   54.4420 O.co2 213  ASP213     -0.2456
      9  N         51.0410   -1.6110   62.6070 N.3   234  TYR234     -0.1227
     10  CA        50.2670   -2.2280   61.5630 C.3   234  TYR234      0.1736
     11  C         48.8150   -1.8480   61.8050 C.2   234  TYR234      0.2595
     12  O         48.3860   -1.8180   62.9790 O.2   234  TYR234     -0.2718
     13  CB        50.4630   -3.7830   61.6460 C.3   234  TYR234      0.0548
     14  CG        49.8610   -4.4890   60.4510 C.ar  234  TYR234     -0.0200
     15  CD1       50.5210   -4.4850   59.2210 C.ar  234  TYR234     -0.0009
     16  CD2       48.6060   -5.1330   60.5420 C.ar  234  TYR234     -0.0009
     17  CE1       49.9450   -5.0670   58.1120 C.ar  234  TYR234      0.0417
     18  CE2       48.0130   -5.7080   59.4310 C.ar  234  TYR234      0.0417
     19  CZ        48.6930   -5.6710   58.2270 C.ar  234  TYR234      0.1957
     20  OH        48.1540   -6.2790   57.1330 O.3   234  TYR234     -0.2866
     21  N         48.0750   -1.5390   60.7370 N.am  235  HIS235     -0.1961
     22  CA        46.6600   -1.2300   60.8170 C.3   235  HIS235      0.1787
     23  C         45.8500   -2.2460   60.0640 C.2   235  HIS235      0.2620
     24  O         46.2520   -2.6340   58.9910 O.2   235  HIS235     -0.2715
     25  CB        46.3210    0.1690   60.2560 C.3   235  HIS235      0.0785
     26  CG        46.9560    1.2820   61.0180 C.ar  235  HIS235      0.0821
     27  ND1       46.9070    2.5980   60.6090 N.ar  235  HIS235     -0.2267
     28  CD2       47.6720    1.2700   62.1690 C.ar  235  HIS235      0.1154
     29  CE1       47.5730    3.3520   61.4700 C.ar  235  HIS235      0.1986
     30  NE2       48.0260    2.5740   62.4410 N.ar  235  HIS235     -0.2212
     31  N         44.7240   -2.7010   60.6390 N.am  236  PHE236     -0.1960
     32  CA        43.9440   -3.7710   60.0310 C.3   236  PHE236      0.1771
     33  C         42.4710   -3.4880   60.1300 C.2   236  PHE236      0.2619
     34  O         41.9290   -3.3940   61.2220 O.2   236  PHE236     -0.2715
     35  CB        44.2440   -5.1210   60.6820 C.3   236  PHE236      0.0574
     36  CG        43.5850   -6.2840   60.0220 C.ar  236  PHE236     -0.0200
     37  CD1       44.1120   -6.8230   58.8440 C.ar  236  PHE236     -0.0042
     38  CD2       42.4660   -6.8810   60.5890 C.ar  236  PHE236     -0.0042
     39  CE1       43.4880   -7.9260   58.2080 C.ar  236  PHE236     -0.0003
     40  CE2       41.8280   -7.9870   59.9830 C.ar  236  PHE236     -0.0003
     41  CZ        42.3230   -8.5080   58.7900 C.ar  236  PHE236     -0.0000
     42  N         41.8280   -3.3160   58.9900 N.am  237  TYR237     -0.1974
     43  CA        40.3990   -3.0440   58.9710 C.3   237  TYR237      0.1639
     44  C         39.7720   -4.0760   58.0600 C.2   237  TYR237      0.2290
     45  O         40.4010   -4.4820   57.0910 O.2   237  TYR237     -0.2864
     46  CB        40.1230   -1.6350   58.4670 C.3   237  TYR237      0.0560
     47  CG        40.5250   -0.5150   59.3840 C.ar  237  TYR237     -0.0198
     48  CD1       39.7620   -0.1940   60.5060 C.ar  237  TYR237     -0.0009
     49  CD2       41.6810    0.2360   59.1280 C.ar  237  TYR237     -0.0009
     50  CE1       40.0830    0.8570   61.3130 C.ar  237  TYR237      0.0417
     51  CE2       42.0120    1.3040   59.9290 C.ar  237  TYR237      0.0417
     52  CZ        41.2260    1.6130   61.0210 C.ar  237  TYR237      0.1957
     53  OH        41.5800    2.6720   61.8300 O.3   237  TYR237     -0.2866
     54  N         49.0520  -11.9190   58.4900 N.3   256  ARG256     -0.1245
     55  CA        49.6590  -10.5840   58.3200 C.3   256  ARG256      0.1563
     56  C         50.6850  -10.2590   59.4180 C.2   256  ARG256      0.2260
     57  O         51.8110   -9.7710   59.1340 O.2   256  ARG256     -0.2867
     58  CB        48.5830   -9.5250   58.2550 C.3   256  ARG256      0.0307
     59  CG        47.5620   -9.7850   57.0910 C.3   256  ARG256      0.0489
     60  CD        48.0840   -9.2890   55.7410 C.3   256  ARG256      0.2205
     61  NE        47.0350   -9.3440   54.7050 N.pl3 256  ARG256     -0.0865
     62  CZ        46.0640   -8.4360   54.5700 C.cat 256  ARG256      0.5346
     63  NH1       45.9980   -7.3840   55.3840 N.pl3 256  ARG256      0.1354
     64  NH2       45.1650   -8.5560   53.5910 N.pl3 256  ARG256      0.1354
     65  N         36.6300   -7.7600   51.9370 N.3   377  MET377     -0.1230
     66  CA        36.7790   -7.0990   53.2260 C.3   377  MET377      0.1702
     67  C         36.9140   -5.5890   52.9840 C.2   377  MET377      0.2592
     68  O         37.3570   -5.1770   51.8910 O.2   377  MET377     -0.2718
     69  CB        38.0390   -7.6300   53.9410 C.3   377  MET377      0.0401
     70  CG        39.2720   -7.4900   53.1160 C.3   377  MET377      0.0596
     71  SD        40.8250   -8.1440   53.8080 S.3   377  MET377     -0.1393
     72  CE        40.9670   -7.2810   55.3850 C.3   377  MET377      0.0692
     73  N         36.5530   -4.7920   53.9950 N.am  378  PHE378     -0.1976
     74  CA        36.8190   -3.3540   54.0270 C.3   378  PHE378      0.1639
     75  C         35.9210   -2.5840   53.0520 C.2   378  PHE378      0.2290
     76  O         35.1990   -3.1940   52.2850 O.2   378  PHE378     -0.2864
     77  CB        38.3250   -3.0710   53.7870 C.3   378  PHE378      0.0560
     78  CG        38.7190   -1.6430   54.0090 C.ar  378  PHE378     -0.0200
     79  CD1       38.4190   -1.0040   55.2090 C.ar  378  PHE378     -0.0042
     80  CD2       39.4670   -0.9560   53.0380 C.ar  378  PHE378     -0.0042
     81  CE1       38.7830    0.3320   55.4230 C.ar  378  PHE378     -0.0003
     82  CE2       39.8620    0.3630   53.2420 C.ar  378  PHE378     -0.0003
     83  CZ        39.5250    1.0050   54.4590 C.ar  378  PHE378     -0.0000
     84  N         36.3390   -1.0650   50.3320 N.3   380  ASN380     -0.1240
     85  CA        36.5160   -1.2310   48.8940 C.3   380  ASN380      0.1653
     86  C         36.3160   -2.6570   48.4050 C.2   380  ASN380      0.2266
     87  O         36.6340   -2.9730   47.2610 O.2   380  ASN380     -0.2867
     88  CB        37.9080   -0.7340   48.4650 C.3   380  ASN380      0.1155
     89  CG        39.0230   -1.5420   49.0860 C.2   380  ASN380      0.2627
     90  OD1       38.7950   -2.3870   49.9580 O.2   380  ASN380     -0.2716
     91  ND2       40.2420   -1.2910   48.6420 N.am  380  ASN380     -0.0877
     92  N         37.9140   -5.5320   48.8960 N.3   382  MET382     -0.1245
     93  CA        39.0780   -6.2440   48.4300 C.3   382  MET382      0.1570
     94  C         38.9510   -7.7440   48.7030 C.2   382  MET382      0.2261
     95  O         38.5780   -8.1350   49.8120 O.2   382  MET382     -0.2867
     96  CB        40.2980   -5.6900   49.1380 C.3   382  MET382      0.0387
     97  CG        41.6020   -6.3100   48.7430 C.3   382  MET382      0.0595
     98  SD        42.0050   -6.0040   47.0140 S.3   382  MET382     -0.1393
     99  CE        41.9120   -4.1980   46.8240 C.3   382  MET382      0.0692
@<TRIPOS>BOND
     1    99    98    1
     2    98    97    1
     3    87    86    2
     4    86    85    1
     5    93    94    1
     6    93    92    1
     7    93    96    1
     8    88    85    1
     9    88    89    1
    10    91    89   am
    11    94    95    2
    12    97    96    1
    13    85    84    1
    14    89    90    2
    15    68    67    2
    16    65    66    1
    17     4     3    2
    18    76    75    2
    19     3     2    1
    20    67    66    1
    21    67    73   am
    22    80    82   ar
    23    80    78   ar
    24    75    74    1
    25    70    71    1
    26    70    69    1
    27     5     2    1
    28     5     6    1
    29    66    69    1
    30    82    83   ar
    31    64    62    1
    32     2     1    1
    33    77    78    1
    34    77    74    1
    35    71    72    1
    36    73    74    1
    37    78    79   ar
    38     6     8   ar
    39     6     7   ar
    40    83    81   ar
    41    62    61    2
    42    62    63    1
    43    61    60    1
    44    79    81   ar
    45    60    59    1
    46    45    44    2
    47    59    58    1
    48    20    19    1
    49    44    43    1
    50    17    19   ar
    51    17    15   ar
    52    39    41   ar
    53    39    37   ar
    54    19    18   ar
    55    58    55    1
    56    55    54    1
    57    55    56    1
    58    46    43    1
    59    46    47    1
    60    41    40   ar
    61    37    36   ar
    62    43    42    1
    63    42    33   am
    64    24    23    2
    65    49    47   ar
    66    49    51   ar
    67    57    56    2
    68    15    14   ar
    69    47    48   ar
    70    18    16   ar
    71    51    52   ar
    72    40    38   ar
    73    36    38   ar
    74    36    35    1
    75    32    33    1
    76    32    31    1
    77    32    35    1
    78    23    31   am
    79    23    22    1
    80    33    34    2
    81    25    22    1
    82    25    26    1
    83    14    16   ar
    84    14    13    1
    85    48    50   ar
    86    27    26   ar
    87    27    29   ar
    88    21    22    1
    89    21    11   am
    90    26    28   ar
    91    52    50   ar
    92    52    53    1
    93    29    30   ar
    94    10    13    1
    95    10    11    1
    96    10     9    1
    97    11    12    2
    98    28    30   ar
