@<TRIPOS>MOLECULE
tmp/3ug4C03.pdb
 104 103 0 0 0
SMALL
GASTEIGER

@<TRIPOS>ATOM
      1  N         44.5640   10.1160   60.5910 N.3    71  ASN71      -0.1240
      2  CA        44.7340   11.1300   59.5220 C.3    71  ASN71       0.1653
      3  C         44.7350   12.5600   60.0360 C.2    71  ASN71       0.2266
      4  O         45.4630   13.4400   59.5420 O.2    71  ASN71      -0.2867
      5  CB        43.5910   10.9410   58.4670 C.3    71  ASN71       0.1155
      6  CG        43.7110    9.6180   57.7270 C.2    71  ASN71       0.2627
      7  OD1       44.7500    8.9420   57.8290 O.2    71  ASN71      -0.2716
      8  ND2       42.6400    9.2210   56.9860 N.am   71  ASN71      -0.0877
      9  N         50.3480    6.6900   59.0260 N.3   172  GLU172     -0.1245
     10  CA        49.9880    6.2800   57.6620 C.3   172  GLU172      0.1567
     11  C         50.6920    7.1280   56.5940 C.2   172  GLU172      0.2260
     12  O         50.0840    7.5250   55.6200 O.2   172  GLU172     -0.2867
     13  CB        48.4360    6.2570   57.4960 C.3   172  GLU172      0.0388
     14  CG        47.7930    5.1390   58.3300 C.3   172  GLU172      0.1160
     15  CD        46.3850    4.7570   57.8360 C.2   172  GLU172      0.3649
     16  OE1       45.7930    5.5180   57.0560 O.co2 172  GLU172     -0.2457
     17  OE2       45.8630    3.7110   58.2410 O.co2 172  GLU172     -0.2457
     18  N         52.7070    6.4930   54.3050 N.3   174  TYR174     -0.1241
     19  CA        52.7900    5.9280   52.9750 C.3   174  TYR174      0.1605
     20  C         51.5230    6.2820   52.1690 C.2   174  TYR174      0.2264
     21  O         51.5440    6.2140   50.9550 O.2   174  TYR174     -0.2867
     22  CB        52.8770    4.3920   53.0710 C.3   174  TYR174      0.0534
     23  CG        51.7370    3.8350   53.8860 C.ar  174  TYR174     -0.0201
     24  CD1       50.5010    3.5620   53.2860 C.ar  174  TYR174     -0.0009
     25  CD2       51.8830    3.6050   55.2680 C.ar  174  TYR174     -0.0009
     26  CE1       49.4490    3.0850   54.0400 C.ar  174  TYR174      0.0417
     27  CE2       50.8260    3.1060   56.0500 C.ar  174  TYR174      0.0417
     28  CZ        49.5980    2.8830   55.4200 C.ar  174  TYR174      0.1957
     29  OH        48.5320    2.3820   56.1280 O.3   174  TYR174     -0.2866
     30  N         46.3300    9.5730   50.8770 N.3   177  TRP177     -0.1241
     31  CA        45.3450   10.3710   51.5620 C.3   177  TRP177      0.1605
     32  C         45.9470   11.1470   52.7520 C.2   177  TRP177      0.2264
     33  O         45.2800   11.9830   53.3230 O.2   177  TRP177     -0.2867
     34  CB        44.2480    9.4500   52.0790 C.3   177  TRP177      0.0550
     35  CG        44.7660    8.3140   52.9700 C.ar  177  TRP177      0.0003
     36  CD1       44.9140    8.3450   54.3420 C.ar  177  TRP177      0.0946
     37  CD2       45.2080    7.0080   52.5490 C.ar  177  TRP177      0.0152
     38  NE1       45.3690    7.1370   54.7940 N.ar  177  TRP177     -0.2442
     39  CE2       45.5790    6.3000   53.7220 C.ar  177  TRP177      0.0810
     40  CE3       45.3010    6.3600   51.3000 C.ar  177  TRP177      0.0012
     41  CZ2       46.0550    4.9810   53.6840 C.ar  177  TRP177      0.0191
     42  CZ3       45.7740    5.0510   51.2540 C.ar  177  TRP177      0.0001
     43  CH2       46.1430    4.3670   52.4400 C.ar  177  TRP177      0.0015
     44  N         53.0910   -0.9370   57.1150 N.3   212  CYS212     -0.1221
     45  CA        51.8930   -1.2030   56.3270 C.3   212  CYS212      0.1808
     46  C         52.0200   -2.5460   55.6250 C.2   212  CYS212      0.2601
     47  O         52.8760   -3.3920   55.9820 O.2   212  CYS212     -0.2717
     48  CB        51.6490   -0.0830   55.3010 C.3   212  CYS212      0.0970
     49  SG        52.9600    0.1140   54.0050 S.3   212  CYS212     -0.0800
     50  N         51.1880   -2.7370   54.6150 N.am  213  ASP213     -0.1973
     51  CA        51.2460   -3.9430   53.7810 C.3   213  ASP213      0.1709
     52  C         52.3240   -4.0120   52.7030 C.2   213  ASP213      0.2293
     53  O         52.5460   -5.0660   52.1150 O.2   213  ASP213     -0.2864
     54  CB        49.8710   -4.2350   53.1760 C.3   213  ASP213      0.1436
     55  CG        48.9690   -4.8500   54.1880 C.2   213  ASP213      0.3671
     56  OD1       49.3960   -5.8590   54.7910 O.co2 213  ASP213     -0.2456
     57  OD2       47.8930   -4.3050   54.4420 O.co2 213  ASP213     -0.2456
     58  N         48.0750   -1.5390   60.7370 N.3   235  HIS235     -0.1241
     59  CA        46.6600   -1.2300   60.8170 C.3   235  HIS235      0.1621
     60  C         45.8500   -2.2460   60.0640 C.2   235  HIS235      0.2264
     61  O         46.2520   -2.6340   58.9910 O.2   235  HIS235     -0.2867
     62  CB        46.3210    0.1690   60.2560 C.3   235  HIS235      0.0745
     63  CG        46.9560    1.2820   61.0180 C.ar  235  HIS235      0.0817
     64  ND1       46.9070    2.5980   60.6090 N.ar  235  HIS235     -0.2268
     65  CD2       47.6720    1.2700   62.1690 C.ar  235  HIS235      0.1154
     66  CE1       47.5730    3.3520   61.4700 C.ar  235  HIS235      0.1986
     67  NE2       48.0260    2.5740   62.4410 N.ar  235  HIS235     -0.2212
     68  N         41.8280   -3.3160   58.9900 N.3   237  TYR237     -0.1241
     69  CA        40.3990   -3.0440   58.9710 C.3   237  TYR237      0.1605
     70  C         39.7720   -4.0760   58.0600 C.2   237  TYR237      0.2264
     71  O         40.4010   -4.4820   57.0910 O.2   237  TYR237     -0.2867
     72  CB        40.1230   -1.6350   58.4670 C.3   237  TYR237      0.0534
     73  CG        40.5250   -0.5150   59.3840 C.ar  237  TYR237     -0.0201
     74  CD1       39.7620   -0.1940   60.5060 C.ar  237  TYR237     -0.0009
     75  CD2       41.6810    0.2360   59.1280 C.ar  237  TYR237     -0.0009
     76  CE1       40.0830    0.8570   61.3130 C.ar  237  TYR237      0.0417
     77  CE2       42.0120    1.3040   59.9290 C.ar  237  TYR237      0.0417
     78  CZ        41.2260    1.6130   61.0210 C.ar  237  TYR237      0.1957
     79  OH        41.5800    2.6720   61.8300 O.3   237  TYR237     -0.2866
     80  N         35.4850   -2.2440   59.5310 N.3   285  TRP285     -0.1241
     81  CA        35.1480   -1.0130   58.8210 C.3   285  TRP285      0.1605
     82  C         34.8000   -1.3790   57.3550 C.2   285  TRP285      0.2264
     83  O         35.6820   -1.7400   56.5880 O.2   285  TRP285     -0.2867
     84  CB        36.3370   -0.0250   58.8800 C.3   285  TRP285      0.0550
     85  CG        36.0620    1.2790   58.2140 C.ar  285  TRP285      0.0003
     86  CD1       34.8310    1.7620   57.7740 C.ar  285  TRP285      0.0946
     87  CD2       37.0070    2.2880   57.9260 C.ar  285  TRP285      0.0152
     88  NE1       34.9840    3.0060   57.1970 N.ar  285  TRP285     -0.2442
     89  CE2       36.3060    3.3510   57.2690 C.ar  285  TRP285      0.0810
     90  CE3       38.3950    2.4070   58.1390 C.ar  285  TRP285      0.0012
     91  CZ2       36.9470    4.5120   56.8360 C.ar  285  TRP285      0.0191
     92  CZ3       39.0460    3.5700   57.6900 C.ar  285  TRP285      0.0001
     93  CH2       38.3340    4.6020   57.0470 C.ar  285  TRP285      0.0015
     94  N         36.5530   -4.7920   53.9950 N.3   378  PHE378     -0.1241
     95  CA        36.8190   -3.3540   54.0270 C.3   378  PHE378      0.1605
     96  C         35.9210   -2.5840   53.0520 C.2   378  PHE378      0.2264
     97  O         35.1990   -3.1940   52.2850 O.2   378  PHE378     -0.2867
     98  CB        38.3250   -3.0710   53.7870 C.3   378  PHE378      0.0534
     99  CG        38.7190   -1.6430   54.0090 C.ar  378  PHE378     -0.0203
    100  CD1       38.4190   -1.0040   55.2090 C.ar  378  PHE378     -0.0042
    101  CD2       39.4670   -0.9560   53.0380 C.ar  378  PHE378     -0.0042
    102  CE1       38.7830    0.3320   55.4230 C.ar  378  PHE378     -0.0003
    103  CE2       39.8620    0.3630   53.2420 C.ar  378  PHE378     -0.0003
    104  CZ        39.5250    1.0050   54.4590 C.ar  378  PHE378     -0.0000
@<TRIPOS>BOND
     1    30    31    1
     2    21    20    2
     3    42    40   ar
     4    42    43   ar
     5    40    37   ar
     6    31    34    1
     7    31    32    1
     8    34    35    1
     9    53    52    2
    10    20    19    1
    11    97    96    2
    12    43    41   ar
    13    37    35   ar
    14    37    39   ar
    15    52    51    1
    16    32    33    2
    17    35    36   ar
    18    19    22    1
    19    19    18    1
    20   101   103   ar
    21   101    99   ar
    22    96    95    1
    23    22    23    1
    24    54    51    1
    25    54    55    1
    26   103   104   ar
    27    24    23   ar
    28    24    26   ar
    29    41    39   ar
    30    39    38   ar
    31    51    50    1
    32    98    99    1
    33    98    95    1
    34    23    25   ar
    35    94    95    1
    36    49    48    1
    37    99   100   ar
    38    26    28   ar
    39    55    57   ar
    40    55    56   ar
    41    36    38   ar
    42   104   102   ar
    43    50    46   am
    44   100   102   ar
    45    25    27   ar
    46    48    45    1
    47    28    27   ar
    48    28    29    1
    49    12    11    2
    50    46    47    2
    51    46    45    1
    52    45    44    1
    53    83    82    2
    54    11    10    1
    55    91    93   ar
    56    91    89   ar
    57     8     6   am
    58    93    92   ar
    59    16    15   ar
    60    71    70    2
    61    88    89   ar
    62    88    86   ar
    63    89    87   ar
    64    82    81    1
    65    13    10    1
    66    13    14    1
    67    10     9    1
    68    92    90   ar
    69     6     7    2
    70     6     5    1
    71    86    85   ar
    72    15    17   ar
    73    15    14    1
    74    87    90   ar
    75    87    85   ar
    76    70    69    1
    77    85    84    1
    78    72    69    1
    79    72    73    1
    80     5     2    1
    81    81    84    1
    82    81    80    1
    83    69    68    1
    84    61    60    2
    85    75    73   ar
    86    75    77   ar
    87    73    74   ar
    88     2     3    1
    89     2     1    1
    90     4     3    2
    91    77    78   ar
    92    60    59    1
    93    62    59    1
    94    62    63    1
    95    74    76   ar
    96    64    63   ar
    97    64    66   ar
    98    58    59    1
    99    63    65   ar
   100    78    76   ar
   101    78    79    1
   102    66    67   ar
   103    65    67   ar
