@<TRIPOS>MOLECULE
tmp/3ug4C02.pdb
 150 145 0 0 0
SMALL
GASTEIGER

@<TRIPOS>ATOM
      1  N         41.6710    4.1280   71.0720 N.3    24  PHE24      -0.1241
      2  CA        42.1410    5.1870   70.1540 C.3    24  PHE24       0.1605
      3  C         41.0270    6.1890   69.9820 C.2    24  PHE24       0.2264
      4  O         39.8780    5.7820   69.6720 O.2    24  PHE24      -0.2867
      5  CB        42.6560    4.5310   68.8050 C.3    24  PHE24       0.0534
      6  CG        42.9040    5.4980   67.6510 C.ar   24  PHE24      -0.0203
      7  CD1       43.4090    6.7780   67.8450 C.ar   24  PHE24      -0.0042
      8  CD2       42.6140    5.0850   66.3310 C.ar   24  PHE24      -0.0042
      9  CE1       43.6400    7.6530   66.7780 C.ar   24  PHE24      -0.0003
     10  CE2       42.8160    5.9290   65.2080 C.ar   24  PHE24      -0.0003
     11  CZ        43.3350    7.2220   65.4130 C.ar   24  PHE24      -0.0000
     12  N         40.4870    9.6190   67.8330 N.3    26  GLU26      -0.1245
     13  CA        40.9610   10.6130   66.8860 C.3    26  GLU26       0.1567
     14  C         40.0450   11.8130   66.9190 C.2    26  GLU26       0.2260
     15  O         38.8920   11.6700   67.2750 O.2    26  GLU26      -0.2867
     16  CB        40.9680   10.0290   65.4580 C.3    26  GLU26       0.0388
     17  CG        41.4650   11.0220   64.3880 C.3    26  GLU26       0.1160
     18  CD        41.6900   10.3760   63.0370 C.2    26  GLU26       0.3649
     19  OE1       41.4140    9.1590   62.8940 O.co2  26  GLU26      -0.2457
     20  OE2       42.1460   11.0880   62.1200 O.co2  26  GLU26      -0.2457
     21  N         37.8960   13.0620   65.0040 N.3    28  LEU28      -0.1245
     22  CA        37.1380   12.7150   63.8010 C.3    28  LEU28       0.1561
     23  C         35.6460   12.7090   64.0840 C.2    28  LEU28       0.2260
     24  O         35.1930   11.9800   64.9590 O.2    28  LEU28      -0.2867
     25  CB        37.5630   11.2800   63.3310 C.3    28  LEU28       0.0270
     26  CG        37.1430   10.7300   61.9520 C.3    28  LEU28       0.0019
     27  CD1       37.9440    9.4540   61.6750 C.3    28  LEU28       0.0001
     28  CD2       35.5830   10.4210   61.7860 C.3    28  LEU28       0.0001
     29  N         46.0980    8.8310   63.6810 N.3    70  GLY70      -0.1210
     30  CA        44.9960    8.9530   62.6970 C.3    70  GLY70       0.1956
     31  C         45.3150   10.0650   61.6980 C.2    70  GLY70       0.2611
     32  O         46.2360   10.8800   61.9390 O.2    70  GLY70      -0.2717
     33  N         44.5640   10.1160   60.5910 N.am   71  ASN71      -0.1974
     34  CA        44.7340   11.1300   59.5220 C.3    71  ASN71       0.1688
     35  C         44.7350   12.5600   60.0360 C.2    71  ASN71       0.2292
     36  O         45.4630   13.4400   59.5420 O.2    71  ASN71      -0.2864
     37  CB        43.5910   10.9410   58.4670 C.3    71  ASN71       0.1181
     38  CG        43.7110    9.6180   57.7270 C.2    71  ASN71       0.2629
     39  OD1       44.7500    8.9420   57.8290 O.2    71  ASN71      -0.2716
     40  ND2       42.6400    9.2210   56.9860 N.am   71  ASN71      -0.0877
     41  N         39.3030   15.4100   57.8850 N.3    96  TRP96      -0.1241
     42  CA        37.9040   15.0850   57.9910 C.3    96  TRP96       0.1605
     43  C         36.9940   16.2730   57.6880 C.2    96  TRP96       0.2264
     44  O         35.8040   16.1720   57.8660 O.2    96  TRP96      -0.2867
     45  CB        37.6140   14.4190   59.3630 C.3    96  TRP96       0.0550
     46  CG        38.4980   13.2080   59.5640 C.ar   96  TRP96       0.0003
     47  CD1       39.5610   13.0970   60.4210 C.ar   96  TRP96       0.0946
     48  CD2       38.4370   11.9630   58.8420 C.ar   96  TRP96       0.0152
     49  NE1       40.1610   11.8520   60.2900 N.ar   96  TRP96      -0.2442
     50  CE2       39.4820   11.1350   59.3370 C.ar   96  TRP96       0.0810
     51  CE3       37.5720   11.4480   57.8550 C.ar   96  TRP96       0.0012
     52  CZ2       39.7050    9.8180   58.8580 C.ar   96  TRP96       0.0191
     53  CZ3       37.7860   10.1470   57.3850 C.ar   96  TRP96       0.0001
     54  CH2       38.8410    9.3390   57.9080 C.ar   96  TRP96       0.0015
     55  N         51.7020    9.0690   61.0820 N.3   171  ASN171     -0.1225
     56  CA        50.5480    8.2480   60.9090 C.3   171  ASN171      0.1785
     57  C         50.3670    7.9700   59.4190 C.2   171  ASN171      0.2597
     58  O         50.2680    8.9260   58.6580 O.2   171  ASN171     -0.2718
     59  CB        49.2820    8.9740   61.3420 C.3   171  ASN171      0.1169
     60  CG        48.0510    8.0870   61.1530 C.2   171  ASN171      0.2627
     61  OD1       47.8940    7.0960   61.9000 O.2   171  ASN171     -0.2716
     62  ND2       47.2200    8.3560   60.0840 N.am  171  ASN171     -0.0877
     63  N         50.3480    6.6900   59.0260 N.am  172  GLU172     -0.1979
     64  CA        49.9880    6.2800   57.6620 C.3   172  GLU172      0.1602
     65  C         50.6920    7.1280   56.5940 C.2   172  GLU172      0.2287
     66  O         50.0840    7.5250   55.6200 O.2   172  GLU172     -0.2864
     67  CB        48.4360    6.2570   57.4960 C.3   172  GLU172      0.0415
     68  CG        47.7930    5.1390   58.3300 C.3   172  GLU172      0.1163
     69  CD        46.3850    4.7570   57.8360 C.2   172  GLU172      0.3649
     70  OE1       45.7930    5.5180   57.0560 O.co2 172  GLU172     -0.2457
     71  OE2       45.8630    3.7110   58.2410 O.co2 172  GLU172     -0.2457
     72  N         46.3300    9.5730   50.8770 N.3   177  TRP177     -0.1241
     73  CA        45.3450   10.3710   51.5620 C.3   177  TRP177      0.1605
     74  C         45.9470   11.1470   52.7520 C.2   177  TRP177      0.2264
     75  O         45.2800   11.9830   53.3230 O.2   177  TRP177     -0.2867
     76  CB        44.2480    9.4500   52.0790 C.3   177  TRP177      0.0550
     77  CG        44.7660    8.3140   52.9700 C.ar  177  TRP177      0.0003
     78  CD1       44.9140    8.3450   54.3420 C.ar  177  TRP177      0.0946
     79  CD2       45.2080    7.0080   52.5490 C.ar  177  TRP177      0.0152
     80  NE1       45.3690    7.1370   54.7940 N.ar  177  TRP177     -0.2442
     81  CE2       45.5790    6.3000   53.7220 C.ar  177  TRP177      0.0810
     82  CE3       45.3010    6.3600   51.3000 C.ar  177  TRP177      0.0012
     83  CZ2       46.0550    4.9810   53.6840 C.ar  177  TRP177      0.0191
     84  CZ3       45.7740    5.0510   51.2540 C.ar  177  TRP177      0.0001
     85  CH2       46.1430    4.3670   52.4400 C.ar  177  TRP177      0.0015
     86  N         41.8280   -3.3160   58.9900 N.3   237  TYR237     -0.1241
     87  CA        40.3990   -3.0440   58.9710 C.3   237  TYR237      0.1605
     88  C         39.7720   -4.0760   58.0600 C.2   237  TYR237      0.2264
     89  O         40.4010   -4.4820   57.0910 O.2   237  TYR237     -0.2867
     90  CB        40.1230   -1.6350   58.4670 C.3   237  TYR237      0.0534
     91  CG        40.5250   -0.5150   59.3840 C.ar  237  TYR237     -0.0201
     92  CD1       39.7620   -0.1940   60.5060 C.ar  237  TYR237     -0.0009
     93  CD2       41.6810    0.2360   59.1280 C.ar  237  TYR237     -0.0009
     94  CE1       40.0830    0.8570   61.3130 C.ar  237  TYR237      0.0417
     95  CE2       42.0120    1.3040   59.9290 C.ar  237  TYR237      0.0417
     96  CZ        41.2260    1.6130   61.0210 C.ar  237  TYR237      0.1957
     97  OH        41.5800    2.6720   61.8300 O.3   237  TYR237     -0.2866
     98  N         45.8340    0.3590   65.0480 N.3   281  GLU281     -0.1245
     99  CA        44.4190    0.5930   64.5900 C.3   281  GLU281      0.1567
    100  C         43.8630   -0.6830   64.0990 C.2   281  GLU281      0.2260
    101  O         44.4240   -1.2690   63.1690 O.2   281  GLU281     -0.2867
    102  CB        44.2680    1.6230   63.4580 C.3   281  GLU281      0.0388
    103  CG        44.7860    3.0140   63.7670 C.3   281  GLU281      0.1160
    104  CD        44.5770    4.0200   62.6290 C.2   281  GLU281      0.3649
    105  OE1       45.2340    5.0890   62.6820 O.co2 281  GLU281     -0.2457
    106  OE2       43.7710    3.7400   61.6880 O.co2 281  GLU281     -0.2457
    107  N         35.4850   -2.2440   59.5310 N.3   285  TRP285     -0.1241
    108  CA        35.1480   -1.0130   58.8210 C.3   285  TRP285      0.1605
    109  C         34.8000   -1.3790   57.3550 C.2   285  TRP285      0.2264
    110  O         35.6820   -1.7400   56.5880 O.2   285  TRP285     -0.2867
    111  CB        36.3370   -0.0250   58.8800 C.3   285  TRP285      0.0550
    112  CG        36.0620    1.2790   58.2140 C.ar  285  TRP285      0.0003
    113  CD1       34.8310    1.7620   57.7740 C.ar  285  TRP285      0.0946
    114  CD2       37.0070    2.2880   57.9260 C.ar  285  TRP285      0.0152
    115  NE1       34.9840    3.0060   57.1970 N.ar  285  TRP285     -0.2442
    116  CE2       36.3060    3.3510   57.2690 C.ar  285  TRP285      0.0810
    117  CE3       38.3950    2.4070   58.1390 C.ar  285  TRP285      0.0012
    118  CZ2       36.9470    4.5120   56.8360 C.ar  285  TRP285      0.0191
    119  CZ3       39.0460    3.5700   57.6900 C.ar  285  TRP285      0.0001
    120  CH2       38.3340    4.6020   57.0470 C.ar  285  TRP285      0.0015
    121  N         32.0230    8.3410   60.0980 N.3   293  LEU293     -0.1245
    122  CA        32.3300    6.9110   60.2190 C.3   293  LEU293      0.1561
    123  C         31.5410    6.1640   61.3360 C.2   293  LEU293      0.2260
    124  O         32.0950    5.3320   62.0590 O.2   293  LEU293     -0.2867
    125  CB        33.8500    6.7040   60.3770 C.3   293  LEU293      0.0270
    126  CG        34.7150    7.1990   59.2270 C.3   293  LEU293      0.0019
    127  CD1       36.2360    6.8330   59.4670 C.3   293  LEU293      0.0001
    128  CD2       34.2180    6.7490   57.8320 C.3   293  LEU293      0.0001
    129  N         40.3530    0.8580   66.8210 N.3   325  ALA325     -0.1231
    130  CA        39.9720    2.1320   66.2340 C.3   325  ALA325      0.1694
    131  C         38.4560    2.1170   65.9810 C.2   325  ALA325      0.2591
    132  O         38.0050    1.3680   65.1330 O.2   325  ALA325     -0.2718
    133  CB        40.7200    2.3400   64.8870 C.3   325  ALA325      0.0304
    134  N         37.6530    2.9190   66.6790 N.am  326  GLN326     -0.1979
    135  CA        38.0170    3.8700   67.7290 C.3   326  GLN326      0.1601
    136  C         37.0090    3.7440   68.8680 C.2   326  GLN326      0.2287
    137  O         36.0490    2.9710   68.7830 O.2   326  GLN326     -0.2864
    138  CB        37.9590    5.2930   67.1770 C.3   326  GLN326      0.0394
    139  CG        38.8170    5.4220   65.9100 C.3   326  GLN326      0.0908
    140  CD        39.0540    6.8450   65.4520 C.2   326  GLN326      0.2608
    141  OE1       38.7220    7.8120   66.1510 O.2   326  GLN326     -0.2717
    142  NE2       39.6360    6.9790   64.2710 N.am  326  GLN326     -0.0878
    143  N         34.0470    4.8980   63.9340 N.3   331  LEU331     -0.1245
    144  CA        34.2470    3.4430   63.9930 C.3   331  LEU331      0.1561
    145  C         34.0500    2.9860   65.4490 C.2   331  LEU331      0.2260
    146  O         34.8820    2.2540   66.0060 O.2   331  LEU331     -0.2867
    147  CB        35.6300    3.0420   63.4980 C.3   331  LEU331      0.0270
    148  CG        35.9980    3.5290   62.0950 C.3   331  LEU331      0.0019
    149  CD1       37.4140    3.1470   61.7530 C.3   331  LEU331      0.0001
    150  CD2       34.9770    2.9970   61.0570 C.3   331  LEU331      0.0001
@<TRIPOS>BOND
     1    72    73    1
     2    84    82   ar
     3    84    85   ar
     4    82    79   ar
     5    73    76    1
     6    73    74    1
     7    76    77    1
     8    85    83   ar
     9    79    77   ar
    10    79    81   ar
    11    74    75    2
    12    77    78   ar
    13    83    81   ar
    14    81    80   ar
    15    78    80   ar
    16    66    65    2
    17   110   109    2
    18    65    64    1
    19   118   120   ar
    20   118   116   ar
    21    40    38   am
    22   120   119   ar
    23    70    69   ar
    24    89    88    2
    25   115   116   ar
    26   115   113   ar
    27   116   114   ar
    28   109   108    1
    29    53    51   ar
    30    53    54   ar
    31    67    64    1
    32    67    68    1
    33    64    63    1
    34    43    44    2
    35    43    42    1
    36   119   117   ar
    37    38    39    2
    38    38    37    1
    39   113   112   ar
    40   128   126    1
    41    69    71   ar
    42    69    68    1
    43    51    48   ar
    44    41    42    1
    45    54    52   ar
    46   114   117   ar
    47   114   112   ar
    48    42    45    1
    49    88    87    1
    50   112   111    1
    51    90    87    1
    52    90    91    1
    53    37    34    1
    54    58    57    2
    55   108   111    1
    56   108   107    1
    57    48    50   ar
    58    48    46   ar
    59    52    50   ar
    60    87    86    1
    61    63    57   am
    62    93    91   ar
    63    93    95   ar
    64   126   127    1
    65   126   125    1
    66    50    49   ar
    67    45    46    1
    68    91    92   ar
    69    57    56    1
    70    34    35    1
    71    34    33    1
    72    36    35    2
    73    46    47   ar
    74    95    96   ar
    75    62    60   am
    76   121   122    1
    77   122   125    1
    78   122   123    1
    79    49    47   ar
    80    92    94   ar
    81    33    31   am
    82    56    55    1
    83    56    59    1
    84    96    94   ar
    85    96    97    1
    86   150   148    1
    87    60    59    1
    88    60    61    2
    89   123   124    2
    90    27    26    1
    91   106   104   ar
    92    31    32    2
    93    31    30    1
    94   149   148    1
    95    28    26    1
    96    26    25    1
    97   148   147    1
    98    20    18   ar
    99   104   105   ar
   100   104   103    1
   101    30    29    1
   102    19    18   ar
   103    18    17    1
   104   101   100    2
   105    25    22    1
   106   102   103    1
   107   102    99    1
   108   147   144    1
   109    22    23    1
   110    22    21    1
   111   143   144    1
   112   144   145    1
   113    23    24    2
   114   100    99    1
   115   142   140   am
   116    17    16    1
   117    99    98    1
   118   133   130    1
   119   132   131    2
   120    10    11   ar
   121    10     8   ar
   122    11     9   ar
   123   145   146    2
   124   140   139    1
   125   140   141    2
   126    16    13    1
   127   139   138    1
   128   131   130    1
   129   131   134   am
   130   130   129    1
   131     8     6   ar
   132   134   135    1
   133     9     7   ar
   134    13    14    1
   135    13    12    1
   136    14    15    2
   137   138   135    1
   138     6     7   ar
   139     6     5    1
   140   135   136    1
   141   137   136    2
   142     5     2    1
   143     4     3    2
   144     3     2    1
   145     2     1    1
