@<TRIPOS>MOLECULE
tmp/3ug5B03.pdb
 88 86 0 0 0
SMALL
GASTEIGER

@<TRIPOS>ATOM
      1  N         80.7230   27.3910   71.8250 N.3    26  HIS26      -0.1226
      2  CA        79.8890   27.0220   72.9730 C.3    26  HIS26       0.1752
      3  C         79.9850   25.5540   73.3010 C.2    26  HIS26       0.2596
      4  O         79.0240   24.7820   73.1150 O.2    26  HIS26      -0.2718
      5  CB        78.4250   27.4530   72.7610 C.3    26  HIS26       0.0759
      6  CG        78.2860   28.9360   72.6410 C.ar   26  HIS26       0.0818
      7  ND1       77.3970   29.6790   73.3980 N.ar   26  HIS26      -0.2268
      8  CD2       79.0140   29.8300   71.9270 C.ar   26  HIS26       0.1154
      9  CE1       77.5500   30.9650   73.1140 C.ar   26  HIS26       0.1986
     10  NE2       78.5300   31.0830   72.2260 N.ar   26  HIS26      -0.2212
     11  N         81.1430   25.1890   73.8460 N.am   27  LEU27      -0.1966
     12  CA        81.4500   23.8150   74.2390 C.3    27  LEU27       0.1728
     13  C         82.1260   23.8920   75.5950 C.2    27  LEU27       0.2617
     14  O         83.1580   24.5840   75.7490 O.2    27  LEU27      -0.2715
     15  CB        82.4440   23.1820   73.2300 C.3    27  LEU27       0.0311
     16  CG        82.7620   21.6640   73.1980 C.3    27  LEU27       0.0022
     17  CD1       83.5630   21.3160   71.9160 C.3    27  LEU27       0.0001
     18  CD2       83.5270   21.1020   74.4190 C.3    27  LEU27       0.0001
     19  N         81.6010   23.1450   76.5480 N.am   28  GLY28      -0.1940
     20  CA        82.2140   23.0680   77.9000 C.3    28  GLY28       0.2014
     21  C         82.5490   24.4440   78.4810 C.2    28  GLY28       0.2638
     22  O         81.6780   25.2940   78.5890 O.2    28  GLY28      -0.2714
     23  N         83.8090   24.6880   78.8350 N.am   29  ARG29      -0.1977
     24  CA        84.1410   25.9830   79.4500 C.3    29  ARG29       0.1597
     25  C         84.8160   26.9330   78.4870 C.2    29  ARG29       0.2287
     26  O         85.5190   27.8330   78.9260 O.2    29  ARG29      -0.2864
     27  CB        84.9740   25.8030   80.7540 C.3    29  ARG29       0.0334
     28  CG        84.1980   24.9930   81.8310 C.3    29  ARG29       0.0492
     29  CD        84.9190   24.7480   83.1970 C.3    29  ARG29       0.2205
     30  NE        86.2750   24.2640   82.9680 N.pl3  29  ARG29      -0.0865
     31  CZ        87.3510   25.0270   83.1440 C.cat  29  ARG29       0.5346
     32  NH1       88.5380   24.5120   82.8860 N.pl3  29  ARG29       0.1354
     33  NH2       87.2230   26.3030   83.5580 N.pl3  29  ARG29       0.1354
     34  N         81.6930   29.9540   78.7420 N.3    32  TYR32      -0.1241
     35  CA        81.1940   30.1400   80.1230 C.3    32  TYR32       0.1605
     36  C         82.2430   29.5840   81.0880 C.2    32  TYR32       0.2264
     37  O         82.4480   28.3400   81.1630 O.2    32  TYR32      -0.2867
     38  CB        79.8020   29.4900   80.3510 C.3    32  TYR32       0.0534
     39  CG        78.7610   30.0690   79.4060 C.ar   32  TYR32      -0.0201
     40  CD1       78.1600   31.3050   79.6780 C.ar   32  TYR32      -0.0009
     41  CD2       78.4040   29.3970   78.2170 C.ar   32  TYR32      -0.0009
     42  CE1       77.2130   31.8590   78.7920 C.ar   32  TYR32       0.0417
     43  CE2       77.4500   29.9560   77.3050 C.ar   32  TYR32       0.0417
     44  CZ        76.8670   31.1730   77.6110 C.ar   32  TYR32       0.1957
     45  OH        75.9640   31.7510   76.7340 O.3    32  TYR32      -0.2866
     46  N         73.9170   20.2830   76.9770 N.3    97  GLN97      -0.1231
     47  CA        73.9010   21.2070   78.1010 C.3    97  GLN97       0.1698
     48  C         72.7880   22.1980   77.8860 C.2    97  GLN97       0.2592
     49  O         72.3110   22.3840   76.7340 O.2    97  GLN97      -0.2718
     50  CB        75.2520   21.9330   78.2390 C.3    97  GLN97       0.0381
     51  CG        76.4750   21.0050   78.3490 C.3    97  GLN97       0.0905
     52  CD        76.6120   20.2510   79.7320 C.2    97  GLN97       0.2608
     53  OE1       75.8980   20.5370   80.7000 O.2    97  GLN97      -0.2717
     54  NE2       77.5370   19.2840   79.7890 N.am   97  GLN97      -0.0878
     55  N         72.3910   22.8310   78.9940 N.am   98  GLU98      -0.1966
     56  CA        71.5160   23.9680   78.9390 C.3    98  GLU98       0.1733
     57  C         72.3550   25.1910   78.5720 C.2    98  GLU98       0.2616
     58  O         73.2560   25.6210   79.3160 O.2    98  GLU98      -0.2715
     59  CB        70.7830   24.1620   80.2580 C.3    98  GLU98       0.0429
     60  CG        69.8900   22.9810   80.6380 C.3    98  GLU98       0.1163
     61  CD        69.0300   23.2250   81.8910 C.2    98  GLU98       0.3649
     62  OE1       69.1020   24.3390   82.5040 O.co2  98  GLU98      -0.2457
     63  OE2       68.2880   22.2920   82.2600 O.co2  98  GLU98      -0.2457
     64  N         72.0980   25.6970   77.3800 N.am   99  GLU99      -0.1963
     65  CA        72.6780   26.9190   76.8940 C.3    99  GLU99       0.1733
     66  C         71.7110   28.0470   77.3420 C.2    99  GLU99       0.2617
     67  O         70.5050   27.9940   76.9890 O.2    99  GLU99      -0.2715
     68  CB        72.7820   26.8440   75.3560 C.3    99  GLU99       0.0429
     69  CG        73.1420   28.1120   74.6590 C.3    99  GLU99       0.1163
     70  CD        74.4950   28.7100   75.1830 C.2    99  GLU99       0.3649
     71  OE1       75.5260   27.9880   75.1500 O.co2  99  GLU99      -0.2457
     72  OE2       74.5030   29.8920   75.6320 O.co2  99  GLU99      -0.2457
     73  N         72.2350   29.0390   78.0840 N.am  100  THR100     -0.1951
     74  CA        71.4580   30.1350   78.6230 C.3   100  THR100      0.1897
     75  C         71.4060   31.2710   77.6260 C.2   100  THR100      0.2313
     76  O         70.6220   32.1990   77.7780 O.2   100  THR100     -0.2863
     77  CB        72.0760   30.7360   79.9830 C.3   100  THR100      0.1794
     78  OG1       73.3030   31.4040   79.6940 O.3   100  THR100     -0.2208
     79  CG2       72.3060   29.6360   81.1170 C.3   100  THR100      0.0378
     80  N         83.9500   18.3050   77.2420 N.3   291  LYS291     -0.1245
     81  CA        84.6900   19.4360   77.8060 C.3   291  LYS291      0.1561
     82  C         85.9800   19.5840   77.0160 C.2   291  LYS291      0.2260
     83  O         86.4260   20.7000   76.7510 O.2   291  LYS291     -0.2867
     84  CB        84.8720   19.2410   79.3180 C.3   291  LYS291      0.0271
     85  CG        83.4900   19.3000   80.0320 C.3   291  LYS291      0.0035
     86  CD        83.5100   18.9070   81.5160 C.3   291  LYS291      0.0206
     87  CE        83.6460   20.1480   82.4700 C.3   291  LYS291      0.1093
     88  NZ        85.0990   20.5390   82.7140 N.3   291  LYS291     -0.1314
@<TRIPOS>BOND
     1     1     2    1
     2    17    16    1
     3     8    10   ar
     4     8     6   ar
     5    10     9   ar
     6     6     5    1
     7     6     7   ar
     8     5     2    1
     9     2     3    1
    10     9     7   ar
    11     4     3    2
    12    16    15    1
    13    16    18    1
    14    15    12    1
    15     3    11   am
    16    11    12    1
    17    12    13    1
    18    69    70    1
    19    69    68    1
    20    71    70   ar
    21    70    72   ar
    22    68    65    1
    23    13    14    2
    24    13    19   am
    25    19    20    1
    26    49    48    2
    27    45    44    1
    28    83    82    2
    29    65    66    1
    30    65    64    1
    31    46    47    1
    32    67    66    2
    33    82    81    1
    34    80    81    1
    35    43    44   ar
    36    43    41   ar
    37    66    73   am
    38    64    57   am
    39    44    42   ar
    40    75    76    2
    41    75    74    1
    42    81    84    1
    43    48    47    1
    44    48    55   am
    45    20    21    1
    46    73    74    1
    47    47    50    1
    48    41    39   ar
    49    50    51    1
    50    51    52    1
    51    21    22    2
    52    21    23   am
    53    25    26    2
    54    25    24    1
    55    57    56    1
    56    57    58    2
    57    74    77    1
    58    34    35    1
    59    42    40   ar
    60    23    24    1
    61    56    55    1
    62    56    59    1
    63    84    85    1
    64    39    40   ar
    65    39    38    1
    66    24    27    1
    67    78    77    1
    68    52    54   am
    69    52    53    2
    70    77    79    1
    71    85    86    1
    72    35    38    1
    73    35    36    1
    74    59    60    1
    75    60    61    1
    76    27    28    1
    77    36    37    2
    78    86    87    1
    79    28    29    1
    80    61    63   ar
    81    61    62   ar
    82    87    88    1
    83    32    31    1
    84    30    31    2
    85    30    29    1
    86    31    33    1
