@<TRIPOS>MOLECULE
tmp/3ug5B02.pdb
 123 117 0 0 0
SMALL
GASTEIGER

@<TRIPOS>ATOM
      1  N         89.2870   30.3290   67.4070 N.3    23  PHE23      -0.1241
      2  CA        88.0180   29.6660   67.3710 C.3    23  PHE23       0.1605
      3  C         87.5770   29.4500   68.8030 C.2    23  PHE23       0.2264
      4  O         88.3590   28.8900   69.5950 O.2    23  PHE23      -0.2867
      5  CB        88.1480   28.3170   66.6040 C.3    23  PHE23       0.0534
      6  CG        86.8620   27.4800   66.5730 C.ar   23  PHE23      -0.0203
      7  CD1       85.6050   28.0930   66.5830 C.ar   23  PHE23      -0.0042
      8  CD2       86.9300   26.0830   66.5620 C.ar   23  PHE23      -0.0042
      9  CE1       84.4330   27.3240   66.5540 C.ar   23  PHE23      -0.0003
     10  CE2       85.7550   25.2960   66.5650 C.ar   23  PHE23      -0.0003
     11  CZ        84.5010   25.9280   66.5640 C.ar   23  PHE23      -0.0000
     12  N         84.0020   27.8980   70.6030 N.3    25  GLU25      -0.1245
     13  CA        82.7110   27.2640   70.4340 C.3    25  GLU25       0.1567
     14  C         82.0550   27.2700   71.8090 C.2    25  GLU25       0.2260
     15  O         82.7670   27.2040   72.8470 O.2    25  GLU25      -0.2867
     16  CB        82.8830   25.7870   69.9660 C.3    25  GLU25       0.0388
     17  CG        81.5950   24.9840   70.0270 C.3    25  GLU25       0.1160
     18  CD        81.6180   23.6750   69.2250 C.2    25  GLU25       0.3649
     19  OE1       82.6800   23.2520   68.7330 O.co2  25  GLU25      -0.2457
     20  OE2       80.5400   23.0520   69.0980 O.co2  25  GLU25      -0.2457
     21  N         81.1430   25.1890   73.8460 N.3    27  LEU27      -0.1245
     22  CA        81.4500   23.8150   74.2390 C.3    27  LEU27       0.1561
     23  C         82.1260   23.8920   75.5950 C.2    27  LEU27       0.2260
     24  O         83.1580   24.5840   75.7490 O.2    27  LEU27      -0.2867
     25  CB        82.4440   23.1820   73.2300 C.3    27  LEU27       0.0270
     26  CG        82.7620   21.6640   73.1980 C.3    27  LEU27       0.0019
     27  CD1       83.5630   21.3160   71.9160 C.3    27  LEU27       0.0001
     28  CD2       83.5270   21.1020   74.4190 C.3    27  LEU27       0.0001
     29  N         81.6860   24.7880   64.6280 N.3    69  GLY69      -0.1210
     30  CA        81.6530   23.6590   65.5530 C.3    69  GLY69       0.1956
     31  C         80.2690   23.0540   65.6560 C.2    69  GLY69       0.2611
     32  O         79.2960   23.6850   65.2590 O.2    69  GLY69      -0.2717
     33  N         80.2030   21.8340   66.1840 N.am   70  ASN70      -0.1974
     34  CA        78.9960   21.0420   66.2430 C.3    70  ASN70       0.1688
     35  C         77.8510   21.8180   66.8320 C.2    70  ASN70       0.2292
     36  O         76.7060   21.6150   66.4460 O.2    70  ASN70      -0.2864
     37  CB        79.2300   19.7240   67.0520 C.3    70  ASN70       0.1181
     38  CG        80.2330   18.7670   66.3680 C.2    70  ASN70       0.2629
     39  OD1       80.5690   18.9030   65.1730 O.2    70  ASN70      -0.2716
     40  ND2       80.7110   17.7960   67.1310 N.am   70  ASN70      -0.0877
     41  N         76.4060   19.0900   72.7720 N.3    95  TRP95      -0.1241
     42  CA        77.1940   18.8500   73.9750 C.3    95  TRP95       0.1605
     43  C         76.3000   18.5170   75.1610 C.2    95  TRP95       0.2264
     44  O         76.8140   18.2430   76.2350 O.2    95  TRP95      -0.2867
     45  CB        78.1570   20.0130   74.2630 C.3    95  TRP95       0.0550
     46  CG        78.9920   20.2690   73.0610 C.ar   95  TRP95       0.0003
     47  CD1       79.0080   21.4070   72.2690 C.ar   95  TRP95       0.0946
     48  CD2       79.8950   19.3320   72.4510 C.ar   95  TRP95       0.0152
     49  NE1       79.8810   21.2220   71.2190 N.ar   95  TRP95      -0.2442
     50  CE2       80.4180   19.9530   71.2900 C.ar   95  TRP95       0.0810
     51  CE3       80.3050   18.0170   72.7760 C.ar   95  TRP95       0.0012
     52  CZ2       81.3580   19.3160   70.4550 C.ar   95  TRP95       0.0191
     53  CZ3       81.2150   17.3700   71.9420 C.ar   95  TRP95       0.0001
     54  CH2       81.7550   18.0340   70.8030 C.ar   95  TRP95       0.0015
     55  N         80.8230   20.9460   59.2430 N.3   171  GLU171     -0.1245
     56  CA        80.9370   19.4580   59.2190 C.3   171  GLU171      0.1567
     57  C         79.6370   18.7260   58.8500 C.2   171  GLU171      0.2260
     58  O         79.2530   17.7110   59.4560 O.2   171  GLU171     -0.2867
     59  CB        81.5050   18.9160   60.5370 C.3   171  GLU171      0.0388
     60  CG        82.9600   19.3030   60.7510 C.3   171  GLU171      0.1160
     61  CD        83.5690   18.7050   62.0500 C.2   171  GLU171      0.3649
     62  OE1       82.8460   18.0700   62.8500 O.co2 171  GLU171     -0.2457
     63  OE2       84.7930   18.8740   62.2540 O.co2 171  GLU171     -0.2457
     64  N         92.9790   17.0850   63.0170 N.3   236  TYR236     -0.1241
     65  CA        93.1750   16.8060   64.4220 C.3   236  TYR236      0.1605
     66  C         94.1590   15.6410   64.5090 C.2   236  TYR236      0.2264
     67  O         94.0520   14.6700   63.7510 O.2   236  TYR236     -0.2867
     68  CB        91.8600   16.4460   65.0960 C.3   236  TYR236      0.0534
     69  CG        90.9510   17.6510   65.2940 C.ar  236  TYR236     -0.0201
     70  CD1       91.3370   18.7460   66.1220 C.ar  236  TYR236     -0.0009
     71  CD2       89.6970   17.7170   64.6330 C.ar  236  TYR236     -0.0009
     72  CE1       90.4860   19.8710   66.3120 C.ar  236  TYR236      0.0417
     73  CE2       88.8530   18.8350   64.8030 C.ar  236  TYR236      0.0417
     74  CZ        89.2330   19.8880   65.6530 C.ar  236  TYR236      0.1957
     75  OH        88.3690   20.9580   65.7930 O.3   236  TYR236     -0.2866
     76  N         89.6300   24.4340   61.5530 N.3   280  GLU280     -0.1245
     77  CA        89.8380   23.7970   62.8240 C.3   280  GLU280      0.1567
     78  C         91.0970   22.9640   62.6890 C.2   280  GLU280      0.2260
     79  O         91.1660   22.0600   61.8350 O.2   280  GLU280     -0.2867
     80  CB        88.7040   22.8360   63.1930 C.3   280  GLU280      0.0388
     81  CG        87.3050   23.5140   63.4360 C.3   280  GLU280      0.1160
     82  CD        86.2010   22.5190   63.8150 C.2   280  GLU280      0.3649
     83  OE1       86.4950   21.3710   64.2140 O.co2 280  GLU280     -0.2457
     84  OE2       85.0090   22.8950   63.7430 O.co2 280  GLU280     -0.2457
     85  N         94.7040   16.5750   69.2330 N.3   284  TRP284     -0.1241
     86  CA        93.5180   16.1200   69.9640 C.3   284  TRP284      0.1605
     87  C         93.4950   14.6020   69.9140 C.2   284  TRP284      0.2264
     88  O         93.2090   14.0300   68.8360 O.2   284  TRP284     -0.2867
     89  CB        92.2020   16.6820   69.3450 C.3   284  TRP284      0.0550
     90  CG        90.9080   16.0720   69.9860 C.ar  284  TRP284      0.0003
     91  CD1       90.7790   15.5220   71.2580 C.ar  284  TRP284      0.0946
     92  CD2       89.5910   16.0040   69.3930 C.ar  284  TRP284      0.0152
     93  NE1       89.4720   15.1110   71.4780 N.ar  284  TRP284     -0.2442
     94  CE2       88.7280   15.3820   70.3470 C.ar  284  TRP284      0.0810
     95  CE3       89.0630   16.3940   68.1530 C.ar  284  TRP284      0.0012
     96  CZ2       87.3700   15.1550   70.0890 C.ar  284  TRP284      0.0191
     97  CZ3       87.7040   16.1600   67.8990 C.ar  284  TRP284      0.0001
     98  CH2       86.8800   15.5490   68.8630 C.ar  284  TRP284      0.0015
     99  N         86.5090   18.4430   76.5780 N.3   292  LEU292     -0.1245
    100  CA        87.6830   18.3790   75.7240 C.3   292  LEU292      0.1561
    101  C         88.9030   19.1330   76.3040 C.2   292  LEU292      0.2260
    102  O         89.6730   19.7780   75.5560 O.2   292  LEU292     -0.2867
    103  CB        87.3590   18.8700   74.3020 C.3   292  LEU292      0.0270
    104  CG        86.3750   17.9880   73.5050 C.3   292  LEU292      0.0019
    105  CD1       86.2730   18.5150   72.0490 C.3   292  LEU292      0.0001
    106  CD2       86.7560   16.4680   73.5240 C.3   292  LEU292      0.0001
    107  N         90.9330   24.9920   70.1450 N.3   325  GLN325     -0.1245
    108  CA        90.1770   26.2500   70.3310 C.3   325  GLN325      0.1566
    109  C         90.9880   27.1680   71.2690 C.2   325  GLN325      0.2260
    110  O         92.0640   26.7640   71.7230 O.2   325  GLN325     -0.2867
    111  CB        88.8190   25.9990   70.9800 C.3   325  GLN325      0.0367
    112  CG        87.9020   25.0920   70.1040 C.3   325  GLN325      0.0905
    113  CD        86.5020   24.9860   70.6020 C.2   325  GLN325      0.2608
    114  OE1       85.9700   25.9060   71.2840 O.2   325  GLN325     -0.2717
    115  NE2       85.8540   23.8860   70.2390 N.am  325  GLN325     -0.0878
    116  N         89.7410   22.0290   73.9480 N.3   330  LEU330     -0.1245
    117  CA        90.9470   21.7920   73.1690 C.3   330  LEU330      0.1561
    118  C         91.8170   23.0210   73.3420 C.2   330  LEU330      0.2260
    119  O         92.2860   23.6040   72.3450 O.2   330  LEU330     -0.2867
    120  CB        90.6120   21.5490   71.6780 C.3   330  LEU330      0.0270
    121  CG        89.8150   20.2790   71.3010 C.3   330  LEU330      0.0019
    122  CD1       89.6230   20.1510   69.7680 C.3   330  LEU330      0.0001
    123  CD2       90.4330   18.9860   71.8640 C.3   330  LEU330      0.0001
@<TRIPOS>BOND
     1    57    56    1
     2    57    58    2
     3    56    55    1
     4    56    59    1
     5    59    60    1
     6    60    61    1
     7    76    77    1
     8    79    78    2
     9    61    63   ar
    10    61    62   ar
    11    78    77    1
    12    77    80    1
    13    64    65    1
    14    80    81    1
    15    81    82    1
    16    84    82   ar
    17    67    66    2
    18    82    83   ar
    19    65    66    1
    20    65    68    1
    21    29    30    1
    22    71    73   ar
    23    71    69   ar
    24    73    74   ar
    25    68    69    1
    26    39    38    2
    27    32    31    2
    28    69    70   ar
    29    30    31    1
    30    74    75    1
    31    74    72   ar
    32    31    33   am
    33    70    72   ar
    34    33    34    1
    35    34    35    1
    36    34    37    1
    37    38    37    1
    38    38    40   am
    39    36    35    2
    40     9    11   ar
    41     9     7   ar
    42     8    10   ar
    43     8     6   ar
    44    11    10   ar
    45     6     7   ar
    46     6     5    1
    47     5     2    1
    48     2     1    1
    49     2     3    1
    50    97    95   ar
    51    97    98   ar
    52    95    92   ar
    53    19    18   ar
    54     3     4    2
    55    88    87    2
    56    98    96   ar
    57    20    18   ar
    58    18    17    1
    59    85    86    1
    60    89    86    1
    61    89    90    1
    62    92    90   ar
    63    92    94   ar
    64   122   121    1
    65    87    86    1
    66    16    17    1
    67    16    13    1
    68    90    91   ar
    69    96    94   ar
    70   112   113    1
    71   112   111    1
    72   107   108    1
    73   115   113   am
    74   108   111    1
    75   108   109    1
    76    94    93   ar
    77    13    12    1
    78    13    14    1
    79    52    54   ar
    80    52    50   ar
    81   113   114    2
    82    54    53   ar
    83    49    50   ar
    84    49    47   ar
    85    91    93   ar
    86   109   110    2
    87    50    48   ar
    88   121   120    1
    89   121   123    1
    90   120   117    1
    91    14    15    2
    92    27    26    1
    93    53    51   ar
    94   105   104    1
    95    47    46   ar
    96   119   118    2
    97    48    51   ar
    98    48    46   ar
    99    41    42    1
   100    46    45    1
   101   117   118    1
   102   117   116    1
   103    26    25    1
   104    26    28    1
   105    25    22    1
   106   104   106    1
   107   104   103    1
   108    21    22    1
   109    42    45    1
   110    42    43    1
   111    22    23    1
   112   103   100    1
   113    43    44    2
   114   102   101    2
   115    23    24    2
   116   100   101    1
   117   100    99    1
