@<TRIPOS>MOLECULE
tmp/3ug5A02.pdb
 121 121 0 0 0
SMALL
GASTEIGER

@<TRIPOS>ATOM
      1  N         59.4910   36.8090   39.9630 N.3    70  ASN70      -0.1240
      2  CA        60.6050   36.3630   40.8210 C.3    70  ASN70       0.1653
      3  C         60.4670   36.8490   42.2560 C.2    70  ASN70       0.2266
      4  O         60.7890   36.1220   43.1750 O.2    70  ASN70      -0.2867
      5  CB        61.9170   36.8160   40.2460 C.3    70  ASN70       0.1155
      6  CG        62.1260   36.3320   38.8150 C.2    70  ASN70       0.2627
      7  OD1       61.5180   35.3610   38.3710 O.2    70  ASN70      -0.2716
      8  ND2       63.0080   37.0080   38.1010 N.am   70  ASN70      -0.0877
      9  N         65.0580   41.6010   43.2340 N.3    95  TRP95      -0.1241
     10  CA        65.3820   42.8690   42.5790 C.3    95  TRP95       0.1605
     11  C         66.3080   43.7270   43.4700 C.2    95  TRP95       0.2264
     12  O         66.6660   44.8330   43.1060 O.2    95  TRP95      -0.2867
     13  CB        64.0700   43.5830   42.2280 C.3    95  TRP95       0.0550
     14  CG        63.2330   42.6690   41.3880 C.ar   95  TRP95       0.0003
     15  CD1       62.0170   42.1640   41.7010 C.ar   95  TRP95       0.0946
     16  CD2       63.6050   42.0900   40.1060 C.ar   95  TRP95       0.0152
     17  NE1       61.5860   41.3310   40.6840 N.ar   95  TRP95      -0.2442
     18  CE2       62.5420   41.2740   39.6970 C.ar   95  TRP95       0.0810
     19  CE3       64.7150   42.2330   39.2540 C.ar   95  TRP95       0.0012
     20  CZ2       62.5580   40.5570   38.4610 C.ar   95  TRP95       0.0191
     21  CZ3       64.7440   41.5220   38.0270 C.ar   95  TRP95       0.0001
     22  CH2       63.6580   40.7080   37.6450 C.ar   95  TRP95       0.0015
     23  N         58.1250   30.2430   38.0980 N.3   171  GLU171     -0.1245
     24  CA        59.3850   29.8400   37.4240 C.3   171  GLU171      0.1567
     25  C         60.3680   29.0320   38.3080 C.2   171  GLU171      0.2260
     26  O         61.5830   29.3620   38.4130 O.2   171  GLU171     -0.2867
     27  CB        60.1240   31.0560   36.8140 C.3   171  GLU171      0.0388
     28  CG        59.3290   31.8150   35.7880 C.3   171  GLU171      0.1160
     29  CD        60.0680   33.0030   35.1780 C.2   171  GLU171      0.3649
     30  OE1       61.0870   33.4760   35.7510 O.co2 171  GLU171     -0.2457
     31  OE2       59.6190   33.4940   34.1220 O.co2 171  GLU171     -0.2457
     32  N         61.7480   26.3790   37.8160 N.3   173  TYR173     -0.1241
     33  CA        62.8250   25.6970   37.0530 C.3   173  TYR173      0.1605
     34  C         64.0830   26.5460   36.9390 C.2   173  TYR173      0.2264
     35  O         65.1680   26.0140   36.7170 O.2   173  TYR173     -0.2867
     36  CB        62.3710   25.3310   35.6210 C.3   173  TYR173      0.0534
     37  CG        61.7850   26.5300   34.9000 C.ar  173  TYR173     -0.0201
     38  CD1       62.5730   27.3880   34.1470 C.ar  173  TYR173     -0.0009
     39  CD2       60.4380   26.8320   35.0340 C.ar  173  TYR173     -0.0009
     40  CE1       61.9960   28.5400   33.5190 C.ar  173  TYR173      0.0417
     41  CE2       59.8440   27.9930   34.4040 C.ar  173  TYR173      0.0417
     42  CZ        60.6280   28.8060   33.6690 C.ar  173  TYR173      0.1957
     43  OH        60.0200   29.9120   33.0950 O.3   173  TYR173     -0.2866
     44  N         67.7380   31.3090   38.5290 N.3   176  TRP176     -0.1241
     45  CA        67.6280   32.6440   39.0670 C.3   176  TRP176      0.1605
     46  C         66.5490   32.7400   40.1880 C.2   176  TRP176      0.2264
     47  O         66.4680   33.7660   40.8800 O.2   176  TRP176     -0.2867
     48  CB        67.3450   33.6770   37.9480 C.3   176  TRP176      0.0550
     49  CG        66.0260   33.3600   37.2800 C.ar  176  TRP176      0.0003
     50  CD1       64.7630   33.7180   37.6920 C.ar  176  TRP176      0.0946
     51  CD2       65.8490   32.5470   36.1130 C.ar  176  TRP176      0.0152
     52  NE1       63.8050   33.2050   36.8360 N.ar  176  TRP176     -0.2442
     53  CE2       64.4390   32.4590   35.8700 C.ar  176  TRP176      0.0810
     54  CE3       66.7390   31.8530   35.2700 C.ar  176  TRP176      0.0012
     55  CZ2       63.9060   31.7440   34.7940 C.ar  176  TRP176      0.0191
     56  CZ3       66.1990   31.1220   34.1730 C.ar  176  TRP176      0.0001
     57  CH2       64.7920   31.1050   33.9340 C.ar  176  TRP176      0.0015
     58  N         55.5280   31.1560   29.8370 N.3   234  HIS234     -0.1241
     59  CA        55.9920   32.5540   29.8020 C.3   234  HIS234      0.1621
     60  C         56.6130   32.7890   28.4480 C.2   234  HIS234      0.2264
     61  O         57.3500   31.9360   27.9900 O.2   234  HIS234     -0.2867
     62  CB        56.9610   32.9190   30.9590 C.3   234  HIS234      0.0745
     63  CG        56.3080   32.8450   32.3120 C.ar  234  HIS234      0.0817
     64  ND1       56.9890   33.0460   33.5050 N.ar  234  HIS234     -0.2268
     65  CD2       55.0270   32.5600   32.6610 C.ar  234  HIS234      0.1154
     66  CE1       56.1510   32.8970   34.5200 C.ar  234  HIS234      0.1986
     67  NE2       54.9570   32.5950   34.0390 N.ar  234  HIS234     -0.2212
     68  N         58.5630   35.8320   26.1490 N.3   236  TYR236     -0.1241
     69  CA        59.0950   37.1300   25.9050 C.3   236  TYR236      0.1605
     70  C         59.8390   37.1610   24.5760 C.2   236  TYR236      0.2264
     71  O         60.5480   36.2090   24.2300 O.2   236  TYR236     -0.2867
     72  CB        60.0450   37.5130   27.0040 C.3   236  TYR236      0.0534
     73  CG        59.3550   37.6750   28.3580 C.ar  236  TYR236     -0.0201
     74  CD1       58.5190   38.7760   28.6070 C.ar  236  TYR236     -0.0009
     75  CD2       59.5540   36.7470   29.3860 C.ar  236  TYR236     -0.0009
     76  CE1       57.8790   38.9660   29.8330 C.ar  236  TYR236      0.0417
     77  CE2       58.9360   36.9420   30.6650 C.ar  236  TYR236      0.0417
     78  CZ        58.0980   38.0390   30.8640 C.ar  236  TYR236      0.1957
     79  OH        57.4940   38.2280   32.0590 O.3   236  TYR236     -0.2866
     80  N         52.6370   35.1590   31.7570 N.3   280  GLU280     -0.1245
     81  CA        53.5570   36.2670   31.5310 C.3   280  GLU280      0.1567
     82  C         53.8030   36.3370   30.0290 C.2   280  GLU280      0.2260
     83  O         54.2010   35.3310   29.4230 O.2   280  GLU280     -0.2867
     84  CB        54.9240   36.0950   32.2470 C.3   280  GLU280      0.0388
     85  CG        54.8450   36.2030   33.8090 C.3   280  GLU280      0.1160
     86  CD        56.2250   36.1630   34.5010 C.2   280  GLU280      0.3649
     87  OE1       57.2440   36.4400   33.8180 O.co2 280  GLU280     -0.2457
     88  OE2       56.2830   35.8410   35.7390 O.co2 280  GLU280     -0.2457
     89  N         60.2180   41.9350   25.2290 N.3   284  TRP284     -0.1241
     90  CA        61.2220   42.3010   26.1960 C.3   284  TRP284      0.1605
     91  C         62.5770   41.8890   25.6270 C.2   284  TRP284      0.2264
     92  O         62.8650   40.7000   25.5480 O.2   284  TRP284     -0.2867
     93  CB        60.9620   41.5980   27.5600 C.3   284  TRP284      0.0550
     94  CG        62.0660   41.7650   28.5110 C.ar  284  TRP284      0.0003
     95  CD1       62.9890   42.7930   28.5470 C.ar  284  TRP284      0.0946
     96  CD2       62.3850   40.8990   29.5930 C.ar  284  TRP284      0.0152
     97  NE1       63.8650   42.6000   29.6010 N.ar  284  TRP284     -0.2442
     98  CE2       63.5370   41.4380   30.2400 C.ar  284  TRP284      0.0810
     99  CE3       61.8340   39.6950   30.0660 C.ar  284  TRP284      0.0012
    100  CZ2       64.1520   40.8040   31.3380 C.ar  284  TRP284      0.0191
    101  CZ3       62.4340   39.0710   31.1500 C.ar  284  TRP284      0.0001
    102  CH2       63.5830   39.6240   31.7810 C.ar  284  TRP284      0.0015
    103  N         64.2610   38.3510   22.2570 N.3   377  PHE377     -0.1227
    104  CA        64.5440   38.3660   23.6640 C.3   377  PHE377      0.1736
    105  C         65.9020   38.9560   23.9380 C.2   377  PHE377      0.2595
    106  O         66.6640   39.2670   23.0020 O.2   377  PHE377     -0.2718
    107  CB        64.4210   36.9260   24.2580 C.3   377  PHE377      0.0547
    108  CG        64.4890   36.8790   25.7520 C.ar  377  PHE377     -0.0202
    109  CD1       63.7240   37.7500   26.5280 C.ar  377  PHE377     -0.0042
    110  CD2       65.3030   35.9510   26.3990 C.ar  377  PHE377     -0.0042
    111  CE1       63.7360   37.7130   27.9240 C.ar  377  PHE377     -0.0003
    112  CE2       65.3810   35.9040   27.8050 C.ar  377  PHE377     -0.0003
    113  CZ        64.5800   36.7860   28.5990 C.ar  377  PHE377     -0.0000
    114  N         66.2190   39.1080   25.2190 N.am  378  ILE378     -0.1980
    115  CA        67.4060   39.8410   25.6450 C.3   378  ILE378      0.1595
    116  C         68.6840   39.1110   25.2730 C.2   378  ILE378      0.2287
    117  O         69.7320   39.7160   25.1160 O.2   378  ILE378     -0.2864
    118  CB        67.4050   40.1560   27.2190 C.3   378  ILE378      0.0276
    119  CG1       67.2760   38.8790   28.0590 C.3   378  ILE378      0.0022
    120  CG2       66.2880   41.1680   27.6060 C.3   378  ILE378      0.0022
    121  CD1       67.4820   39.0690   29.5940 C.3   378  ILE378      0.0001
@<TRIPOS>BOND
     1   103   104    1
     2   106   105    2
     3   104   105    1
     4   104   107    1
     5   105   114   am
     6    71    70    2
     7   107   108    1
     8    70    69    1
     9   117   116    2
    10   114   115    1
    11    89    90    1
    12   116   115    1
    13    92    91    2
    14    91    90    1
    15   115   118    1
    16   108   110   ar
    17   108   109   ar
    18    69    68    1
    19    69    72    1
    20    90    93    1
    21   110   112   ar
    22   109   111   ar
    23    72    73    1
    24   118   120    1
    25   118   119    1
    26    93    94    1
    27   112   113   ar
    28   111   113   ar
    29    61    60    2
    30   119   121    1
    31    73    74   ar
    32    73    75   ar
    33    60    59    1
    34    94    95   ar
    35    94    96   ar
    36    95    97   ar
    37    74    76   ar
    38    75    77   ar
    39    83    82    2
    40    96    99   ar
    41    96    98   ar
    42    97    98   ar
    43    59    58    1
    44    59    62    1
    45    76    78   ar
    46    82    81    1
    47    99   101   ar
    48    98   100   ar
    49    77    78   ar
    50    78    79    1
    51    62    63    1
    52   101   102   ar
    53   100   102   ar
    54    81    80    1
    55    81    84    1
    56    84    85    1
    57    63    65   ar
    58    63    64   ar
    59    65    67   ar
    60    43    42    1
    61    64    66   ar
    62    40    42   ar
    63    40    38   ar
    64    42    41   ar
    65    85    86    1
    66    87    86   ar
    67    57    56   ar
    68    57    55   ar
    69    67    66   ar
    70    31    29   ar
    71    38    37   ar
    72    56    54   ar
    73    41    39   ar
    74    86    88   ar
    75    55    53   ar
    76    37    39   ar
    77    37    36    1
    78    29    30   ar
    79    29    28    1
    80    54    51   ar
    81    36    33    1
    82    28    27    1
    83    53    51   ar
    84    53    52   ar
    85    51    49   ar
    86    35    34    2
    87    27    24    1
    88    52    50   ar
    89    34    33    1
    90    33    32    1
    91    49    50   ar
    92    49    48    1
    93    24    23    1
    94    24    25    1
    95    22    21   ar
    96    22    20   ar
    97    48    45    1
    98    21    19   ar
    99     8     6   am
   100    25    26    2
   101     7     6    2
   102    20    18   ar
   103    44    45    1
   104     6     5    1
   105    45    46    1
   106    19    16   ar
   107    18    16   ar
   108    18    17   ar
   109     1     2    1
   110    16    14   ar
   111    46    47    2
   112     5     2    1
   113    17    15   ar
   114     2     3    1
   115    14    15   ar
   116    14    13    1
   117    13    10    1
   118     3     4    2
   119    10     9    1
   120    10    11    1
   121    12    11    2
