@<TRIPOS>MOLECULE
tmp/3ug7A00.pdb
 149 143 0 0 0
SMALL
GASTEIGER

@<TRIPOS>ATOM
      1  N        -36.6530   19.4800   -2.9740 N.3    26  GLY26      -0.1210
      2  CA       -35.9360   19.2400   -1.7390 C.3    26  GLY26       0.1956
      3  C        -35.6810   17.7560   -1.6010 C.2    26  GLY26       0.2612
      4  O        -36.4810   16.9410   -2.0610 O.2    26  GLY26      -0.2717
      5  N        -34.5790   17.3990   -0.9530 N.am   27  GLY27      -0.1942
      6  CA       -34.0980   16.0350   -1.0180 C.3    27  GLY27       0.2014
      7  C        -33.6190   15.8660   -2.4430 C.2    27  GLY27       0.2639
      8  O        -32.9900   16.7730   -2.9860 O.2    27  GLY27      -0.2714
      9  N        -33.8910   14.7130   -3.0460 N.am   28  VAL28      -0.1963
     10  CA       -33.6780   14.5180   -4.4820 C.3    28  VAL28       0.1727
     11  C        -32.1830   14.5120   -4.8650 C.2    28  VAL28       0.2617
     12  O        -31.8030   14.0470   -5.9410 O.2    28  VAL28      -0.2715
     13  CB       -34.5160   15.5540   -5.3000 C.3    28  VAL28       0.0290
     14  CG1      -34.2700   15.4430   -6.7850 C.3    28  VAL28       0.0023
     15  CG2      -35.9980   15.3740   -5.0060 C.3    28  VAL28       0.0023
     16  N        -31.3360   14.9780   -3.9510 N.am   29  GLY29      -0.1940
     17  CA       -29.8980   14.8060   -4.0630 C.3    29  GLY29       0.2014
     18  C        -29.0860   15.7350   -4.9540 C.2    29  GLY29       0.2639
     19  O        -28.0790   15.3060   -5.5090 O.2    29  GLY29      -0.2714
     20  N        -29.4840   16.9980   -5.0870 N.am   30  LYS30      -0.1963
     21  CA       -28.7260   17.9170   -5.9430 C.3    30  LYS30       0.1728
     22  C        -27.4370   18.4270   -5.2950 C.2    30  LYS30       0.2617
     23  O        -26.4510   18.6790   -5.9880 O.2    30  LYS30      -0.2715
     24  CB       -29.5910   19.0780   -6.4520 C.3    30  LYS30       0.0311
     25  CG       -30.1700   19.9810   -5.3810 C.3    30  LYS30       0.0038
     26  CD       -31.2790   20.8520   -5.9490 C.3    30  LYS30       0.0206
     27  CE       -32.2170   21.3180   -4.8530 C.3    30  LYS30       0.1093
     28  NZ       -32.7350   20.1650   -4.0680 N.3    30  LYS30      -0.1314
     29  N        -27.4440   18.5770   -3.9740 N.am   31  THR31      -0.1937
     30  CA       -26.2240   18.9020   -3.2420 C.3    31  THR31       0.2028
     31  C        -25.2480   17.7420   -3.4040 C.2    31  THR31       0.2643
     32  O        -24.0430   17.9360   -3.5860 O.2    31  THR31      -0.2714
     33  CB       -26.5020   19.1390   -1.7430 C.3    31  THR31       0.1808
     34  OG1      -27.3810   20.2600   -1.5840 O.3    31  THR31      -0.2208
     35  CG2      -25.2080   19.4060   -0.9910 C.3    31  THR31       0.0379
     36  N        -25.7970   16.5320   -3.3540 N.am   32  THR32      -0.1936
     37  CA       -25.0290   15.3080   -3.5350 C.3    32  THR32       0.2028
     38  C        -24.3650   15.2710   -4.9110 C.2    32  THR32       0.2642
     39  O        -23.1490   15.0740   -5.0200 O.2    32  THR32      -0.2714
     40  CB       -25.9310   14.0670   -3.3700 C.3    32  THR32       0.1808
     41  OG1      -26.5640   14.0990   -2.0840 O.3    32  THR32      -0.2208
     42  CG2      -25.1200   12.7920   -3.5010 C.3    32  THR32       0.0379
     43  N        -25.1690   15.4650   -5.9540 N.am   33  MET33      -0.1976
     44  CA       -24.6710   15.4640   -7.3280 C.3    33  MET33       0.1605
     45  C        -23.6430   16.5690   -7.5320 C.2    33  MET33       0.2287
     46  O        -22.6800   16.4020   -8.2800 O.2    33  MET33      -0.2864
     47  CB       -25.8190   15.6410   -8.3270 C.3    33  MET33       0.0413
     48  CG       -26.9100   14.5800   -8.2710 C.3    33  MET33       0.0598
     49  SD       -26.3560   12.9050   -8.6370 S.3    33  MET33      -0.1393
     50  CE       -26.1630   12.2300   -6.9890 C.3    33  MET33       0.0692
     51  N        -25.3230   22.0490    3.9510 N.3    58  SER58      -0.1217
     52  CA       -25.2670   20.6310    3.5990 C.3    58  SER58       0.1889
     53  C        -23.8500   20.1460    3.2990 C.2    58  SER58       0.2288
     54  O        -23.4740   19.0330    3.6750 O.2    58  SER58      -0.2866
     55  CB       -26.1760   20.3440    2.4020 C.3    58  SER58       0.2089
     56  OG       -27.5250   20.6680    2.6940 O.3    58  SER58      -0.2183
     57  N        -21.8170   16.6970    4.2430 N.3    62  ILE62      -0.1245
     58  CA       -21.3110   15.7720    3.2290 C.3    62  ILE62       0.1561
     59  C        -19.7880   15.6540    3.2700 C.2    62  ILE62       0.2260
     60  O        -19.2460   14.5520    3.3520 O.2    62  ILE62      -0.2867
     61  CB       -21.7770   16.1580    1.8060 C.3    62  ILE62       0.0252
     62  CG1      -23.2080   15.6700    1.5690 C.3    62  ILE62       0.0019
     63  CG2      -20.8490   15.5700    0.7520 C.3    62  ILE62       0.0019
     64  CD1      -23.6430   15.7080    0.1180 C.3    62  ILE62       0.0001
     65  N        -32.2720    9.7420   -9.6160 N.3   258  ASN258     -0.1225
     66  CA       -31.4530    9.4230   -8.4550 C.3   258  ASN258      0.1785
     67  C        -32.1690    8.5300   -7.4490 C.2   258  ASN258      0.2597
     68  O        -33.3990    8.4480   -7.4430 O.2   258  ASN258     -0.2718
     69  CB       -30.9980   10.7150   -7.7720 C.3   258  ASN258      0.1169
     70  CG       -29.8940   10.4860   -6.7610 C.2   258  ASN258      0.2627
     71  OD1      -29.1140    9.5430   -6.8810 O.2   258  ASN258     -0.2716
     72  ND2      -29.8240   11.3490   -5.7570 N.am  258  ASN258     -0.0877
     73  N        -31.3810    7.8690   -6.6040 N.am  259  GLN259     -0.1979
     74  CA       -31.8910    6.9790   -5.5660 C.3   259  GLN259      0.1601
     75  C        -32.6960    5.8310   -6.1590 C.2   259  GLN259      0.2287
     76  O        -33.6860    5.3880   -5.5750 O.2   259  GLN259     -0.2864
     77  CB       -32.7200    7.7520   -4.5360 C.3   259  GLN259      0.0394
     78  CG       -31.9410    8.8380   -3.8150 C.3   259  GLN259      0.0908
     79  CD       -32.8060    9.6550   -2.8770 C.2   259  GLN259      0.2608
     80  OE1      -33.7340    9.1350   -2.2570 O.2   259  GLN259     -0.2717
     81  NE2      -32.5100   10.9450   -2.7740 N.am  259  GLN259     -0.0878
     82  N        -28.7000    6.9820  -11.2770 N.3   296  VAL296     -0.1231
     83  CA       -27.8910    6.6740  -10.1080 C.3   296  VAL296      0.1678
     84  C        -28.7270    5.8060   -9.1720 C.2   296  VAL296      0.2434
     85  O        -29.9200    6.0640   -8.9670 O.2   296  VAL296     -0.2733
     86  CB       -27.4450    7.9680   -9.3920 C.3   296  VAL296      0.0265
     87  CG1      -26.6450    7.6560   -8.1370 C.3   296  VAL296      0.0020
     88  CG2      -26.6330    8.8390  -10.3370 C.3   296  VAL296      0.0020
     89  N        -28.1070    4.7730   -8.5850 N.am  297  PRO297     -0.2718
     90  CA       -28.9530    3.9000   -7.7760 C.3   297  PRO297      0.1535
     91  C        -29.0950    4.4140   -6.3540 C.2   297  PRO297      0.2598
     92  O        -28.4640    5.4040   -5.9870 O.2   297  PRO297     -0.2715
     93  CB       -28.1780    2.5830   -7.7740 C.3   297  PRO297      0.0310
     94  CG       -26.7540    3.0030   -7.8830 C.3   297  PRO297      0.0237
     95  CD       -26.7550    4.2180   -8.7740 C.3   297  PRO297      0.0939
     96  N        -29.9170    3.7330   -5.5640 N.am  298  LEU298     -0.1964
     97  CA       -30.0310    4.0380   -4.1500 C.3   298  LEU298      0.1728
     98  C        -28.9410    3.2450   -3.4570 C.2   298  LEU298      0.2616
     99  O        -28.9410    2.0150   -3.4950 O.2   298  LEU298     -0.2715
    100  CB       -31.4070    3.6310   -3.6240 C.3   298  LEU298      0.0311
    101  CG       -31.6920    3.8870   -2.1440 C.3   298  LEU298      0.0022
    102  CD1      -31.6470    5.3750   -1.8340 C.3   298  LEU298      0.0001
    103  CD2      -33.0350    3.2950   -1.7450 C.3   298  LEU298      0.0001
    104  N        -28.0050    3.9450   -2.8300 N.am  299  LEU299     -0.1977
    105  CA       -26.8350    3.2840   -2.2730 C.3   299  LEU299      0.1596
    106  C        -27.1760    2.5390   -0.9900 C.2   299  LEU299      0.2287
    107  O        -28.0090    2.9910   -0.2020 O.2   299  LEU299     -0.2864
    108  CB       -25.6990    4.2820   -2.0270 C.3   299  LEU299      0.0297
    109  CG       -25.1600    5.0920   -3.2110 C.3   299  LEU299      0.0022
    110  CD1      -23.7170    5.5090   -2.9560 C.3   299  LEU299      0.0001
    111  CD2      -25.2790    4.3300   -4.5250 C.3   299  LEU299      0.0001
    112  N        -25.1410    2.1840    1.4720 N.3   301  THR301     -0.1203
    113  CA       -24.6990    3.1760    2.4390 C.3   301  THR301      0.1994
    114  C        -25.3990    4.5080    2.2020 C.2   301  THR301      0.2618
    115  O        -25.8110    4.8100    1.0830 O.2   301  THR301     -0.2717
    116  CB       -23.1800    3.3970    2.3410 C.3   301  THR301      0.1784
    117  OG1      -22.8230    4.5960    3.0390 O.3   301  THR301     -0.2211
    118  CG2      -22.7590    3.5260    0.8840 C.3   301  THR301      0.0376
    119  N        -25.5450    5.2990    3.2600 N.am  302  GLU302     -0.1965
    120  CA       -25.9770    6.6820    3.1170 C.3   302  GLU302      0.1733
    121  C        -24.8490    7.3920    2.3860 C.2   302  GLU302      0.2616
    122  O        -23.6850    7.0340    2.5660 O.2   302  GLU302     -0.2715
    123  CB       -26.2010    7.3050    4.4950 C.3   302  GLU302      0.0429
    124  CG       -26.6350    8.7620    4.4780 C.3   302  GLU302      0.1163
    125  CD       -26.8250    9.3270    5.8750 C.2   302  GLU302      0.3649
    126  OE1      -26.7150    8.5530    6.8500 O.co2 302  GLU302     -0.2457
    127  OE2      -27.0830   10.5430    5.9970 O.co2 302  GLU302     -0.2457
    128  N        -25.1580    8.3950    1.5700 N.am  303  ALA303     -0.1963
    129  CA       -24.0930    9.0040    0.7880 C.3   303  ALA303      0.1728
    130  C        -23.5050   10.1530    1.5860 C.2   303  ALA303      0.2616
    131  O        -24.1020   11.2220    1.7070 O.2   303  ALA303     -0.2715
    132  CB       -24.6300    9.5020   -0.5430 C.3   303  ALA303      0.0334
    133  N        -22.3130    9.9120    2.1180 N.am  304  LYS304     -0.1977
    134  CA       -21.6510   10.8680    2.9880 C.3   304  LYS304      0.1596
    135  C        -20.1790   11.0280    2.6370 C.2   304  LYS304      0.2287
    136  O        -19.7470   12.0720    2.1530 O.2   304  LYS304     -0.2864
    137  CB       -21.7940   10.4270    4.4440 C.3   304  LYS304      0.0298
    138  CG       -21.3070   11.4470    5.4490 C.3   304  LYS304      0.0038
    139  CD       -22.4270   11.8740    6.3810 C.3   304  LYS304      0.0206
    140  CE       -23.6290   12.3820    5.6030 C.3   304  LYS304      0.1093
    141  NZ       -24.6450   13.0020    6.4950 N.3   304  LYS304     -0.1314
    142  N        -20.2580    7.5090   -6.6760 N.3   312  ILE312     -0.1245
    143  CA       -21.2970    8.1900   -7.4440 C.3   312  ILE312      0.1561
    144  C        -20.6980    8.8940   -8.6580 C.2   312  ILE312      0.2260
    145  O        -21.2940    8.9100   -9.7380 O.2   312  ILE312     -0.2867
    146  CB       -22.0620    9.2120   -6.5770 C.3   312  ILE312      0.0252
    147  CG1      -22.7850    8.5020   -5.4320 C.3   312  ILE312      0.0019
    148  CG2      -23.0620    9.9950   -7.4150 C.3   312  ILE312      0.0019
    149  CD1      -23.6000    9.4300   -4.5570 C.3   312  ILE312      0.0001
@<TRIPOS>BOND
     1    82    83    1
     2    88    86    1
     3    83    86    1
     4    83    84    1
     5   145   144    2
     6    65    66    1
     7    86    87    1
     8    84    85    2
     9    84    89   am
    10    95    89    1
    11    95    94    1
    12   144   143    1
    13    49    48    1
    14    49    50    1
    15    89    90    1
    16    66    69    1
    17    66    67    1
    18    47    48    1
    19    47    44    1
    20    46    45    2
    21    94    93    1
    22    90    93    1
    23    90    91    1
    24    69    70    1
    25    45    44    1
    26    67    68    2
    27    67    73   am
    28   143   142    1
    29   143   146    1
    30   148   146    1
    31    44    43    1
    32    71    70    2
    33    14    13    1
    34    70    72   am
    35    73    74    1
    36   146   147    1
    37    24    21    1
    38    24    25    1
    39    91    92    2
    40    91    96   am
    41    75    76    2
    42    75    74    1
    43    23    22    2
    44    43    38   am
    45    26    25    1
    46    26    27    1
    47    21    22    1
    48    21    20    1
    49    12    11    2
    50    74    77    1
    51    96    97    1
    52    19    18    2
    53   147   149    1
    54    13    15    1
    55    13    10    1
    56    22    29   am
    57    20    18   am
    58    39    38    2
    59    18    17    1
    60    38    37    1
    61    11    10    1
    62    11    16   am
    63    27    28    1
    64    77    78    1
    65   111   109    1
    66    10     9    1
    67    97   100    1
    68    97    98    1
    69    17    16    1
    70    29    30    1
    71    78    79    1
    72   100   101    1
    73    32    31    2
    74    37    40    1
    75    37    36    1
    76    42    40    1
    77    99    98    2
    78    98   104   am
    79    31    36   am
    80    31    30    1
    81    40    41    1
    82    30    33    1
    83   109   110    1
    84   109   108    1
    85     9     7   am
    86     8     7    2
    87     1     2    1
    88    79    81   am
    89    79    80    2
    90   104   105    1
    91     7     6    1
    92   105   108    1
    93   105   106    1
    94   101   102    1
    95   101   103    1
    96     4     3    2
    97    33    34    1
    98    33    35    1
    99     2     3    1
   100     3     5   am
   101     6     5    1
   102   106   107    2
   103   132   129    1
   104    64    62    1
   105    63    61    1
   106   129   128    1
   107   129   130    1
   108   118   116    1
   109   115   114    2
   110   112   113    1
   111    62    61    1
   112   128   121   am
   113   130   131    2
   114   130   133   am
   115    61    58    1
   116   133   134    1
   117   136   135    2
   118   114   113    1
   119   114   119   am
   120   116   113    1
   121   116   117    1
   122   121   122    2
   123   121   120    1
   124    55    56    1
   125    55    52    1
   126   135   134    1
   127   134   137    1
   128   120   119    1
   129   120   123    1
   130    58    59    1
   131    58    57    1
   132    59    60    2
   133    53    52    1
   134    53    54    2
   135    52    51    1
   136   137   138    1
   137   124   123    1
   138   124   125    1
   139   138   139    1
   140   140   139    1
   141   140   141    1
   142   125   127   ar
   143   125   126   ar
