@<TRIPOS>MOLECULE
tmp/3ug9A03.pdb
 93 91 0 0 0
SMALL
GASTEIGER

@<TRIPOS>ATOM
      1  N         -7.1560   20.2750   13.1300 N.3   153  LYS153     -0.1231
      2  CA        -7.1870   19.4070   11.9660 C.3   153  LYS153      0.1693
      3  C         -8.4090   19.7850   11.1550 C.2   153  LYS153      0.2592
      4  O         -9.3130   20.4380   11.6670 O.2   153  LYS153     -0.2718
      5  CB        -7.3000   17.9220   12.3880 C.3   153  LYS153      0.0285
      6  CG        -6.2420   17.4580   13.3930 C.3   153  LYS153      0.0035
      7  CD        -5.5710   16.1510   12.9630 C.3   153  LYS153      0.0206
      8  CE        -4.5710   16.3830   11.8300 C.3   153  LYS153      0.1093
      9  NZ        -3.7470   15.1700   11.5370 N.3   153  LYS153     -0.1314
     10  N         -8.4230   19.3670    9.8930 N.am  154  GLY154     -0.1957
     11  CA        -9.5680   19.5250    9.0130 C.3   154  GLY154      0.1869
     12  C        -10.2710   20.8710    8.9910 C.2   154  GLY154      0.2309
     13  O         -9.6420   21.9240    8.8930 O.2   154  GLY154     -0.2863
     14  N         -9.2910   23.4710   11.7270 N.3   157  ARG157     -0.1231
     15  CA        -8.0480   24.0970   11.3330 C.3   157  ARG157      0.1694
     16  C         -8.2840   25.1550   10.2580 C.2   157  ARG157      0.2591
     17  O         -7.7740   26.2740   10.3630 O.2   157  ARG157     -0.2718
     18  CB        -7.0480   23.0720   10.8310 C.3   157  ARG157      0.0321
     19  CG        -5.9200   23.7220   10.0350 C.3   157  ARG157      0.0489
     20  CD        -4.9210   22.7020    9.6070 C.3   157  ARG157      0.2205
     21  NE        -4.1410   22.2290   10.7400 N.pl3 157  ARG157     -0.0865
     22  CZ        -3.2670   21.2340   10.6790 C.cat 157  ARG157      0.5346
     23  NH1       -3.0540   20.6090    9.5280 N.pl3 157  ARG157      0.1354
     24  NH2       -2.6070   20.8700   11.7670 N.pl3 157  ARG157      0.1354
     25  N         -9.0570   24.8020    9.2310 N.am  158  VAL158     -0.1980
     26  CA        -9.4220   25.7480    8.1810 C.3   158  VAL158      0.1595
     27  C        -10.0860   27.0070    8.7440 C.2   158  VAL158      0.2287
     28  O         -9.7070   28.1350    8.3800 O.2   158  VAL158     -0.2864
     29  CB       -10.3480   25.1130    7.1090 C.3   158  VAL158      0.0276
     30  CG1      -10.7700   26.1590    6.0780 C.3   158  VAL158      0.0022
     31  CG2       -9.6560   23.9420    6.4220 C.3   158  VAL158      0.0022
     32  N         -7.4580   29.1090   10.7450 N.3   161  PHE161     -0.1227
     33  CA        -6.5620   29.7220    9.7890 C.3   161  PHE161      0.1736
     34  C         -7.2600   30.8980    9.1190 C.2   161  PHE161      0.2595
     35  O         -6.6570   31.9610    8.9380 O.2   161  PHE161     -0.2718
     36  CB        -6.0720   28.7280    8.7330 C.3   161  PHE161      0.0547
     37  CG        -5.2290   29.3690    7.6660 C.ar  161  PHE161     -0.0202
     38  CD1       -3.8470   29.4360    7.8040 C.ar  161  PHE161     -0.0042
     39  CD2       -5.8180   29.9410    6.5460 C.ar  161  PHE161     -0.0042
     40  CE1       -3.0670   30.0460    6.8330 C.ar  161  PHE161     -0.0003
     41  CE2       -5.0420   30.5640    5.5730 C.ar  161  PHE161     -0.0003
     42  CZ        -3.6670   30.6200    5.7210 C.ar  161  PHE161     -0.0000
     43  N         -8.5260   30.7060    8.7560 N.am  162  LEU162     -0.1980
     44  CA        -9.2850   31.7660    8.1000 C.3   162  LEU162      0.1596
     45  C         -9.5470   32.9340    9.0470 C.2   162  LEU162      0.2287
     46  O         -9.4840   34.0890    8.6440 O.2   162  LEU162     -0.2864
     47  CB       -10.5880   31.2330    7.4970 C.3   162  LEU162      0.0297
     48  CG       -10.3910   30.4260    6.2080 C.3   162  LEU162      0.0022
     49  CD1      -11.6800   29.7080    5.7770 C.3   162  LEU162      0.0001
     50  CD2       -9.8590   31.3140    5.0900 C.3   162  LEU162      0.0001
     51  N          2.5190   28.4260    6.2570 N.3   213  PHE213     -0.1227
     52  CA         1.5590   27.6340    7.0320 C.3   213  PHE213      0.1736
     53  C          0.7570   26.7550    6.0750 C.2   213  PHE213      0.2595
     54  O          0.6400   25.5390    6.2770 O.2   213  PHE213     -0.2718
     55  CB         0.6330   28.5680    7.8140 C.3   213  PHE213      0.0547
     56  CG        -0.2770   27.8790    8.7840 C.ar  213  PHE213     -0.0202
     57  CD1       -0.1440   28.1080   10.1410 C.ar  213  PHE213     -0.0042
     58  CD2       -1.3000   27.0350    8.3420 C.ar  213  PHE213     -0.0042
     59  CE1       -1.0000   27.4920   11.0500 C.ar  213  PHE213     -0.0003
     60  CE2       -2.1530   26.4200    9.2400 C.ar  213  PHE213     -0.0003
     61  CZ        -2.0010   26.6480   10.6000 C.ar  213  PHE213     -0.0000
     62  N          0.2110   27.3770    5.0330 N.am  214  ILE214     -0.1980
     63  CA        -0.4950   26.6480    3.9840 C.3   214  ILE214      0.1595
     64  C          0.3680   25.5220    3.3790 C.2   214  ILE214      0.2287
     65  O         -0.1160   24.4200    3.1550 O.2   214  ILE214     -0.2864
     66  CB        -0.9920   27.6070    2.8870 C.3   214  ILE214      0.0276
     67  CG1       -2.1760   28.4310    3.3990 C.3   214  ILE214      0.0022
     68  CG2       -1.4060   26.8390    1.6490 C.3   214  ILE214      0.0022
     69  CD1       -2.5490   29.6320    2.4850 C.3   214  ILE214      0.0001
     70  N          1.2530   21.9010    9.0000 N.3   218  GLU218     -0.1231
     71  CA        -0.0170   22.5030    9.4320 C.3   218  GLU218      0.1699
     72  C         -0.9850   22.7250    8.2720 C.2   218  GLU218      0.2593
     73  O         -2.1370   23.0540    8.4890 O.2   218  GLU218     -0.2718
     74  CB         0.1990   23.8700   10.0890 C.3   218  GLU218      0.0402
     75  CG         1.5890   24.1510   10.6250 C.3   218  GLU218      0.1161
     76  CD         2.5710   24.5710    9.5520 C.2   218  GLU218      0.3649
     77  OE1        2.7420   25.7860    9.3200 O.co2 218  GLU218     -0.2457
     78  OE2        3.1890   23.6790    8.9520 O.co2 218  GLU218     -0.2457
     79  N         -0.5100   22.5940    7.0410 N.am  219  GLY219     -0.1942
     80  CA        -1.3430   22.8870    5.8950 C.3   219  GLY219      0.2014
     81  C         -1.5590   21.7030    4.9870 C.2   219  GLY219      0.2638
     82  O         -2.2560   20.7580    5.3420 O.2   219  GLY219     -0.2714
     83  N         -0.9500   21.7560    3.8090 N.am  220  PHE220     -0.1973
     84  CA        -1.0690   20.6830    2.8340 C.3   220  PHE220      0.1639
     85  C          0.2350   19.8970    2.7100 C.2   220  PHE220      0.2290
     86  O          0.4560   19.1700    1.7320 O.2   220  PHE220     -0.2864
     87  CB        -1.5070   21.2510    1.4890 C.3   220  PHE220      0.0560
     88  CG        -2.8270   21.9630    1.5480 C.ar  220  PHE220     -0.0200
     89  CD1       -4.0120   21.2450    1.6670 C.ar  220  PHE220     -0.0042
     90  CD2       -2.8890   23.3510    1.5030 C.ar  220  PHE220     -0.0042
     91  CE1       -5.2380   21.8980    1.7290 C.ar  220  PHE220     -0.0003
     92  CE2       -4.1140   24.0150    1.5620 C.ar  220  PHE220     -0.0003
     93  CZ        -5.2880   23.2920    1.6760 C.ar  220  PHE220     -0.0000
@<TRIPOS>BOND
     1    87    88    1
     2    87    84    1
     3    90    88   ar
     4    90    92   ar
     5    88    89   ar
     6    92    93   ar
     7    68    66    1
     8    89    91   ar
     9    93    91   ar
    10    86    85    2
    11    69    67    1
    12    85    84    1
    13    84    83    1
    14    66    67    1
    15    66    63    1
    16    65    64    2
    17    64    63    1
    18    83    81   am
    19    63    62    1
    20    81    82    2
    21    81    80    1
    22    62    53   am
    23    50    48    1
    24    41    42   ar
    25    41    39   ar
    26    42    40   ar
    27    49    48    1
    28    80    79    1
    29    53    54    2
    30    53    52    1
    31    30    29    1
    32    48    47    1
    33    51    52    1
    34    31    29    1
    35    39    37   ar
    36    40    38   ar
    37    52    55    1
    38    79    72   am
    39    29    26    1
    40    47    44    1
    41    37    38   ar
    42    37    36    1
    43    55    56    1
    44    44    43    1
    45    44    45    1
    46    26    27    1
    47    26    25    1
    48    72    73    2
    49    72    71    1
    50    58    56   ar
    51    58    60   ar
    52    28    27    2
    53    46    45    2
    54    36    33    1
    55    43    34   am
    56    56    57   ar
    57    13    12    2
    58    35    34    2
    59    78    76   ar
    60    12    11    1
    61    70    71    1
    62    11    10    1
    63    34    33    1
    64    25    16   am
    65    60    61   ar
    66    77    76   ar
    67    71    74    1
    68    23    22    1
    69    76    75    1
    70    20    19    1
    71    20    21    1
    72    33    32    1
    73    10     3   am
    74    19    18    1
    75    74    75    1
    76    57    59   ar
    77    16    17    2
    78    16    15    1
    79    61    59   ar
    80    22    21    2
    81    22    24    1
    82    18    15    1
    83     3     4    2
    84     3     2    1
    85    15    14    1
    86     9     8    1
    87     8     7    1
    88     2     5    1
    89     2     1    1
    90     5     6    1
    91     7     6    1
