@<TRIPOS>MOLECULE
tmp/3ugcA00.pdb
 241 233 0 0 0
SMALL
GASTEIGER

@<TRIPOS>ATOM
      1  N         10.0490  -15.2320  -26.8470 N.3    13  LEU13      -0.1245
      2  CA        10.1220  -14.9250  -25.4090 C.3    13  LEU13       0.1561
      3  C         10.8880  -13.6600  -25.0410 C.2    13  LEU13       0.2260
      4  O         10.5290  -12.9970  -24.0690 O.2    13  LEU13      -0.2867
      5  CB        10.6960  -16.1010  -24.6240 C.3    13  LEU13       0.0270
      6  CG         9.8820  -17.3930  -24.6440 C.3    13  LEU13       0.0019
      7  CD1       10.6070  -18.4840  -23.9610 C.3    13  LEU13       0.0001
      8  CD2        8.5170  -17.1900  -24.0170 C.3    13  LEU13       0.0001
      9  N         15.4690  -15.5040  -27.3670 N.3    21  VAL21      -0.1245
     10  CA        14.9330  -16.7110  -26.7430 C.3    21  VAL21       0.1561
     11  C         13.5290  -16.9740  -27.2520 C.2    21  VAL21       0.2260
     12  O         12.7140  -16.0470  -27.3530 O.2    21  VAL21      -0.2867
     13  CB        14.9970  -16.6780  -25.1750 C.3    21  VAL21       0.0252
     14  CG1       14.4350  -17.9760  -24.5870 C.3    21  VAL21       0.0019
     15  CG2       16.4260  -16.4550  -24.6770 C.3    21  VAL21       0.0019
     16  N         12.7240  -23.8340  -23.6060 N.3    38  ALA38      -0.1245
     17  CA        13.1560  -22.4940  -23.9960 C.3    38  ALA38       0.1562
     18  C         14.4560  -22.6630  -24.7840 C.2    38  ALA38       0.2260
     19  O         15.3110  -23.5040  -24.4280 O.2    38  ALA38      -0.2867
     20  CB        13.3840  -21.6150  -22.7710 C.3    38  ALA38       0.0290
     21  N         17.6980  -20.5980  -26.7080 N.3    40  LYS40      -0.1245
     22  CA        18.4490  -19.3620  -26.8870 C.3    40  LYS40       0.1561
     23  C         19.2850  -19.5020  -28.1670 C.2    40  LYS40       0.2260
     24  O         19.9370  -20.5180  -28.3710 O.2    40  LYS40      -0.2867
     25  CB        19.3670  -19.0600  -25.6690 C.3    40  LYS40       0.0271
     26  CG        20.2440  -17.8230  -25.8750 C.3    40  LYS40       0.0035
     27  CD        21.0510  -17.4510  -24.6140 C.3    40  LYS40       0.0206
     28  CE        21.9960  -16.2930  -24.8540 C.3    40  LYS40       0.1093
     29  NZ        22.6900  -15.9540  -23.5720 N.3    40  LYS40      -0.1314
     30  N         29.1530  -20.1180  -21.9030 N.3    56  GLU56      -0.1245
     31  CA        27.8800  -20.1600  -21.2060 C.3    56  GLU56       0.1567
     32  C         27.3590  -21.5970  -21.1550 C.2    56  GLU56       0.2260
     33  O         26.9050  -22.0750  -20.1110 O.2    56  GLU56      -0.2867
     34  CB        26.8900  -19.2810  -21.9440 C.3    56  GLU56       0.0388
     35  CG        25.4740  -19.3540  -21.3860 C.3    56  GLU56       0.1160
     36  CD        24.5220  -18.3040  -21.9110 C.2    56  GLU56       0.3649
     37  OE1       24.7030  -17.7940  -23.0430 O.co2  56  GLU56      -0.2457
     38  OE2       23.5190  -18.0590  -21.2100 O.co2  56  GLU56      -0.2457
     39  N         29.3250  -23.5450  -18.6120 N.3    59  ILE59      -0.1231
     40  CA        28.9090  -23.1940  -17.2430 C.3    59  ILE59       0.1692
     41  C         27.6070  -23.9280  -16.9190 C.2    59  ILE59       0.2591
     42  O         27.4800  -24.5590  -15.8650 O.2    59  ILE59      -0.2718
     43  CB        28.7220  -21.6730  -17.1320 C.3    59  ILE59       0.0266
     44  CG1       30.0940  -20.9480  -17.1320 C.3    59  ILE59       0.0019
     45  CG2       27.9140  -21.2980  -15.8470 C.3    59  ILE59       0.0020
     46  CD1       30.0110  -19.4250  -17.3910 C.3    59  ILE59       0.0001
     47  N         26.6320  -23.8740  -17.8310 N.am   60  LEU60      -0.1980
     48  CA        25.3450  -24.4980  -17.5700 C.3    60  LEU60       0.1596
     49  C         25.3860  -25.9990  -17.4360 C.2    60  LEU60       0.2287
     50  O         24.6740  -26.5590  -16.6030 O.2    60  LEU60      -0.2864
     51  CB        24.3430  -24.0690  -18.6370 C.3    60  LEU60       0.0297
     52  CG        23.9230  -22.6060  -18.5340 C.3    60  LEU60       0.0022
     53  CD1       23.2570  -22.1390  -19.8400 C.3    60  LEU60       0.0001
     54  CD2       23.0050  -22.3910  -17.2880 C.3    60  LEU60       0.0001
     55  N         26.0080  -26.9660  -13.7950 N.3    63  LEU63      -0.1245
     56  CA        25.1090  -26.5520  -12.7240 C.3    63  LEU63       0.1561
     57  C         23.8490  -27.3620  -12.6290 C.2    63  LEU63       0.2260
     58  O         23.0860  -27.4410  -13.5990 O.2    63  LEU63      -0.2867
     59  CB        24.7300  -25.0610  -12.8950 C.3    63  LEU63       0.0270
     60  CG        25.8970  -24.0800  -12.9620 C.3    63  LEU63       0.0019
     61  CD1       25.3820  -22.6850  -13.2940 C.3    63  LEU63       0.0001
     62  CD2       26.6720  -24.0030  -11.6490 C.3    63  LEU63       0.0001
     63  N         18.5130  -22.9560   -9.6600 N.3    68  ILE68      -0.1231
     64  CA        19.2980  -22.5020  -10.8140 C.3    68  ILE68       0.1692
     65  C         18.5830  -23.0090  -12.0620 C.2    68  ILE68       0.2591
     66  O         18.1260  -24.1670  -12.0910 O.2    68  ILE68      -0.2718
     67  CB        20.7680  -22.9900  -10.7870 C.3    68  ILE68       0.0266
     68  CG1       21.4660  -22.5000   -9.4910 C.3    68  ILE68       0.0019
     69  CG2       21.5250  -22.5850  -12.0840 C.3    68  ILE68       0.0020
     70  CD1       21.9120  -21.0720   -9.4510 C.3    68  ILE68       0.0001
     71  N         18.5120  -22.1670  -13.0970 N.am   69  VAL69      -0.1980
     72  CA        17.8730  -22.5910  -14.3610 C.3    69  VAL69       0.1595
     73  C         18.4500  -23.9120  -14.8420 C.2    69  VAL69       0.2287
     74  O         19.6460  -24.1670  -14.6990 O.2    69  VAL69      -0.2864
     75  CB        17.9980  -21.5130  -15.4470 C.3    69  VAL69       0.0276
     76  CG1       17.1090  -20.3320  -15.1410 C.3    69  VAL69       0.0022
     77  CG2       19.4500  -21.1070  -15.6950 C.3    69  VAL69       0.0022
     78  N         20.8700  -23.1500  -27.6770 N.3    85  LEU85      -0.1245
     79  CA        20.9200  -23.7020  -26.3250 C.3    85  LEU85       0.1561
     80  C         19.5050  -24.0280  -25.8490 C.2    85  LEU85       0.2260
     81  O         18.6290  -23.1850  -25.9630 O.2    85  LEU85      -0.2867
     82  CB        21.5820  -22.6470  -25.4350 C.3    85  LEU85       0.0270
     83  CG        21.4720  -22.8090  -23.9210 C.3    85  LEU85       0.0019
     84  CD1       22.1020  -24.0920  -23.4360 C.3    85  LEU85       0.0001
     85  CD2       22.1150  -21.6150  -23.2390 C.3    85  LEU85       0.0001
     86  N         16.9020  -25.1140  -22.8270 N.3    87  MET87      -0.1230
     87  CA        16.6840  -25.0390  -21.3740 C.3    87  MET87       0.1702
     88  C         15.2800  -25.4730  -21.0250 C.2    87  MET87       0.2592
     89  O         14.3830  -25.4770  -21.8680 O.2    87  MET87      -0.2718
     90  CB        16.7710  -23.5580  -20.9130 C.3    87  MET87       0.0401
     91  CG        18.0530  -22.8410  -21.2960 C.3    87  MET87       0.0596
     92  SD        19.5420  -23.4690  -20.5050 S.3    87  MET87      -0.1393
     93  CE        19.3050  -22.9210  -18.7830 C.3    87  MET87       0.0692
     94  N         15.0540  -25.7710  -19.7400 N.am   88  GLU88      -0.1966
     95  CA        13.6870  -25.9790  -19.2540 C.3    88  GLU88       0.1733
     96  C         12.8700  -24.6790  -19.4780 C.2    88  GLU88       0.2616
     97  O         13.3820  -23.5480  -19.3390 O.2    88  GLU88      -0.2715
     98  CB        13.7590  -26.2620  -17.7470 C.3    88  GLU88       0.0429
     99  CG        13.5630  -25.0280  -16.8710 C.3    88  GLU88       0.1163
    100  CD        14.2710  -24.8590  -15.5420 C.2    88  GLU88       0.3649
    101  OE1       14.9670  -23.8300  -15.3530 O.co2  88  GLU88      -0.2457
    102  OE2       14.0310  -25.6980  -14.6470 O.co2  88  GLU88      -0.2457
    103  N         11.5860  -24.8260  -19.7780 N.am   89  TYR89      -0.1960
    104  CA        10.6960  -23.6880  -19.9180 C.3    89  TYR89       0.1771
    105  C         10.0500  -23.3900  -18.5640 C.2    89  TYR89       0.2619
    106  O          9.4630  -24.2640  -17.9380 O.2    89  TYR89      -0.2715
    107  CB         9.6190  -23.9740  -20.9830 C.3    89  TYR89       0.0574
    108  CG         8.6330  -22.8350  -21.0870 C.ar   89  TYR89      -0.0198
    109  CD1        8.9770  -21.6520  -21.7260 C.ar   89  TYR89      -0.0009
    110  CD2        7.3620  -22.9300  -20.5210 C.ar   89  TYR89      -0.0009
    111  CE1        8.1000  -20.5690  -21.7690 C.ar   89  TYR89       0.0417
    112  CE2        6.4600  -21.8590  -20.5780 C.ar   89  TYR89       0.0417
    113  CZ         6.8310  -20.6810  -21.2110 C.ar   89  TYR89       0.1957
    114  OH         6.0080  -19.5730  -21.2620 O.3    89  TYR89      -0.2866
    115  N         10.1350  -22.1250  -18.1540 N.am   90  LEU90      -0.1964
    116  CA         9.5400  -21.6490  -16.8970 C.3    90  LEU90       0.1713
    117  C          8.4090  -20.7180  -17.2110 C.2    90  LEU90       0.2458
    118  O          8.6410  -19.6710  -17.7890 O.2    90  LEU90      -0.2730
    119  CB        10.5890  -20.9930  -15.9970 C.3    90  LEU90       0.0310
    120  CG        11.7360  -21.9390  -15.6680 C.3    90  LEU90       0.0022
    121  CD1       12.8750  -21.1880  -14.9740 C.3    90  LEU90       0.0001
    122  CD2       11.2680  -23.1020  -14.8050 C.3    90  LEU90       0.0001
    123  N          7.1630  -21.1100  -16.8860 N.am   91  PRO91      -0.2716
    124  CA         6.0150  -20.3430  -17.3940 C.3    91  PRO91       0.1536
    125  C          5.8690  -18.8890  -17.0250 C.2    91  PRO91       0.2599
    126  O          5.3420  -18.1010  -17.7870 O.2    91  PRO91      -0.2715
    127  CB         4.8040  -21.1580  -16.9300 C.3    91  PRO91       0.0310
    128  CG         5.3140  -22.5370  -16.8580 C.3    91  PRO91       0.0237
    129  CD         6.7350  -22.3940  -16.3070 C.3    91  PRO91       0.0939
    130  N          6.3520  -18.5190  -15.8200 N.am   92  TYR92      -0.1960
    131  CA         6.1370  -17.1660  -15.3400 C.3    92  TYR92       0.1771
    132  C          7.1780  -16.1760  -15.6910 C.2    92  TYR92       0.2620
    133  O          7.0560  -15.0130  -15.3140 O.2    92  TYR92      -0.2715
    134  CB         5.7920  -17.1730  -13.8560 C.3    92  TYR92       0.0574
    135  CG         4.4560  -17.8160  -13.6270 C.ar   92  TYR92      -0.0198
    136  CD1        3.2770  -17.1130  -13.8620 C.ar   92  TYR92      -0.0009
    137  CD2        4.3600  -19.1470  -13.2690 C.ar   92  TYR92      -0.0009
    138  CE1        2.0390  -17.7090  -13.6900 C.ar   92  TYR92       0.0417
    139  CE2        3.1220  -19.7660  -13.1190 C.ar   92  TYR92       0.0417
    140  CZ         1.9640  -19.0340  -13.3230 C.ar   92  TYR92       0.1957
    141  OH         0.7260  -19.6120  -13.1660 O.3    92  TYR92      -0.2866
    142  N          8.2000  -16.6040  -16.4300 N.am   93  GLY93      -0.1954
    143  CA         9.2010  -15.6830  -16.9130 C.3    93  GLY93       0.1869
    144  C         10.0240  -15.0500  -15.8070 C.2    93  GLY93       0.2309
    145  O         10.2700  -15.6980  -14.7850 O.2    93  GLY93      -0.2863
    146  N         26.1310  -21.7080   -6.5160 N.3   125  LEU125     -0.1245
    147  CA        27.0000  -21.1380   -7.5370 C.3   125  LEU125      0.1561
    148  C         28.3940  -20.8840   -7.0060 C.2   125  LEU125      0.2260
    149  O         29.3870  -21.1000   -7.7240 O.2   125  LEU125     -0.2867
    150  CB        26.4140  -19.8060   -8.0280 C.3   125  LEU125      0.0270
    151  CG        26.9540  -19.2100   -9.2990 C.3   125  LEU125      0.0019
    152  CD1       26.5600  -20.0320  -10.5440 C.3   125  LEU125      0.0001
    153  CD2       26.4500  -17.7970   -9.4720 C.3   125  LEU125      0.0001
    154  N         31.8690  -19.7620   -9.4400 N.3   130  TYR130     -0.1227
    155  CA        31.4060  -18.7560  -10.3910 C.3   130  TYR130      0.1736
    156  C         30.9830  -17.5090   -9.6380 C.2   130  TYR130      0.2595
    157  O         30.5510  -17.5870   -8.4750 O.2   130  TYR130     -0.2718
    158  CB        30.1990  -19.2450  -11.2100 C.3   130  TYR130      0.0548
    159  CG        30.5190  -20.4100  -12.1110 C.ar  130  TYR130     -0.0200
    160  CD1       31.4920  -20.3030  -13.1040 C.ar  130  TYR130     -0.0009
    161  CD2       29.8300  -21.6080  -11.9970 C.ar  130  TYR130     -0.0009
    162  CE1       31.8260  -21.3950  -13.9000 C.ar  130  TYR130      0.0417
    163  CE2       30.1180  -22.6870  -12.8250 C.ar  130  TYR130      0.0417
    164  CZ        31.1450  -22.5850  -13.7350 C.ar  130  TYR130      0.1957
    165  OH        31.3950  -23.6730  -14.5450 O.3   130  TYR130     -0.2866
    166  N         31.1390  -16.3740  -10.3070 N.am  131  ILE131     -0.1966
    167  CA        30.6720  -15.0650   -9.8500 C.3   131  ILE131      0.1727
    168  C         29.5280  -14.7210  -10.7690 C.2   131  ILE131      0.2616
    169  O         29.6860  -14.7940  -11.9960 O.2   131  ILE131     -0.2715
    170  CB        31.7860  -14.0020   -9.9140 C.3   131  ILE131      0.0290
    171  CG1       32.9270  -14.4240   -8.9750 C.3   131  ILE131      0.0022
    172  CG2       31.2370  -12.6010   -9.5660 C.3   131  ILE131      0.0023
    173  CD1       34.2730  -13.8550   -9.3070 C.3   131  ILE131      0.0001
    174  N         28.3540  -14.3940  -10.2190 N.am  132  HIS132     -0.1959
    175  CA        27.2420  -14.1170  -11.1000 C.3   132  HIS132      0.1787
    176  C         27.4310  -12.8340  -11.9060 C.2   132  HIS132      0.2620
    177  O         27.3630  -12.8490  -13.1520 O.2   132  HIS132     -0.2715
    178  CB        25.9170  -14.1100  -10.3140 C.3   132  HIS132      0.0785
    179  CG        24.7020  -14.1830  -11.1990 C.ar  132  HIS132      0.0821
    180  ND1       24.3460  -13.1450  -12.0490 N.ar  132  HIS132     -0.2267
    181  CD2       23.8140  -15.1920  -11.3340 C.ar  132  HIS132      0.1154
    182  CE1       23.2380  -13.5500  -12.6610 C.ar  132  HIS132      0.1986
    183  NE2       22.8980  -14.7890  -12.2820 N.ar  132  HIS132     -0.2212
    184  N         27.6150  -11.7070  -11.1920 N.am  133  ARG133     -0.1963
    185  CA        27.7890  -10.3280  -11.6880 C.3   133  ARG133      0.1729
    186  C         26.4370   -9.6580  -11.9760 C.2   133  ARG133      0.2616
    187  O         26.2920   -8.4380  -11.7770 O.2   133  ARG133     -0.2715
    188  CB        28.6940  -10.2050  -12.9550 C.3   133  ARG133      0.0348
    189  CG        30.1100  -10.7040  -12.7810 C.3   133  ARG133      0.0492
    190  CD        30.9420  -10.2580  -13.9570 C.3   133  ARG133      0.2205
    191  NE        32.3390  -10.6420  -13.7670 N.pl3 133  ARG133     -0.0865
    192  CZ        33.3700   -9.9480  -14.2320 C.cat 133  ARG133      0.5346
    193  NH1       33.1710   -8.8310  -14.9240 N.pl3 133  ARG133      0.1354
    194  NH2       34.6100  -10.3570  -13.9990 N.pl3 133  ARG133      0.1354
    195  N         25.4660  -10.4320  -12.4990 N.am  134  ASP134     -0.1971
    196  CA        24.2280   -9.8820  -13.0630 C.3   134  ASP134      0.1709
    197  C         23.0000  -10.1950  -12.2030 C.2   134  ASP134      0.2293
    198  O         21.8770  -10.2280  -12.7070 O.2   134  ASP134     -0.2864
    199  CB        24.0570  -10.4610  -14.5090 C.3   134  ASP134      0.1436
    200  CG        25.2650  -10.2620  -15.4050 C.2   134  ASP134      0.3671
    201  OD1       25.8750   -9.1940  -15.3340 O.co2 134  ASP134     -0.2456
    202  OD2       25.6170  -11.2030  -16.1530 O.co2 134  ASP134     -0.2456
    203  N         14.1220  -16.3130  -12.6100 N.3   141  LEU141     -0.1245
    204  CA        12.9120  -16.7740  -13.2990 C.3   141  LEU141      0.1561
    205  C         11.9860  -17.4780  -12.3420 C.2   141  LEU141      0.2260
    206  O         12.3960  -17.9670  -11.2790 O.2   141  LEU141     -0.2867
    207  CB        13.2650  -17.6980  -14.4590 C.3   141  LEU141      0.0270
    208  CG        13.8530  -16.9500  -15.6640 C.3   141  LEU141      0.0019
    209  CD1       15.3770  -16.8220  -15.5860 C.3   141  LEU141      0.0001
    210  CD2       13.3460  -17.5020  -16.9860 C.3   141  LEU141      0.0001
    211  N         17.5860  -18.9120  -10.3260 N.3   150  ILE150     -0.1231
    212  CA        18.4990  -17.8840  -10.8310 C.3   150  ILE150      0.1692
    213  C         18.9470  -18.2460  -12.2430 C.2   150  ILE150      0.2593
    214  O         19.2590  -19.4110  -12.5230 O.2   150  ILE150     -0.2718
    215  CB        19.7370  -17.8300   -9.9180 C.3   150  ILE150      0.0266
    216  CG1       19.3290  -17.4370   -8.4970 C.3   150  ILE150      0.0019
    217  CG2       20.7940  -16.8500  -10.4940 C.3   150  ILE150      0.0020
    218  CD1       20.4780  -17.6770   -7.5250 C.3   150  ILE150      0.0001
    219  N         18.9870  -17.2500  -13.0980 N.am  151  GLY151     -0.1942
    220  CA        19.5250  -17.3690  -14.4490 C.3   151  GLY151      0.2014
    221  C         20.3100  -16.1270  -14.8170 C.2   151  GLY151      0.2639
    222  O         20.7320  -15.3290  -13.9630 O.2   151  GLY151     -0.2714
    223  N         20.4910  -15.9320  -16.1160 N.am  152  ASP152     -0.1957
    224  CA        21.1660  -14.7760  -16.6660 C.3   152  ASP152      0.1840
    225  C         20.7470  -14.7730  -18.1350 C.2   152  ASP152      0.2622
    226  O         21.2420  -15.5970  -18.9090 O.2   152  ASP152     -0.2715
    227  CB        22.6940  -14.9100  -16.5220 C.3   152  ASP152      0.1450
    228  CG        23.4050  -13.5750  -16.6130 C.2   152  ASP152      0.3671
    229  OD1       22.7810  -12.5920  -17.0850 O.co2 152  ASP152     -0.2456
    230  OD2       24.5970  -13.5210  -16.2710 O.co2 152  ASP152     -0.2456
    231  N         19.7490  -13.9760  -18.4770 N.am  153  PHE153     -0.1974
    232  CA        19.2570  -14.0110  -19.8630 C.3   153  PHE153      0.1639
    233  C         20.3770  -13.8500  -20.8970 C.2   153  PHE153      0.2290
    234  O         20.5200  -14.7070  -21.7870 O.2   153  PHE153     -0.2864
    235  CB        18.1310  -13.0150  -20.0570 C.3   153  PHE153      0.0560
    236  CG        16.7830  -13.5180  -19.6060 C.ar  153  PHE153     -0.0200
    237  CD1       15.9470  -14.2050  -20.4840 C.ar  153  PHE153     -0.0042
    238  CD2       16.3540  -13.3230  -18.3030 C.ar  153  PHE153     -0.0042
    239  CE1       14.6790  -14.6370  -20.0750 C.ar  153  PHE153     -0.0003
    240  CE2       15.0820  -13.7630  -17.8890 C.ar  153  PHE153     -0.0003
    241  CZ        14.2530  -14.4120  -18.7820 C.ar  153  PHE153     -0.0000
@<TRIPOS>BOND
     1    24    23    2
     2    23    22    1
     3    78    79    1
     4     9    10    1
     5    12    11    2
     6    11    10    1
     7    22    21    1
     8    22    25    1
     9     1     2    1
    10    10    13    1
    11    79    80    1
    12    79    82    1
    13    81    80    2
    14    26    25    1
    15    26    27    1
    16    82    83    1
    17     2     3    1
    18     2     5    1
    19    13    15    1
    20    13    14    1
    21     3     4    2
    22    28    27    1
    23    28    29    1
    24    18    19    2
    25    18    17    1
    26     6     5    1
    27     6     8    1
    28     6     7    1
    29    17    16    1
    30    17    20    1
    31    83    84    1
    32    83    85    1
    33    37    36   ar
    34    86    87    1
    35    34    35    1
    36    34    31    1
    37    36    35    1
    38    36    38   ar
    39    30    31    1
    40    89    88    2
    41   234   233    2
    42   111   109   ar
    43   111   113   ar
    44   109   108   ar
    45    87    88    1
    46    87    90    1
    47    91    90    1
    48    91    92    1
    49   114   113    1
    50   113   112   ar
    51    31    32    1
    52    32    33    2
    53   108   107    1
    54   108   110   ar
    55    88    94   am
    56   107   104    1
    57   233   232    1
    58   112   110   ar
    59    92    93    1
    60   237   239   ar
    61   237   236   ar
    62   239   241   ar
    63   235   232    1
    64   235   236    1
    65   104   103    1
    66   104   105    1
    67   232   231    1
    68    53    52    1
    69   103    96   am
    70    94    95    1
    71   236   238   ar
    72    96    97    2
    73    96    95    1
    74    95    98    1
    75   226   225    2
    76   241   240   ar
    77    51    52    1
    78    51    48    1
    79    39    40    1
    80   105   115   am
    81   105   106    2
    82    52    54    1
    83   231   225   am
    84   238   240   ar
    85   115   116    1
    86   225   224    1
    87    47    48    1
    88    47    41   am
    89   118   117    2
    90   126   125    2
    91    98    99    1
    92    48    49    1
    93    49    50    2
    94   124   125    1
    95   124   127    1
    96   124   123    1
    97    46    44    1
    98    40    43    1
    99    40    41    1
   100   117   116    1
   101   117   123   am
   102    43    44    1
   103    43    45    1
   104   229   228   ar
   105   125   130   am
   106   210   208    1
   107   127   128    1
   108    41    42    2
   109   143   142    1
   110   143   144    1
   111   116   119    1
   112   123   129    1
   113    99   100    1
   114   128   129    1
   115   224   227    1
   116   224   223    1
   117   228   227    1
   118   228   230   ar
   119   142   132   am
   120   202   200   ar
   121   223   221   am
   122   119   120    1
   123   130   131    1
   124   144   145    2
   125    77    75    1
   126   132   131    1
   127   132   133    2
   128   120   121    1
   129   120   122    1
   130   208   209    1
   131   208   207    1
   132   100   101   ar
   133   100   102   ar
   134    75    76    1
   135    75    72    1
   136   200   201   ar
   137   200   199    1
   138   131   134    1
   139   193   192    1
   140    73    74    2
   141    73    72    1
   142   221   220    1
   143   221   222    2
   144   165   164    1
   145   199   196    1
   146   207   204    1
   147   220   219    1
   148    72    71    1
   149   192   194    1
   150   192   191    2
   151   190   191    1
   152   190   189    1
   153   162   164   ar
   154   162   160   ar
   155   136   138   ar
   156   136   135   ar
   157   134   135    1
   158    55    56    1
   159   164   163   ar
   160   138   140   ar
   161   135   137   ar
   162    58    57    2
   163   140   141    1
   164   140   139   ar
   165   204   203    1
   166   204   205    1
   167    61    60    1
   168   137   139   ar
   169   177   176    2
   170   160   159   ar
   171   219   213   am
   172    71    65   am
   173   196   195    1
   174   196   197    1
   175    60    59    1
   176    60    62    1
   177   188   189    1
   178   188   185    1
   179    59    56    1
   180   163   161   ar
   181    56    57    1
   182   198   197    2
   183   182   183   ar
   184   182   180   ar
   185   214   213    2
   186   195   186   am
   187   205   206    2
   188   183   181   ar
   189   213   212    1
   190   159   161   ar
   191   159   158    1
   192    66    65    2
   193    69    67    1
   194    65    64    1
   195   180   179   ar
   196   169   168    2
   197   186   187    2
   198   186   185    1
   199   176   184   am
   200   176   175    1
   201   185   184    1
   202   181   179   ar
   203   158   155    1
   204   179   178    1
   205   175   178    1
   206   175   174    1
   207   212   211    1
   208   212   215    1
   209    64    67    1
   210    64    63    1
   211    67    68    1
   212   168   174   am
   213   168   167    1
   214   152   151    1
   215   217   215    1
   216   155   156    1
   217   155   154    1
   218   166   167    1
   219   166   156   am
   220   215   216    1
   221   170   167    1
   222   170   172    1
   223   170   171    1
   224   156   157    2
   225    68    70    1
   226   153   151    1
   227   173   171    1
   228   151   150    1
   229   216   218    1
   230   150   147    1
   231   149   148    2
   232   147   148    1
   233   147   146    1
