@<TRIPOS>MOLECULE
tmp/3ugfB02.pdb
 149 139 0 0 0
SMALL
GASTEIGER

@<TRIPOS>ATOM
      1  N         -3.9110    0.1920  -13.5230 N.3   171  LYS171     -0.1245
      2  CA        -3.6240   -0.4910  -14.7890 C.3   171  LYS171      0.1561
      3  C         -4.1920    0.2910  -15.9760 C.2   171  LYS171      0.2260
      4  O         -5.1260    1.0750  -15.8100 O.2   171  LYS171     -0.2867
      5  CB        -4.1670   -1.9310  -14.7920 C.3   171  LYS171      0.0271
      6  CG        -5.6920   -2.0670  -14.7980 C.3   171  LYS171      0.0035
      7  CD        -6.1100   -3.5370  -14.8260 C.3   171  LYS171      0.0206
      8  CE        -7.6250   -3.6960  -14.9170 C.3   171  LYS171      0.1093
      9  NZ        -8.0040   -5.1390  -15.0290 N.3   171  LYS171     -0.1314
     10  N         -5.5780   -1.2430  -19.4450 N.3   173  ASN173     -0.1225
     11  CA        -5.8540   -2.5460  -20.0600 C.3   173  ASN173      0.1785
     12  C         -5.1740   -3.6730  -19.2530 C.2   173  ASN173      0.2597
     13  O         -5.4330   -3.7950  -18.0530 O.2   173  ASN173     -0.2718
     14  CB        -5.4910   -2.5320  -21.5560 C.3   173  ASN173      0.1169
     15  CG        -6.3690   -1.5680  -22.3680 C.2   173  ASN173      0.2627
     16  OD1       -7.5730   -1.4380  -22.1150 O.2   173  ASN173     -0.2716
     17  ND2       -5.7650   -0.8920  -23.3450 N.am  173  ASN173     -0.0877
     18  N         -4.2920   -4.4620  -19.8650 N.am  174  THR174     -0.1953
     19  CA        -3.5980   -5.5290  -19.1130 C.3   174  THR174      0.1897
     20  C         -2.2300   -5.1010  -18.5540 C.2   174  THR174      0.2313
     21  O         -1.5150   -5.9120  -17.9570 O.2   174  THR174     -0.2863
     22  CB        -3.4220   -6.8180  -19.9520 C.3   174  THR174      0.1794
     23  OG1       -2.6900   -6.5160  -21.1410 O.3   174  THR174     -0.2208
     24  CG2       -4.7830   -7.4200  -20.3270 C.3   174  THR174      0.0378
     25  N          1.2020   -6.9950  -19.2820 N.3   201  ASP201     -0.1225
     26  CA         0.6610   -8.3230  -18.9660 C.3   201  ASP201      0.1805
     27  C          0.7330   -8.7400  -17.4910 C.2   201  ASP201      0.2598
     28  O          0.8590   -9.9270  -17.1890 O.2   201  ASP201     -0.2718
     29  CB         1.2950   -9.4000  -19.8710 C.3   201  ASP201      0.1424
     30  CG         1.1130   -9.1050  -21.3560 C.2   201  ASP201      0.3668
     31  OD1        0.0010   -8.7050  -21.7650 O.co2 201  ASP201     -0.2456
     32  OD2        2.0860   -9.2810  -22.1210 O.co2 201  ASP201     -0.2456
     33  N          0.6490   -7.7700  -16.5800 N.am  202  THR202     -0.1939
     34  CA         0.6300   -8.0650  -15.1400 C.3   202  THR202      0.2028
     35  C         -0.7440   -7.8480  -14.5140 C.2   202  THR202      0.2642
     36  O         -1.0500   -8.4210  -13.4640 O.2   202  THR202     -0.2714
     37  CB         1.6360   -7.1990  -14.3460 C.3   202  THR202      0.1808
     38  OG1        1.2850   -5.8120  -14.4730 O.3   202  THR202     -0.2208
     39  CG2        3.0530   -7.4250  -14.8310 C.3   202  THR202      0.0379
     40  N         -1.5640   -7.0150  -15.1530 N.am  203  GLY203     -0.1954
     41  CA        -2.8360   -6.5920  -14.5620 C.3   203  GLY203      0.1869
     42  C         -2.6320   -5.5620  -13.4600 C.2   203  GLY203      0.2309
     43  O         -1.5450   -4.9990  -13.3240 O.2   203  GLY203     -0.2863
     44  N         -4.2640   -9.9940   -9.5200 N.3   240  GLU240     -0.1231
     45  CA        -4.7470  -11.2060  -10.1880 C.3   240  GLU240      0.1699
     46  C         -4.1540  -12.4890   -9.5960 C.2   240  GLU240      0.2592
     47  O         -4.7620  -13.5600   -9.6970 O.2   240  GLU240     -0.2718
     48  CB        -4.5070  -11.1310  -11.6980 C.3   240  GLU240      0.0402
     49  CG        -5.3560  -10.0600  -12.3880 C.3   240  GLU240      0.1161
     50  CD        -5.3280  -10.1480  -13.9080 C.2   240  GLU240      0.3649
     51  OE1       -5.0520  -11.2410  -14.4530 O.co2 240  GLU240     -0.2457
     52  OE2       -5.5970   -9.1160  -14.5600 O.co2 240  GLU240     -0.2457
     53  N         -2.9850  -12.3660   -8.9670 N.am  241  GLN241     -0.1979
     54  CA        -2.2750  -13.5060   -8.3690 C.3   241  GLN241      0.1601
     55  C         -2.3700  -13.5840   -6.8440 C.2   241  GLN241      0.2287
     56  O         -2.1050  -14.6430   -6.2610 O.2   241  GLN241     -0.2864
     57  CB        -0.7930  -13.4630   -8.7440 C.3   241  GLN241      0.0394
     58  CG        -0.4870  -13.7020  -10.2110 C.3   241  GLN241      0.0908
     59  CD         1.0070  -13.7820  -10.4730 C.2   241  GLN241      0.2608
     60  OE1        1.7510  -14.4350   -9.7330 O.2   241  GLN241     -0.2717
     61  NE2        1.4530  -13.1190  -11.5320 N.am  241  GLN241     -0.0878
     62  N         -0.2470  -12.1610   -4.8820 N.3   243  ARG243     -0.1245
     63  CA         1.1570  -12.3480   -4.5080 C.3   243  ARG243      0.1563
     64  C          1.9030  -11.0240   -4.6530 C.2   243  ARG243      0.2260
     65  O          1.5270  -10.1910   -5.4860 O.2   243  ARG243     -0.2867
     66  CB         1.8150  -13.3920   -5.4090 C.3   243  ARG243      0.0307
     67  CG         1.3200  -14.8170   -5.1840 C.3   243  ARG243      0.0489
     68  CD         1.6080  -15.6640   -6.3990 C.3   243  ARG243      0.2205
     69  NE         0.9500  -16.9680   -6.3300 N.pl3 243  ARG243     -0.0865
     70  CZ         0.6060  -17.6890   -7.3950 C.cat 243  ARG243      0.5346
     71  NH1        0.8450  -17.2350   -8.6240 N.pl3 243  ARG243      0.1354
     72  NH2        0.0080  -18.8630   -7.2320 N.pl3 243  ARG243      0.1354
     73  N          5.3490   -8.9160   -5.5800 N.3   245  TYR245     -0.1241
     74  CA         6.5720   -8.9520   -6.3890 C.3   245  TYR245      0.1605
     75  C          7.3890   -7.6690   -6.2190 C.2   245  TYR245      0.2264
     76  O          6.8290   -6.5900   -6.0150 O.2   245  TYR245     -0.2867
     77  CB         6.2190   -9.1140   -7.8690 C.3   245  TYR245      0.0534
     78  CG         5.7580  -10.4930   -8.2940 C.ar  245  TYR245     -0.0201
     79  CD1        6.6430  -11.3890   -8.9020 C.ar  245  TYR245     -0.0009
     80  CD2        4.4310  -10.8900   -8.1230 C.ar  245  TYR245     -0.0009
     81  CE1        6.2170  -12.6560   -9.3160 C.ar  245  TYR245      0.0417
     82  CE2        3.9970  -12.1490   -8.5320 C.ar  245  TYR245      0.0417
     83  CZ         4.8920  -13.0270   -9.1250 C.ar  245  TYR245      0.1957
     84  OH         4.4550  -14.2730   -9.5330 O.3   245  TYR245     -0.2866
     85  N          6.4570   -7.7920  -11.1390 N.3   268  GLY268     -0.1210
     86  CA         5.3730   -8.6990  -11.5080 C.3   268  GLY268      0.1956
     87  C          5.7950   -9.9160  -12.3130 C.2   268  GLY268      0.2611
     88  O          4.9970  -10.8380  -12.4980 O.2   268  GLY268     -0.2717
     89  N          7.0420   -9.9230  -12.7880 N.am  269  ILE269     -0.1979
     90  CA         7.5620  -11.0120  -13.6290 C.3   269  ILE269      0.1595
     91  C          8.9390  -11.5110  -13.1520 C.2   269  ILE269      0.2287
     92  O          9.6470  -12.2270  -13.8760 O.2   269  ILE269     -0.2864
     93  CB         7.6010  -10.6180  -15.1490 C.3   269  ILE269      0.0276
     94  CG1        8.5610   -9.4480  -15.4060 C.3   269  ILE269      0.0022
     95  CG2        6.1910  -10.2980  -15.6710 C.3   269  ILE269      0.0022
     96  CD1        8.8630   -9.2050  -16.8810 C.3   269  ILE269      0.0001
     97  N          9.8790  -12.4880   -5.7960 N.3   272  ARG272     -0.1245
     98  CA         8.9250  -12.2000   -4.7190 C.3   272  ARG272      0.1563
     99  C          9.6510  -12.0750   -3.3740 C.2   272  ARG272      0.2260
    100  O         10.7070  -12.6930   -3.1620 O.2   272  ARG272     -0.2867
    101  CB         7.8890  -13.3280   -4.5880 C.3   272  ARG272      0.0307
    102  CG         7.0330  -13.6090   -5.8210 C.3   272  ARG272      0.0489
    103  CD         5.9710  -14.6720   -5.5050 C.3   272  ARG272      0.2205
    104  NE         5.5910  -15.4410   -6.6920 N.pl3 272  ARG272     -0.0865
    105  CZ         4.9670  -16.6190   -6.6790 C.cat 272  ARG272      0.5346
    106  NH1        4.6160  -17.1960   -5.5320 N.pl3 272  ARG272      0.1354
    107  NH2        4.6880  -17.2280   -7.8290 N.pl3 272  ARG272      0.1354
    108  N         10.8040  -28.1230  -10.5810 N.3   385  ASN385     -0.1240
    109  CA         9.9880  -26.9750  -10.1900 C.3   385  ASN385      0.1653
    110  C          9.2240  -27.4040   -8.9320 C.2   385  ASN385      0.2266
    111  O          8.4660  -28.3790   -8.9830 O.2   385  ASN385     -0.2867
    112  CB         9.0370  -26.6300  -11.3540 C.3   385  ASN385      0.1155
    113  CG         8.0390  -25.5140  -11.0360 C.2   385  ASN385      0.2627
    114  OD1        7.7390  -25.2140   -9.8770 O.2   385  ASN385     -0.2716
    115  ND2        7.5120  -24.8990  -12.0970 N.am  385  ASN385     -0.0877
    116  N          6.6470  -26.4040   -7.4500 N.3   387  THR387     -0.1203
    117  CA         5.1860  -26.3640   -7.5940 C.3   387  THR387      0.1994
    118  C          4.6030  -27.5950   -8.2930 C.2   387  THR387      0.2618
    119  O          3.5120  -28.0530   -7.9430 O.2   387  THR387     -0.2717
    120  CB         4.7380  -25.0840   -8.3340 C.3   387  THR387      0.1784
    121  OG1        5.4090  -23.9500   -7.7720 O.3   387  THR387     -0.2211
    122  CG2        3.2300  -24.8740   -8.2060 C.3   387  THR387      0.0376
    123  N          5.3310  -28.1290   -9.2700 N.am  388  THR388     -0.1952
    124  CA         4.8550  -29.2870  -10.0330 C.3   388  THR388      0.1897
    125  C          5.4740  -30.6020   -9.5490 C.2   388  THR388      0.2313
    126  O          5.1840  -31.6700  -10.0950 O.2   388  THR388     -0.2863
    127  CB         5.1010  -29.1190  -11.5560 C.3   388  THR388      0.1794
    128  OG1        6.5040  -28.9740  -11.8070 O.3   388  THR388     -0.2208
    129  CG2        4.3590  -27.9020  -12.0980 C.3   388  THR388      0.0378
    130  N         -0.7630  -27.6650   -1.5020 N.3   449  GLN449     -0.1245
    131  CA         0.2410  -27.2100   -2.4740 C.3   449  GLN449      0.1566
    132  C          1.6840  -27.5030   -2.0590 C.2   449  GLN449      0.2260
    133  O          1.9790  -27.6380   -0.8750 O.2   449  GLN449     -0.2867
    134  CB         0.1150  -25.6930   -2.6520 C.3   449  GLN449      0.0367
    135  CG        -0.3060  -25.2020   -4.0300 C.3   449  GLN449      0.0905
    136  CD         0.1780  -23.7700   -4.3260 C.2   449  GLN449      0.2608
    137  OE1        0.5080  -22.9950   -3.4130 O.2   449  GLN449     -0.2717
    138  NE2        0.2200  -23.4190   -5.6090 N.am  449  GLN449     -0.0878
    139  N         10.9620  -21.9870   -4.6900 N.3   453  PHE453     -0.1241
    140  CA        11.7100  -21.3890   -5.8050 C.3   453  PHE453      0.1605
    141  C         13.1790  -21.7940   -5.6930 C.2   453  PHE453      0.2264
    142  O         13.5590  -22.5110   -4.7670 O.2   453  PHE453     -0.2867
    143  CB        11.5920  -19.8600   -5.7400 C.3   453  PHE453      0.0534
    144  CG        11.8500  -19.1570   -7.0530 C.ar  453  PHE453     -0.0203
    145  CD1       10.9850  -19.3170   -8.1320 C.ar  453  PHE453     -0.0042
    146  CD2       12.9410  -18.2990   -7.1900 C.ar  453  PHE453     -0.0042
    147  CE1       11.2140  -18.6520   -9.3380 C.ar  453  PHE453     -0.0003
    148  CE2       13.1800  -17.6250   -8.3880 C.ar  453  PHE453     -0.0003
    149  CZ        12.3160  -17.8050   -9.4680 C.ar  453  PHE453     -0.0000
@<TRIPOS>BOND
     1    17    15   am
     2    15    16    2
     3    15    14    1
     4    32    30   ar
     5    31    30   ar
     6    14    11    1
     7    30    29    1
     8    23    22    1
     9    24    22    1
    10    11    10    1
    11    11    12    1
    12    22    19    1
    13    29    26    1
    14    18    12   am
    15    18    19    1
    16    25    26    1
    17    12    13    2
    18    19    20    1
    19    26    27    1
    20    20    21    2
    21    27    28    2
    22    27    33   am
    23    96    94    1
    24    33    34    1
    25     3     4    2
    26     3     2    1
    27    95    93    1
    28    94    93    1
    29    40    41    1
    30    40    35   am
    31    93    90    1
    32    34    35    1
    33    34    37    1
    34     9     8    1
    35     8     7    1
    36    39    37    1
    37     7     6    1
    38     6     5    1
    39     5     2    1
    40     2     1    1
    41    41    42    1
    42    52    50   ar
    43    35    36    2
    44    38    37    1
    45    51    50   ar
    46    50    49    1
    47    92    91    2
    48    90    91    1
    49    90    89    1
    50    42    43    2
    51    89    87   am
    52    88    87    2
    53    49    48    1
    54    87    86    1
    55   129   127    1
    56   115   113   am
    57   128   127    1
    58    48    45    1
    59   127   124    1
    60    61    59   am
    61    86    85    1
    62   112   113    1
    63   112   109    1
    64   113   114    2
    65   108   109    1
    66    59    58    1
    67    59    60    2
    68    58    57    1
    69   109   110    1
    70    45    46    1
    71    45    44    1
    72   126   125    2
    73   124   125    1
    74   124   123    1
    75    47    46    2
    76    46    53   am
    77    84    83    1
    78   149   147   ar
    79   149   148   ar
    80   147   145   ar
    81    81    83   ar
    82    81    79   ar
    83   123   118   am
    84    83    82   ar
    85   111   110    2
    86    53    54    1
    87    79    78   ar
    88    57    54    1
    89    71    70    1
    90    82    80   ar
    91   148   146   ar
    92    54    55    1
    93   120   122    1
    94   120   121    1
    95   120   117    1
    96    78    80   ar
    97    78    77    1
    98   118   119    2
    99   118   117    1
   100   145   144   ar
   101    77    74    1
   102   107   105    1
   103   117   116    1
   104    70    72    1
   105    70    69    2
   106   146   144   ar
   107   144   143    1
   108    55    56    2
   109   104   105    2
   110   104   103    1
   111   105   106    1
   112    68    69    1
   113    68    67    1
   114    74    75    1
   115    74    73    1
   116    75    76    2
   117   102   103    1
   118   102   101    1
   119   140   143    1
   120   140   141    1
   121   140   139    1
   122    97    98    1
   123   141   142    2
   124   138   136   am
   125    65    64    2
   126    66    67    1
   127    66    63    1
   128    62    63    1
   129    98   101    1
   130    98    99    1
   131    64    63    1
   132   136   135    1
   133   136   137    2
   134   135   134    1
   135    99   100    2
   136   134   131    1
   137   131   132    1
   138   131   130    1
   139   132   133    2
