@<TRIPOS>MOLECULE
tmp/3ugfA02.pdb
 106 99 0 0 0
SMALL
GASTEIGER

@<TRIPOS>ATOM
      1  N         -8.7290  -14.1300   62.2800 N.3   239  GLU239     -0.1231
      2  CA        -7.7200  -13.3830   63.0320 C.3   239  GLU239      0.1699
      3  C         -6.2960  -13.6190   62.5090 C.2   239  GLU239      0.2592
      4  O         -5.4330  -12.7520   62.6580 O.2   239  GLU239     -0.2718
      5  CB        -7.8210  -13.6640   64.5380 C.3   239  GLU239      0.0402
      6  CG        -9.0950  -13.1040   65.1760 C.3   239  GLU239      0.1161
      7  CD        -9.1430  -13.2430   66.6980 C.2   239  GLU239      0.3649
      8  OE1       -8.0750  -13.3720   67.3400 O.co2 239  GLU239     -0.2457
      9  OE2      -10.2640  -13.2100   67.2530 O.co2 239  GLU239     -0.2457
     10  N         -6.0740  -14.7730   61.8750 N.am  240  GLN240     -0.1979
     11  CA        -4.7630  -15.1410   61.3210 C.3   240  GLN240      0.1601
     12  C         -4.6480  -14.9490   59.8040 C.2   240  GLN240      0.2287
     13  O         -3.5380  -14.9160   59.2600 O.2   240  GLN240     -0.2864
     14  CB        -4.4380  -16.6010   61.6510 C.3   240  GLN240      0.0394
     15  CG        -4.2270  -16.8930   63.1220 C.3   240  GLN240      0.0908
     16  CD        -3.7350  -18.3080   63.3560 C.2   240  GLN240      0.2608
     17  OE1       -2.8860  -18.8120   62.6180 O.2   240  GLN240     -0.2717
     18  NE2       -4.2640  -18.9570   64.3870 N.am  240  GLN240     -0.0878
     19  N         -5.4380  -17.2520   57.7540 N.3   242  ARG242     -0.1245
     20  CA        -4.8800  -18.5590   57.3910 C.3   242  ARG242      0.1563
     21  C         -5.9580  -19.6410   57.4490 C.2   242  ARG242      0.2260
     22  O         -6.9100  -19.5240   58.2280 O.2   242  ARG242     -0.2867
     23  CB        -3.7400  -18.9300   58.3410 C.3   242  ARG242      0.0307
     24  CG        -2.5010  -18.0580   58.2000 C.3   242  ARG242      0.0489
     25  CD        -1.6060  -18.1950   59.4090 C.3   242  ARG242      0.2205
     26  NE        -0.4900  -17.2560   59.3620 N.pl3 242  ARG242     -0.0865
     27  CZ         0.0810  -16.7170   60.4350 C.cat 242  ARG242      0.5346
     28  NH1       -0.3570  -17.0150   61.6560 N.pl3 242  ARG242      0.1354
     29  NH2        1.0930  -15.8700   60.2880 N.pl3 242  ARG242      0.1354
     30  N         -7.1000  -23.5600   58.1880 N.3   244  TYR244     -0.1241
     31  CA        -6.7700  -24.7700   58.9550 C.3   244  TYR244      0.1605
     32  C         -7.7810  -25.8810   58.6720 C.2   244  TYR244      0.2264
     33  O         -8.9520  -25.6050   58.4060 O.2   244  TYR244     -0.2867
     34  CB        -6.7660  -24.4730   60.4640 C.3   244  TYR244      0.0534
     35  CG        -5.5910  -23.6610   60.9820 C.ar  244  TYR244     -0.0201
     36  CD1       -4.5370  -24.2810   61.6520 C.ar  244  TYR244     -0.0009
     37  CD2       -5.5410  -22.2720   60.8160 C.ar  244  TYR244     -0.0009
     38  CE1       -3.4560  -23.5430   62.1420 C.ar  244  TYR244      0.0417
     39  CE2       -4.4670  -21.5250   61.3020 C.ar  244  TYR244      0.0417
     40  CZ        -3.4290  -22.1680   61.9620 C.ar  244  TYR244      0.1957
     41  OH        -2.3610  -21.4410   62.4490 O.3   244  TYR244     -0.2866
     42  N         -8.1630  -25.1450   63.6300 N.3   267  GLY267     -0.1210
     43  CA        -7.5960  -23.8670   64.0630 C.3   267  GLY267      0.1956
     44  C         -6.3540  -23.9560   64.9300 C.2   267  GLY267      0.2611
     45  O         -5.6940  -22.9400   65.1750 O.2   267  GLY267     -0.2717
     46  N         -6.0380  -25.1620   65.4030 N.am  268  ILE268     -0.1979
     47  CA        -4.8870  -25.3930   66.2850 C.3   268  ILE268      0.1595
     48  C         -4.0090  -26.5610   65.8040 C.2   268  ILE268      0.2287
     49  O         -3.1480  -27.0530   66.5410 O.2   268  ILE268     -0.2864
     50  CB        -5.3170  -25.6070   67.7790 C.3   268  ILE268      0.0276
     51  CG1       -6.1660  -26.8790   67.9380 C.3   268  ILE268      0.0022
     52  CG2       -6.0450  -24.3630   68.3280 C.3   268  ILE268      0.0022
     53  CD1       -6.2730  -27.3890   69.3850 C.3   268  ILE268      0.0001
     54  N         -2.4720  -27.0380   58.4820 N.3   271  ARG271     -0.1245
     55  CA        -2.9290  -26.1300   57.4290 C.3   271  ARG271      0.1563
     56  C         -2.7830  -26.8060   56.0650 C.2   271  ARG271      0.2260
     57  O         -1.8870  -27.6370   55.8690 O.2   271  ARG271     -0.2867
     58  CB        -2.0870  -24.8450   57.4090 C.3   271  ARG271      0.0307
     59  CG        -2.1560  -23.9640   58.6560 C.3   271  ARG271      0.0489
     60  CD        -1.4060  -22.6380   58.4250 C.3   271  ARG271      0.2205
     61  NE        -0.8630  -22.1000   59.6750 N.pl3 271  ARG271     -0.0865
     62  CZ         0.1350  -21.2230   59.7690 C.cat 271  ARG271      0.5346
     63  NH1        0.7280  -20.7410   58.6810 N.pl3 271  ARG271      0.1354
     64  NH2        0.5500  -20.8260   60.9680 N.pl3 271  ARG271      0.1354
     65  N         12.5830  -23.8210   64.2530 N.3   383  ASN383     -0.1240
     66  CA        11.2700  -23.3500   63.8160 C.3   383  ASN383      0.1653
     67  C         11.5160  -22.4480   62.6050 C.2   383  ASN383      0.2266
     68  O         12.2290  -21.4500   62.7290 O.2   383  ASN383     -0.2867
     69  CB        10.6060  -22.5900   64.9790 C.3   383  ASN383      0.1155
     70  CG         9.2850  -21.9120   64.6060 C.2   383  ASN383      0.2627
     71  OD1        8.9840  -21.6670   63.4340 O.2   383  ASN383     -0.2716
     72  ND2        8.4920  -21.6000   65.6310 N.am  383  ASN383     -0.0877
     73  N          9.9180  -20.1820   61.0860 N.3   385  THR385     -0.1203
     74  CA         9.4870  -18.7920   61.2610 C.3   385  THR385      0.1994
     75  C         10.4860  -17.9280   62.0420 C.2   385  THR385      0.2618
     76  O         10.6950  -16.7600   61.7050 O.2   385  THR385     -0.2717
     77  CB         8.0840  -18.7320   61.9250 C.3   385  THR385      0.1784
     78  OG1        7.1900  -19.6050   61.2230 O.3   385  THR385     -0.2211
     79  CG2        7.5100  -17.3160   61.8920 C.3   385  THR385      0.0376
     80  N         11.1000  -18.5060   63.0730 N.am  386  THR386     -0.1952
     81  CA        12.0460  -17.7770   63.9240 C.3   386  THR386      0.1897
     82  C         13.5050  -18.0050   63.5160 C.2   386  THR386      0.2313
     83  O         14.4230  -17.4690   64.1430 O.2   386  THR386     -0.2863
     84  CB        11.8710  -18.1330   65.4250 C.3   386  THR386      0.1794
     85  OG1       12.0500  -19.5420   65.6150 O.3   386  THR386     -0.2208
     86  CG2       10.4930  -17.7240   65.9250 C.3   386  THR386      0.0378
     87  N          9.5200  -12.5210   55.3490 N.3   443  GLN443     -0.1245
     88  CA         9.3330  -13.5830   56.3430 C.3   443  GLN443      0.1566
     89  C          9.9440  -14.9280   55.9030 C.2   443  GLN443      0.2260
     90  O         10.1550  -15.1570   54.7130 O.2   443  GLN443     -0.2867
     91  CB         7.8290  -13.7710   56.5850 C.3   443  GLN443      0.0367
     92  CG         7.4650  -14.4190   57.9160 C.3   443  GLN443      0.0905
     93  CD         6.1970  -15.2670   57.8590 C.2   443  GLN443      0.2608
     94  OE1        5.3210  -15.0750   57.0010 O.2   443  GLN443     -0.2717
     95  NE2        6.0960  -16.2200   58.7830 N.am  443  GLN443     -0.0878
     96  N          7.0360  -25.3890   58.0640 N.3   447  PHE447     -0.1241
     97  CA         6.5900  -26.3130   59.1120 C.3   447  PHE447      0.1605
     98  C          7.3910  -27.6060   58.9910 C.2   447  PHE447      0.2264
     99  O          8.2240  -27.7480   58.0920 O.2   447  PHE447     -0.2867
    100  CB         5.0930  -26.6130   58.9300 C.3   447  PHE447      0.0534
    101  CG         4.4000  -27.1220   60.1720 C.ar  447  PHE447     -0.0203
    102  CD1        4.2460  -26.3070   61.2890 C.ar  447  PHE447     -0.0042
    103  CD2        3.8670  -28.4100   60.2060 C.ar  447  PHE447     -0.0042
    104  CE1        3.5890  -26.7750   62.4310 C.ar  447  PHE447     -0.0003
    105  CE2        3.2050  -28.8840   61.3410 C.ar  447  PHE447     -0.0003
    106  CZ         3.0710  -28.0660   62.4560 C.ar  447  PHE447     -0.0000
@<TRIPOS>BOND
     1    90    89    2
     2    87    88    1
     3    57    56    2
     4    89    88    1
     5    56    55    1
     6    88    91    1
     7    91    92    1
     8    94    93    2
     9    20    21    1
    10    20    19    1
    11    20    23    1
    12    58    55    1
    13    58    59    1
    14    55    54    1
    15    21    22    2
    16    93    92    1
    17    93    95   am
    18    96    97    1
    19    99    98    2
    20    30    31    1
    21    24    23    1
    22    24    25    1
    23    33    32    2
    24    60    59    1
    25    60    61    1
    26    32    31    1
    27    63    62    1
    28   100    97    1
    29   100   101    1
    30    31    34    1
    31    98    97    1
    32    13    12    2
    33    26    25    1
    34    26    27    2
    35    61    62    2
    36    62    64    1
    37    12    11    1
    38   101   103   ar
    39   101   102   ar
    40   103   105   ar
    41    29    27    1
    42    27    28    1
    43    34    35    1
    44    37    35   ar
    45    37    39   ar
    46    35    36   ar
    47    73    74    1
    48    78    77    1
    49    74    77    1
    50    74    75    1
    51   102   104   ar
    52    39    40   ar
    53    11    14    1
    54    11    10    1
    55   105   106   ar
    56    14    15    1
    57    36    38   ar
    58    76    75    2
    59    10     3   am
    60    79    77    1
    61    40    38   ar
    62    40    41    1
    63    75    80   am
    64     1     2    1
    65   104   106   ar
    66     3     4    2
    67     3     2    1
    68    67    68    2
    69    67    66    1
    70    17    16    2
    71     2     5    1
    72    80    81    1
    73    15    16    1
    74    16    18   am
    75    71    70    2
    76    82    81    1
    77    82    83    2
    78    42    43    1
    79    66    65    1
    80    66    69    1
    81    81    84    1
    82    43    44    1
    83     5     6    1
    84    70    69    1
    85    70    72   am
    86    44    45    2
    87    44    46   am
    88     6     7    1
    89    46    47    1
    90    84    85    1
    91    84    86    1
    92    48    47    1
    93    48    49    2
    94    47    50    1
    95     7     9   ar
    96     7     8   ar
    97    50    51    1
    98    50    52    1
    99    51    53    1
