@<TRIPOS>MOLECULE
tmp/3ugfB00.pdb
 83 75 0 0 0
SMALL
GASTEIGER

@<TRIPOS>ATOM
      1  N         14.9960  -41.1740    8.0120 N.3   360  VAL360     -0.1245
      2  CA        14.2990  -40.1980    8.8530 C.3   360  VAL360      0.1561
      3  C         14.8730  -40.3310   10.2720 C.2   360  VAL360      0.2260
      4  O         14.9960  -41.4440   10.7980 O.2   360  VAL360     -0.2867
      5  CB        12.7580  -40.4380    8.8560 C.3   360  VAL360      0.0252
      6  CG1       12.0580  -39.4660    9.7810 C.3   360  VAL360      0.0019
      7  CG2       12.1740  -40.3080    7.4470 C.3   360  VAL360      0.0019
      8  N          8.3730  -33.9860   -0.9930 N.3   392  ALA392     -0.1231
      9  CA         9.3490  -34.8490   -0.3190 C.3   392  ALA392      0.1694
     10  C          9.3520  -36.2950   -0.8310 C.2   392  ALA392      0.2591
     11  O         10.3430  -37.0110   -0.6620 O.2   392  ALA392     -0.2718
     12  CB         9.1360  -34.8190    1.1860 C.3   392  ALA392      0.0304
     13  N          8.2510  -36.7090   -1.4590 N.am  393  ALA393     -0.1980
     14  CA         8.1330  -38.0530   -2.0400 C.3   393  ALA393      0.1597
     15  C          8.8730  -38.2260   -3.3760 C.2   393  ALA393      0.2287
     16  O          9.1640  -39.3580   -3.7830 O.2   393  ALA393     -0.2864
     17  CB         6.6610  -38.4370   -2.1970 C.3   393  ALA393      0.0319
     18  N         11.9830  -38.4170   -5.1820 N.3   395  ARG395     -0.1245
     19  CA        13.3900  -38.6330   -4.8530 C.3   395  ARG395      0.1563
     20  C         14.3040  -38.3870   -6.0500 C.2   395  ARG395      0.2260
     21  O         14.0370  -38.8600   -7.1600 O.2   395  ARG395     -0.2867
     22  CB        13.6000  -40.0480   -4.3060 C.3   395  ARG395      0.0307
     23  CG        12.7220  -40.3890   -3.0990 C.3   395  ARG395      0.0489
     24  CD        13.0880  -41.7470   -2.5160 C.3   395  ARG395      0.2205
     25  NE        14.4340  -41.7460   -1.9420 N.pl3 395  ARG395     -0.0865
     26  CZ        15.0740  -42.8300   -1.5100 C.cat 395  ARG395      0.5346
     27  NH1       16.2980  -42.7190   -1.0040 N.pl3 395  ARG395      0.1354
     28  NH2       14.5010  -44.0260   -1.5850 N.pl3 395  ARG395      0.1354
     29  N         11.1890  -32.2220    8.8160 N.3   404  LEU404     -0.1245
     30  CA         9.7520  -32.4520    8.9020 C.3   404  LEU404      0.1561
     31  C          9.2180  -31.7760   10.1620 C.2   404  LEU404      0.2260
     32  O          9.5900  -32.1510   11.2760 O.2   404  LEU404     -0.2867
     33  CB         9.4390  -33.9560    8.9410 C.3   404  LEU404      0.0270
     34  CG        10.0290  -34.8610    7.8490 C.3   404  LEU404      0.0019
     35  CD1        9.7450  -36.3320    8.1520 C.3   404  LEU404      0.0001
     36  CD2        9.4980  -34.4820    6.4740 C.3   404  LEU404      0.0001
     37  N          4.4610  -40.4240   11.0620 N.3   411  LEU411     -0.1245
     38  CA         4.4070  -39.6310    9.8230 C.3   411  LEU411      0.1561
     39  C          3.0720  -39.6790    9.0580 C.2   411  LEU411      0.2260
     40  O          3.0310  -39.3980    7.8560 O.2   411  LEU411     -0.2867
     41  CB         5.6000  -39.9520    8.8990 C.3   411  LEU411      0.0270
     42  CG         6.9970  -39.7710    9.5040 C.3   411  LEU411      0.0019
     43  CD1        8.0910  -40.0880    8.4810 C.3   411  LEU411      0.0001
     44  CD2        7.1760  -38.3640   10.0670 C.3   411  LEU411      0.0001
     45  N          2.6600  -34.7470    8.1500 N.3   414  GLN414     -0.1245
     46  CA         4.0050  -34.1480    8.1030 C.3   414  GLN414      0.1566
     47  C          4.0340  -32.9280    7.1880 C.2   414  GLN414      0.2260
     48  O          3.3000  -32.8750    6.2020 O.2   414  GLN414     -0.2867
     49  CB         5.0610  -35.1650    7.6300 C.3   414  GLN414      0.0367
     50  CG         4.8020  -35.7590    6.2330 C.3   414  GLN414      0.0905
     51  CD         5.9790  -36.5650    5.6900 C.2   414  GLN414      0.2608
     52  OE1        6.5020  -37.4620    6.3570 O.2   414  GLN414     -0.2717
     53  NE2        6.3820  -36.2620    4.4600 N.am  414  GLN414     -0.0878
     54  N          0.8170  -33.5140    2.4770 N.3   439  ARG439     -0.1245
     55  CA         0.4130  -34.4560    3.5270 C.3   439  ARG439      0.1563
     56  C          0.3630  -33.8090    4.9190 C.2   439  ARG439      0.2260
     57  O          0.4750  -34.4990    5.9380 O.2   439  ARG439     -0.2867
     58  CB         1.3270  -35.6920    3.5160 C.3   439  ARG439      0.0307
     59  CG         1.1330  -36.5980    2.3090 C.3   439  ARG439      0.0489
     60  CD         2.1320  -37.7600    2.3090 C.3   439  ARG439      0.2205
     61  NE         3.4500  -37.3730    1.8020 N.pl3 439  ARG439     -0.0865
     62  CZ         4.5690  -38.0680    2.0000 C.cat 439  ARG439      0.5346
     63  NH1        5.7210  -37.6450    1.4880 N.pl3 439  ARG439      0.1354
     64  NH2        4.5420  -39.1880    2.7150 N.pl3 439  ARG439      0.1354
     65  N         15.2630  -35.3290    7.8100 N.3   504  PHE504     -0.1241
     66  CA        15.0820  -36.3430    6.7660 C.3   504  PHE504      0.1605
     67  C         16.0120  -36.1620    5.5730 C.2   504  PHE504      0.2264
     68  O         16.4310  -35.0460    5.2480 O.2   504  PHE504     -0.2867
     69  CB        13.6100  -36.4470    6.3180 C.3   504  PHE504      0.0534
     70  CG        13.2230  -35.4880    5.2150 C.ar  504  PHE504     -0.0203
     71  CD1       12.9330  -34.1520    5.4970 C.ar  504  PHE504     -0.0042
     72  CD2       13.1340  -35.9320    3.8920 C.ar  504  PHE504     -0.0042
     73  CE1       12.5680  -33.2660    4.4760 C.ar  504  PHE504     -0.0003
     74  CE2       12.7760  -35.0560    2.8610 C.ar  504  PHE504     -0.0003
     75  CZ        12.4910  -33.7180    3.1540 C.ar  504  PHE504     -0.0000
     76  N         15.7770  -37.7710    1.7010 N.3   506  ASN506     -0.1240
     77  CA        15.1770  -38.6450    0.6870 C.3   506  ASN506      0.1653
     78  C         15.9280  -38.6250   -0.6520 C.2   506  ASN506      0.2266
     79  O         15.4190  -39.0960   -1.6720 O.2   506  ASN506     -0.2867
     80  CB        13.6810  -38.3410    0.5040 C.3   506  ASN506      0.1155
     81  CG        12.8010  -39.5860    0.6590 C.2   506  ASN506      0.2627
     82  OD1       13.2920  -40.6840    0.9490 O.2   506  ASN506     -0.2716
     83  ND2       11.4910  -39.4090    0.4690 N.am  506  ASN506     -0.0877
@<TRIPOS>BOND
     1    21    20    2
     2    20    19    1
     3    18    19    1
     4    19    22    1
     5    22    23    1
     6    16    15    2
     7    15    14    1
     8    23    24    1
     9    24    25    1
    10    17    14    1
    11    14    13    1
    12    25    26    2
    13    79    78    2
    14    28    26    1
    15    26    27    1
    16    13    10   am
    17     8     9    1
    18    10    11    2
    19    10     9    1
    20    78    77    1
    21     9    12    1
    22    83    81   am
    23    80    81    1
    24    80    77    1
    25    81    82    2
    26    77    76    1
    27    63    62    1
    28    61    62    2
    29    61    60    1
    30    62    64    1
    31    60    59    1
    32    59    58    1
    33    54    55    1
    34    74    75   ar
    35    74    72   ar
    36    75    73   ar
    37    58    55    1
    38    55    56    1
    39    72    70   ar
    40    53    51   am
    41    73    71   ar
    42    56    57    2
    43    70    71   ar
    44    70    69    1
    45    68    67    2
    46    67    66    1
    47    51    50    1
    48    51    52    2
    49    48    47    2
    50    50    49    1
    51    69    66    1
    52    36    34    1
    53    66    65    1
    54    47    46    1
    55     7     5    1
    56    49    46    1
    57    34    35    1
    58    34    33    1
    59    40    39    2
    60     1     2    1
    61    46    45    1
    62    43    42    1
    63    29    30    1
    64     2     5    1
    65     2     3    1
    66     5     6    1
    67    41    42    1
    68    41    38    1
    69    30    33    1
    70    30    31    1
    71    39    38    1
    72    42    44    1
    73    38    37    1
    74    31    32    2
    75     3     4    2
