@<TRIPOS>MOLECULE
tmp/3uggB00.pdb
 192 184 0 0 0
SMALL
GASTEIGER

@<TRIPOS>ATOM
      1  N         52.9950   -5.6400  -40.6320 N.3    24  TRP24      -0.1241
      2  CA        53.0040   -6.5520  -41.7840 C.3    24  TRP24       0.1605
      3  C         53.8030   -7.8440  -41.5600 C.2    24  TRP24       0.2264
      4  O         54.9150   -7.8150  -41.0270 O.2    24  TRP24      -0.2867
      5  CB        53.5450   -5.8240  -43.0240 C.3    24  TRP24       0.0550
      6  CG        53.7330   -6.7140  -44.2320 C.ar   24  TRP24       0.0003
      7  CD1       54.7770   -7.5590  -44.4720 C.ar   24  TRP24       0.0946
      8  CD2       52.8510   -6.8420  -45.3540 C.ar   24  TRP24       0.0152
      9  NE1       54.5990   -8.2090  -45.6660 N.ar   24  TRP24      -0.2442
     10  CE2       53.4260   -7.7870  -46.2310 C.ar   24  TRP24       0.0810
     11  CE3       51.6300   -6.2510  -45.7040 C.ar   24  TRP24       0.0012
     12  CZ2       52.8270   -8.1490  -47.4400 C.ar   24  TRP24       0.0191
     13  CZ3       51.0350   -6.6150  -46.9070 C.ar   24  TRP24       0.0001
     14  CH2       51.6360   -7.5550  -47.7580 C.ar   24  TRP24       0.0015
     15  N         54.4820  -11.5210  -44.1150 N.3    26  SER26      -0.1202
     16  CA        54.1580  -12.3240  -45.3050 C.3    26  SER26       0.2020
     17  C         54.9020  -13.6690  -45.3570 C.2    26  SER26       0.2618
     18  O         54.6710  -14.5220  -44.5050 O.2    26  SER26      -0.2717
     19  CB        54.3100  -11.5150  -46.6040 C.3    26  SER26       0.2103
     20  OG        55.5510  -10.8350  -46.6790 O.3    26  SER26      -0.2182
     21  N         55.7850  -13.8430  -46.3410 N.am   27  ASP27      -0.1973
     22  CA        56.4620  -15.1240  -46.6240 C.3    27  ASP27       0.1709
     23  C         56.9950  -15.9220  -45.4290 C.2    27  ASP27       0.2293
     24  O         57.7360  -15.3850  -44.6010 O.2    27  ASP27      -0.2864
     25  CB        57.6320  -14.9030  -47.5810 C.3    27  ASP27       0.1436
     26  CG        57.1960  -14.6770  -49.0020 C.2    27  ASP27       0.3671
     27  OD1       56.1430  -14.0400  -49.2150 O.co2  27  ASP27      -0.2456
     28  OD2       57.9160  -15.1380  -49.9160 O.co2  27  ASP27      -0.2456
     29  N         58.8160  -12.9530  -43.3400 N.3    43  GLN43      -0.1245
     30  CA        58.9280  -11.5830  -43.8300 C.3    43  GLN43       0.1566
     31  C         58.1300  -10.6450  -42.9360 C.2    43  GLN43       0.2260
     32  O         56.9390  -10.8600  -42.6980 O.2    43  GLN43      -0.2867
     33  CB        58.4300  -11.4710  -45.2710 C.3    43  GLN43       0.0367
     34  CG        59.2900  -12.2090  -46.2930 C.3    43  GLN43       0.0905
     35  CD        60.7500  -11.8050  -46.2370 C.2    43  GLN43       0.2608
     36  OE1       61.0960  -10.6520  -46.4830 O.2    43  GLN43      -0.2717
     37  NE2       61.6140  -12.7560  -45.9170 N.am   43  GLN43      -0.0878
     38  N         53.6700   -4.0670  -47.2870 N.3    51  TRP51      -0.1241
     39  CA        54.9230   -4.6910  -47.7100 C.3    51  TRP51       0.1605
     40  C         56.0630   -3.6750  -47.7150 C.2    51  TRP51       0.2264
     41  O         55.8770   -2.5340  -48.1320 O.2    51  TRP51      -0.2867
     42  CB        54.7810   -5.3240  -49.0970 C.3    51  TRP51       0.0550
     43  CG        56.0320   -6.0180  -49.5540 C.ar   51  TRP51       0.0003
     44  CD1       56.3710   -7.3190  -49.3360 C.ar   51  TRP51       0.0946
     45  CD2       57.1250   -5.4360  -50.2830 C.ar   51  TRP51       0.0152
     46  NE1       57.5990   -7.5920  -49.8940 N.ar   51  TRP51      -0.2442
     47  CE2       58.0830   -6.4550  -50.4820 C.ar   51  TRP51       0.0810
     48  CE3       57.3840   -4.1510  -50.7930 C.ar   51  TRP51       0.0012
     49  CZ2       59.2780   -6.2350  -51.1720 C.ar   51  TRP51       0.0191
     50  CZ3       58.5750   -3.9320  -51.4780 C.ar   51  TRP51       0.0001
     51  CH2       59.5060   -4.9700  -51.6600 C.ar   51  TRP51       0.0015
     52  N         61.9110   -5.1290  -45.3630 N.3    54  ASN54      -0.1240
     53  CA        61.8710   -6.5410  -44.9930 C.3    54  ASN54       0.1653
     54  C         62.9180   -7.0080  -43.9800 C.2    54  ASN54       0.2266
     55  O         64.1250   -6.8470  -44.1860 O.2    54  ASN54      -0.2867
     56  CB        61.9370   -7.4130  -46.2510 C.3    54  ASN54       0.1155
     57  CG        60.7860   -7.1540  -47.2020 C.2    54  ASN54       0.2627
     58  OD1       60.6810   -6.0800  -47.7950 O.2    54  ASN54      -0.2716
     59  ND2       59.9230   -8.1450  -47.3630 N.am   54  ASN54      -0.0877
     60  N         65.0100  -10.6730  -47.9750 N.3    86  PHE86      -0.1227
     61  CA        63.9710  -11.4470  -48.6400 C.3    86  PHE86       0.1736
     62  C         64.0710  -12.9200  -48.2710 C.2    86  PHE86       0.2596
     63  O         64.9640  -13.3190  -47.5160 O.2    86  PHE86      -0.2718
     64  CB        64.0580  -11.2610  -50.1540 C.3    86  PHE86       0.0547
     65  CG        63.4500   -9.9780  -50.6520 C.ar   86  PHE86      -0.0202
     66  CD1       63.2340   -8.8980  -49.7910 C.ar   86  PHE86      -0.0042
     67  CD2       63.1190   -9.8390  -51.9990 C.ar   86  PHE86      -0.0042
     68  CE1       62.6800   -7.7060  -50.2580 C.ar   86  PHE86      -0.0003
     69  CE2       62.5670   -8.6510  -52.4830 C.ar   86  PHE86      -0.0003
     70  CZ        62.3470   -7.5800  -51.6070 C.ar   86  PHE86      -0.0000
     71  N         63.1580  -13.7180  -48.8220 N.am   87  SER87      -0.1952
     72  CA        62.9730  -15.1110  -48.4250 C.3    87  SER87       0.1924
     73  C         64.1840  -16.0090  -48.6110 C.2    87  SER87       0.2314
     74  O         65.1140  -15.6950  -49.3670 O.2    87  SER87      -0.2863
     75  CB        61.7800  -15.7180  -49.1550 C.3    87  SER87       0.2116
     76  OG        60.5960  -15.0350  -48.8050 O.3    87  SER87      -0.2180
     77  N         68.0710   -2.0420  -55.8450 N.3   109  MET109     -0.1245
     78  CA        67.0630   -3.0880  -56.0720 C.3   109  MET109      0.1570
     79  C         67.6550   -4.3990  -56.6090 C.2   109  MET109      0.2261
     80  O         66.9280   -5.2520  -57.1190 O.2   109  MET109     -0.2867
     81  CB        65.9270   -2.5940  -56.9860 C.3   109  MET109      0.0387
     82  CG        65.2870   -1.2620  -56.5780 C.3   109  MET109      0.0595
     83  SD        64.5070   -1.3060  -54.9540 S.3   109  MET109     -0.1393
     84  CE        63.2310   -2.5440  -55.2290 C.3   109  MET109      0.0692
     85  N         69.1600   -8.0530  -56.3830 N.3   111  GLU111     -0.1245
     86  CA        68.9470   -9.1920  -55.4930 C.3   111  GLU111      0.1567
     87  C         70.0950  -10.1910  -55.5990 C.2   111  GLU111      0.2260
     88  O         70.4600  -10.6110  -56.6980 O.2   111  GLU111     -0.2867
     89  CB        67.6210   -9.8770  -55.8180 C.3   111  GLU111      0.0388
     90  CG        66.4290   -8.9340  -55.8910 C.3   111  GLU111      0.1160
     91  CD        65.1120   -9.6580  -56.1220 C.2   111  GLU111      0.3649
     92  OE1       65.1260  -10.8710  -56.4480 O.co2 111  GLU111     -0.2457
     93  OE2       64.0540   -9.0030  -55.9760 O.co2 111  GLU111     -0.2457
     94  N         66.1160  -14.7860  -56.9300 N.3   150  ARG150     -0.1231
     95  CA        65.3930  -14.8270  -55.6620 C.3   150  ARG150      0.1694
     96  C         65.1080  -16.2430  -55.1830 C.2   150  ARG150      0.2592
     97  O         64.9680  -17.1480  -55.9950 O.2   150  ARG150     -0.2718
     98  CB        64.0440  -14.1620  -55.9210 C.3   150  ARG150      0.0321
     99  CG        63.3480  -13.5410  -54.7540 C.3   150  ARG150      0.0489
    100  CD        62.0550  -12.9250  -55.2560 C.3   150  ARG150      0.2205
    101  NE        62.2990  -11.8100  -56.1660 N.pl3 150  ARG150     -0.0865
    102  CZ        61.3680  -11.1980  -56.8890 C.cat 150  ARG150      0.5346
    103  NH1       60.1020  -11.5890  -56.8370 N.pl3 150  ARG150      0.1354
    104  NH2       61.7170  -10.1870  -57.6780 N.pl3 150  ARG150      0.1354
    105  N         65.0090  -16.4100  -53.8640 N.am  151  ASP151     -0.1974
    106  CA        64.3740  -17.5830  -53.2230 C.3   151  ASP151      0.1709
    107  C         65.0480  -18.9430  -53.4040 C.2   151  ASP151      0.2293
    108  O         64.4880  -19.8290  -54.0540 O.2   151  ASP151     -0.2864
    109  CB        62.8940  -17.7030  -53.6300 C.3   151  ASP151      0.1436
    110  CG        62.0640  -16.5050  -53.2020 C.2   151  ASP151      0.3671
    111  OD1       62.5250  -15.7310  -52.3300 O.co2 151  ASP151     -0.2456
    112  OD2       60.9440  -16.3410  -53.7430 O.co2 151  ASP151     -0.2456
    113  N         57.4250  -15.8330  -64.1850 N.3   203  LEU203     -0.1245
    114  CA        58.3920  -16.0380  -63.0960 C.3   203  LEU203      0.1561
    115  C         57.9590  -17.0760  -62.0530 C.2   203  LEU203      0.2260
    116  O         56.8300  -17.0310  -61.5530 O.2   203  LEU203     -0.2867
    117  CB        58.6950  -14.6900  -62.4130 C.3   203  LEU203      0.0270
    118  CG        59.3730  -14.6240  -61.0370 C.3   203  LEU203      0.0019
    119  CD1       60.8390  -15.0180  -61.0970 C.3   203  LEU203      0.0001
    120  CD2       59.2180  -13.2400  -60.4300 C.3   203  LEU203      0.0001
    121  N         58.5130  -18.1700  -58.3380 N.3   205  GLU205     -0.1231
    122  CA        59.0310  -17.7550  -57.0390 C.3   205  GLU205      0.1699
    123  C         58.9920  -18.9140  -56.0720 C.2   205  GLU205      0.2592
    124  O         58.2530  -19.8820  -56.2800 O.2   205  GLU205     -0.2718
    125  CB        58.2060  -16.6170  -56.4530 C.3   205  GLU205      0.0402
    126  CG        58.4130  -15.2820  -57.1080 C.3   205  GLU205      0.1161
    127  CD        57.5690  -14.2040  -56.4700 C.2   205  GLU205      0.3649
    128  OE1       57.8760  -13.0150  -56.6840 O.co2 205  GLU205     -0.2457
    129  OE2       56.6020  -14.5350  -55.7460 O.co2 205  GLU205     -0.2457
    130  N         59.7960  -18.8080  -55.0160 N.am  206  CYS206     -0.1970
    131  CA        59.7180  -19.7280  -53.8930 C.3   206  CYS206      0.1712
    132  C         59.5940  -21.1960  -54.3530 C.2   206  CYS206      0.2296
    133  O         58.6360  -21.8850  -54.0050 O.2   206  CYS206     -0.2864
    134  CB        58.5290  -19.3150  -53.0190 C.3   206  CYS206      0.0983
    135  SG        58.3990  -20.1990  -51.4790 S.3   206  CYS206     -0.0798
    136  N         54.1860  -15.9470  -59.6230 N.3   238  ASP238     -0.1239
    137  CA        54.1660  -14.5170  -59.3120 C.3   238  ASP238      0.1674
    138  C         53.0800  -13.7190  -60.0360 C.2   238  ASP238      0.2266
    139  O         52.3910  -12.9070  -59.4120 O.2   238  ASP238     -0.2867
    140  CB        55.5430  -13.9030  -59.5870 C.3   238  ASP238      0.1410
    141  CG        55.6220  -12.4390  -59.2070 C.2   238  ASP238      0.3668
    142  OD1       55.3510  -12.1080  -58.0350 O.co2 238  ASP238     -0.2456
    143  OD2       55.9700  -11.6190  -60.0810 O.co2 238  ASP238     -0.2456
    144  N         49.9640  -14.7400  -58.3140 N.3   241  GLN241     -0.1245
    145  CA        50.0040  -14.7110  -56.8400 C.3   241  GLN241      0.1566
    146  C         49.3030  -15.9350  -56.2440 C.2   241  GLN241      0.2260
    147  O         48.6510  -15.8530  -55.1920 O.2   241  GLN241     -0.2867
    148  CB        49.4150  -13.4090  -56.2730 C.3   241  GLN241      0.0367
    149  CG        50.2400  -12.1700  -56.5790 C.3   241  GLN241      0.0905
    150  CD        51.5880  -12.1870  -55.8960 C.2   241  GLN241      0.2608
    151  OE1       51.6730  -12.1290  -54.6680 O.2   241  GLN241     -0.2717
    152  NE2       52.6540  -12.2660  -56.6870 N.am  241  GLN241     -0.0878
    153  N         49.7850  -18.3090  -50.3890 N.3   278  TYR278     -0.1227
    154  CA        50.9630  -17.9580  -51.1810 C.3   278  TYR278      0.1736
    155  C         52.3160  -18.2250  -50.5190 C.2   278  TYR278      0.2595
    156  O         52.4090  -18.3340  -49.2890 O.2   278  TYR278     -0.2718
    157  CB        50.8820  -16.4970  -51.6310 C.3   278  TYR278      0.0548
    158  CG        51.7580  -16.2140  -52.8170 C.ar  278  TYR278     -0.0200
    159  CD1       51.5790  -16.9110  -54.0100 C.ar  278  TYR278     -0.0009
    160  CD2       52.7720  -15.2660  -52.7520 C.ar  278  TYR278     -0.0009
    161  CE1       52.3830  -16.6700  -55.1050 C.ar  278  TYR278      0.0417
    162  CE2       53.5810  -15.0140  -53.8480 C.ar  278  TYR278      0.0417
    163  CZ        53.3790  -15.7210  -55.0190 C.ar  278  TYR278      0.1957
    164  OH        54.1700  -15.4900  -56.1150 O.3   278  TYR278     -0.2866
    165  N         53.3500  -18.3190  -51.3630 N.am  279  ALA279     -0.1980
    166  CA        54.7470  -18.4790  -50.9440 C.3   279  ALA279      0.1597
    167  C         54.9610  -19.6300  -49.9630 C.2   279  ALA279      0.2287
    168  O         55.7160  -19.5020  -48.9910 O.2   279  ALA279     -0.2864
    169  CB        55.2860  -17.1730  -50.3720 C.3   279  ALA279      0.0319
    170  N         51.1000  -18.1750  -46.1530 N.3   296  TRP296     -0.1241
    171  CA        50.4170  -17.0120  -45.5980 C.3   296  TRP296      0.1605
    172  C         49.2020  -16.5940  -46.4200 C.2   296  TRP296      0.2264
    173  O         49.1440  -16.8060  -47.6360 O.2   296  TRP296     -0.2867
    174  CB        51.3810  -15.8290  -45.4270 C.3   296  TRP296      0.0550
    175  CG        51.9400  -15.2700  -46.7170 C.ar  296  TRP296      0.0003
    176  CD1       52.8670  -15.8580  -47.5340 C.ar  296  TRP296      0.0946
    177  CD2       51.6320  -14.0010  -47.3140 C.ar  296  TRP296      0.0152
    178  NE1       53.1460  -15.0400  -48.6050 N.ar  296  TRP296     -0.2442
    179  CE2       52.4040  -13.8950  -48.4950 C.ar  296  TRP296      0.0810
    180  CE3       50.7770  -12.9470  -46.9710 C.ar  296  TRP296      0.0012
    181  CZ2       52.3430  -12.7820  -49.3340 C.ar  296  TRP296      0.0191
    182  CZ3       50.7240  -11.8310  -47.8040 C.ar  296  TRP296      0.0001
    183  CH2       51.5010  -11.7620  -48.9720 C.ar  296  TRP296      0.0015
    184  N         47.1520  -13.2700  -47.3220 N.3   298  LYS298     -0.1245
    185  CA        47.0940  -11.8130  -47.3600 C.3   298  LYS298      0.1561
    186  C         45.7260  -11.3140  -46.9090 C.2   298  LYS298      0.2260
    187  O         44.7260  -12.0370  -46.9990 O.2   298  LYS298     -0.2867
    188  CB        47.3740  -11.3230  -48.7830 C.3   298  LYS298      0.0271
    189  CG        47.7610   -9.8640  -48.8910 C.3   298  LYS298      0.0035
    190  CD        47.8770   -9.4410  -50.3470 C.3   298  LYS298      0.0206
    191  CE        48.4840   -8.0530  -50.4890 C.3   298  LYS298      0.1093
    192  NZ        47.7130   -6.9850  -49.7750 N.3   298  LYS298     -0.1314
@<TRIPOS>BOND
     1   113   114    1
     2   114   117    1
     3   114   115    1
     4   117   118    1
     5   115   116    2
     6   119   118    1
     7   118   120    1
     8   143   141   ar
     9   138   139    2
    10   138   137    1
    11   136   137    1
    12   140   137    1
    13   140   141    1
    14   141   142   ar
    15   121   122    1
    16   144   145    1
    17   104   102    1
    18    80    79    2
    19   126   127    1
    20   126   125    1
    21   122   125    1
    22   122   123    1
    23    81    82    1
    24    81    78    1
    25    94    95    1
    26   102   103    1
    27   102   101    2
    28   145   148    1
    29   145   146    1
    30    88    87    2
    31   152   150   am
    32   128   127   ar
    33    79    78    1
    34   149   148    1
    35   149   150    1
    36    82    83    1
    37   127   129   ar
    38    92    91   ar
    39    85    86    1
    40   124   123    2
    41   146   147    2
    42   101   100    1
    43    91    93   ar
    44    91    90    1
    45   164   163    1
    46   123   130   am
    47    78    77    1
    48    97    96    2
    49    98    95    1
    50    98    99    1
    51   150   151    2
    52    90    89    1
    53    89    86    1
    54    95    96    1
    55    87    86    1
    56   100    99    1
    57    84    83    1
    58    96   105   am
    59   161   163   ar
    60   161   159   ar
    61   163   162   ar
    62   130   131    1
    63   132   133    2
    64   132   131    1
    65   108   107    2
    66   159   158   ar
    67   131   134    1
    68   105   106    1
    69   162   160   ar
    70   112   110   ar
    71   109   106    1
    72   109   110    1
    73   107   106    1
    74   110   111   ar
    75   134   135    1
    76   158   160   ar
    77   158   157    1
    78    69    67   ar
    79    69    70   ar
    80    67    65   ar
    81    51    50   ar
    82    51    49   ar
    83   157   154    1
    84    70    68   ar
    85    50    48   ar
    86   165   166    1
    87   165   155   am
    88   154   155    1
    89   154   153    1
    90    49    47   ar
    91   166   169    1
    92   166   167    1
    93    48    45   ar
    94    65    64    1
    95    65    66   ar
    96   155   156    2
    97   191   190    1
    98   191   192    1
    99    47    45   ar
   100    47    46   ar
   101   190   189    1
   102    45    43   ar
   103    68    66   ar
   104    64    61    1
   105   167   168    2
   106    28    26   ar
   107    46    44   ar
   108    43    44   ar
   109    43    42    1
   110    74    73    2
   111   181   183   ar
   112   181   179   ar
   113    27    26   ar
   114    75    76    1
   115    75    72    1
   116    42    39    1
   117    26    25    1
   118   183   182   ar
   119   189   188    1
   120    71    72    1
   121    71    62   am
   122   188   185    1
   123    61    62    1
   124    61    60    1
   125    73    72    1
   126   178   179   ar
   127   178   176   ar
   128   179   177   ar
   129    62    63    2
   130    41    40    2
   131   182   180   ar
   132    58    57    2
   133    14    12   ar
   134    14    13   ar
   135    40    39    1
   136    39    38    1
   137   173   172    2
   138    25    22    1
   139   176   175   ar
   140    12    10   ar
   141    59    57   am
   142   185   184    1
   143   185   186    1
   144   177   180   ar
   145   177   175   ar
   146    57    56    1
   147   187   186    2
   148    13    11   ar
   149   175   174    1
   150    20    19    1
   151    22    21    1
   152    22    23    1
   153    19    16    1
   154    36    35    2
   155   172   171    1
   156    21    17   am
   157    34    35    1
   158    34    33    1
   159    56    53    1
   160    35    37   am
   161    10     9   ar
   162    10     8   ar
   163   170   171    1
   164    11     8   ar
   165     9     7   ar
   166   171   174    1
   167    23    24    2
   168    52    53    1
   169    17    16    1
   170    17    18    2
   171     8     6   ar
   172    16    15    1
   173    33    30    1
   174    53    54    1
   175     7     6   ar
   176     6     5    1
   177    55    54    2
   178    30    29    1
   179    30    31    1
   180     5     2    1
   181    31    32    2
   182     2     3    1
   183     2     1    1
   184     3     4    2
