@<TRIPOS>MOLECULE
tmp/3ughA02.pdb
 121 112 0 0 0
SMALL
GASTEIGER

@<TRIPOS>ATOM
      1  N        -14.6500   15.5150  -70.9420 N.3   173  THR173     -0.1218
      2  CA       -13.3980   15.8380  -70.2520 C.3   173  THR173      0.1862
      3  C        -13.4030   17.2800  -69.7450 C.2   173  THR173      0.2287
      4  O        -12.3780   17.7830  -69.2630 O.2   173  THR173     -0.2866
      5  CB       -12.1560   15.6420  -71.1620 C.3   173  THR173      0.1770
      6  OG1      -12.2790   16.4680  -72.3250 O.3   173  THR173     -0.2211
      7  CG2      -11.9990   14.1860  -71.5810 C.3   173  THR173      0.0375
      8  N        -10.6340   20.0980  -70.7680 N.3   200  ASP200     -0.1239
      9  CA        -9.5010   19.2180  -70.4370 C.3   200  ASP200      0.1674
     10  C         -9.0340   19.2530  -68.9750 C.2   200  ASP200      0.2266
     11  O         -7.8320   19.1640  -68.7090 O.2   200  ASP200     -0.2867
     12  CB        -8.3000   19.4870  -71.3650 C.3   200  ASP200      0.1410
     13  CG        -8.6510   19.3760  -72.8360 C.2   200  ASP200      0.3668
     14  OD1       -9.2630   18.3570  -73.2410 O.co2 200  ASP200     -0.2456
     15  OD2       -8.2960   20.3110  -73.5900 O.co2 200  ASP200     -0.2456
     16  N         -8.7320   13.7740  -61.2750 N.3   239  GLU239     -0.1231
     17  CA        -7.7300   13.0600  -62.0730 C.3   239  GLU239      0.1699
     18  C         -6.3050   13.3180  -61.5830 C.2   239  GLU239      0.2592
     19  O         -5.4260   12.4810  -61.7660 O.2   239  GLU239     -0.2718
     20  CB        -7.8810   13.3650  -63.5720 C.3   239  GLU239      0.0402
     21  CG        -8.9540   12.4930  -64.2450 C.3   239  GLU239      0.1161
     22  CD        -9.2260   12.8400  -65.7140 C.2   239  GLU239      0.3649
     23  OE1       -8.2720   12.8460  -66.5320 O.co2 239  GLU239     -0.2457
     24  OE2      -10.4120   13.0820  -66.0500 O.co2 239  GLU239     -0.2457
     25  N         -6.1050   14.4650  -60.9350 N.am  240  GLN240     -0.1979
     26  CA        -4.7940   14.8630  -60.4130 C.3   240  GLN240      0.1601
     27  C         -4.6460   14.6460  -58.9050 C.2   240  GLN240      0.2287
     28  O         -3.5230   14.5340  -58.4060 O.2   240  GLN240     -0.2864
     29  CB        -4.5060   16.3300  -60.7490 C.3   240  GLN240      0.0394
     30  CG        -4.0400   16.5610  -62.1760 C.3   240  GLN240      0.0908
     31  CD        -3.7780   18.0260  -62.4880 C.2   240  GLN240      0.2608
     32  OE1       -3.0030   18.6970  -61.8050 O.2   240  GLN240     -0.2717
     33  NE2       -4.4180   18.5220  -63.5330 N.am  240  GLN240     -0.0878
     34  N         -5.4260   17.0040  -56.8770 N.3   242  ARG242     -0.1245
     35  CA        -4.8530   18.3120  -56.5670 C.3   242  ARG242      0.1563
     36  C         -5.9040   19.4160  -56.5990 C.2   242  ARG242      0.2260
     37  O         -6.8420   19.3670  -57.3980 O.2   242  ARG242     -0.2867
     38  CB        -3.7380   18.6360  -57.5560 C.3   242  ARG242      0.0307
     39  CG        -2.4180   17.9570  -57.2410 C.3   242  ARG242      0.0489
     40  CD        -1.7040   17.5740  -58.5100 C.3   242  ARG242      0.2205
     41  NE        -0.2560   17.6260  -58.3540 N.pl3 242  ARG242     -0.0865
     42  CZ         0.6090   16.9240  -59.0820 C.cat 242  ARG242      0.5346
     43  NH1        0.1630   16.0900  -60.0210 N.pl3 242  ARG242      0.1354
     44  NH2        1.9220   17.0530  -58.8670 N.pl3 242  ARG242      0.1354
     45  N         -7.0810   23.3410  -57.1980 N.3   244  TYR244     -0.1241
     46  CA        -6.7870   24.5150  -58.0150 C.3   244  TYR244      0.1605
     47  C         -7.7900   25.6250  -57.7360 C.2   244  TYR244      0.2264
     48  O         -8.9390   25.3580  -57.4000 O.2   244  TYR244     -0.2867
     49  CB        -6.8220   24.1560  -59.5010 C.3   244  TYR244      0.0534
     50  CG        -5.6020   23.4110  -60.0150 C.ar  244  TYR244     -0.0201
     51  CD1       -4.5420   24.0980  -60.6060 C.ar  244  TYR244     -0.0009
     52  CD2       -5.5190   22.0220  -59.9300 C.ar  244  TYR244     -0.0009
     53  CE1       -3.4230   23.4240  -61.0880 C.ar  244  TYR244      0.0417
     54  CE2       -4.4040   21.3340  -60.4060 C.ar  244  TYR244      0.0417
     55  CZ        -3.3610   22.0430  -60.9840 C.ar  244  TYR244      0.1957
     56  OH        -2.2550   21.3740  -61.4590 O.3   244  TYR244     -0.2866
     57  N         -8.2060   24.7930  -62.7080 N.3   267  GLY267     -0.1210
     58  CA        -7.6630   23.5050  -63.1120 C.3   267  GLY267      0.1956
     59  C         -6.4110   23.6100  -63.9540 C.2   267  GLY267      0.2611
     60  O         -5.7260   22.6110  -64.1790 O.2   267  GLY267     -0.2717
     61  N         -6.1110   24.8160  -64.4290 N.am  268  ILE268     -0.1979
     62  CA        -4.9610   25.0310  -65.3170 C.3   268  ILE268      0.1595
     63  C         -4.0530   26.1910  -64.8750 C.2   268  ILE268      0.2287
     64  O         -3.1940   26.6350  -65.6320 O.2   268  ILE268     -0.2864
     65  CB        -5.4050   25.2290  -66.7950 C.3   268  ILE268      0.0276
     66  CG1       -6.3760   26.4090  -66.9210 C.3   268  ILE268      0.0022
     67  CG2       -6.0030   23.9320  -67.3680 C.3   268  ILE268      0.0022
     68  CD1       -6.3700   27.0550  -68.2860 C.3   268  ILE268      0.0001
     69  N         -2.4550   26.8050  -57.5320 N.3   271  ARG271     -0.1245
     70  CA        -2.9010   25.9280  -56.4640 C.3   271  ARG271      0.1563
     71  C         -2.7830   26.6670  -55.1370 C.2   271  ARG271      0.2260
     72  O         -1.9570   27.5710  -55.0000 O.2   271  ARG271     -0.2867
     73  CB        -2.0420   24.6640  -56.4240 C.3   271  ARG271      0.0307
     74  CG        -2.1020   23.8240  -57.6880 C.3   271  ARG271      0.0489
     75  CD        -1.4760   22.4670  -57.4820 C.3   271  ARG271      0.2205
     76  NE        -0.9160   21.9430  -58.7260 N.pl3 271  ARG271     -0.0865
     77  CZ         0.0450   21.0250  -58.7880 C.cat 271  ARG271      0.5346
     78  NH1        0.5620   20.5240  -57.6740 N.pl3 271  ARG271      0.1354
     79  NH2        0.4950   20.6090  -59.9630 N.pl3 271  ARG271      0.1354
     80  N         12.4070   23.5660  -63.3070 N.3   383  ASN383     -0.1240
     81  CA        11.1120   23.0520  -62.8920 C.3   383  ASN383      0.1653
     82  C         11.3870   22.1190  -61.7110 C.2   383  ASN383      0.2266
     83  O         12.1020   21.1250  -61.8720 O.2   383  ASN383     -0.2867
     84  CB        10.4760   22.3050  -64.0760 C.3   383  ASN383      0.1155
     85  CG         9.1610   21.6240  -63.7340 C.2   383  ASN383      0.2627
     86  OD1        8.8280   21.4160  -62.5700 O.2   383  ASN383     -0.2716
     87  ND2        8.4070   21.2640  -64.7730 N.am  383  ASN383     -0.0877
     88  N          9.6850   19.8440  -60.1860 N.3   385  THR385     -0.1203
     89  CA         9.2470   18.4680  -60.4590 C.3   385  THR385      0.1994
     90  C         10.2800   17.6410  -61.2310 C.2   385  THR385      0.2618
     91  O         10.5620   16.5040  -60.8600 O.2   385  THR385     -0.2717
     92  CB         7.8800   18.4270  -61.1990 C.3   385  THR385      0.1784
     93  OG1        6.9360   19.2630  -60.5210 O.3   385  THR385     -0.2211
     94  CG2        7.3220   17.0020  -61.2630 C.3   385  THR385      0.0376
     95  N         10.8490   18.2200  -62.2850 N.am  386  THR386     -0.1952
     96  CA        11.7940   17.5070  -63.1470 C.3   386  THR386      0.1897
     97  C         13.2560   17.7540  -62.7720 C.2   386  THR386      0.2313
     98  O         14.1640   17.2690  -63.4530 O.2   386  THR386     -0.2863
     99  CB        11.5920   17.8680  -64.6360 C.3   386  THR386      0.1794
    100  OG1       11.7950   19.2740  -64.8270 O.3   386  THR386     -0.2208
    101  CG2       10.1990   17.4960  -65.1020 C.3   386  THR386      0.0378
    102  N          9.5020   12.3990  -54.2010 N.3   443  GLN443     -0.1245
    103  CA         9.2650   13.4340  -55.2060 C.3   443  GLN443      0.1566
    104  C          9.8500   14.7990  -54.8360 C.2   443  GLN443      0.2260
    105  O         10.1670   15.0600  -53.6750 O.2   443  GLN443     -0.2867
    106  CB         7.7610   13.5580  -55.4960 C.3   443  GLN443      0.0367
    107  CG         7.2090   12.4840  -56.4350 C.3   443  GLN443      0.0905
    108  CD         7.9900   12.4000  -57.7410 C.2   443  GLN443      0.2608
    109  OE1        8.7240   11.4340  -57.9740 O.2   443  GLN443     -0.2717
    110  NE2        7.8530   13.4280  -58.5910 N.am  443  GLN443     -0.0878
    111  N          6.8790   25.1740  -57.1160 N.3   447  PHE447     -0.1241
    112  CA         6.4750   26.0780  -58.1950 C.3   447  PHE447      0.1605
    113  C          7.2730   27.3780  -58.1120 C.2   447  PHE447      0.2264
    114  O          8.1270   27.5260  -57.2360 O.2   447  PHE447     -0.2867
    115  CB         4.9740   26.3730  -58.0880 C.3   447  PHE447      0.0534
    116  CG         4.3390   26.8080  -59.3770 C.ar  447  PHE447     -0.0203
    117  CD1        4.2240   25.9270  -60.4460 C.ar  447  PHE447     -0.0042
    118  CD2        3.8320   28.0970  -59.5150 C.ar  447  PHE447     -0.0042
    119  CE1        3.6240   26.3250  -61.6420 C.ar  447  PHE447     -0.0003
    120  CE2        3.2310   28.5070  -60.7100 C.ar  447  PHE447     -0.0003
    121  CZ         3.1290   27.6210  -61.7730 C.ar  447  PHE447     -0.0000
@<TRIPOS>BOND
     1    15    13   ar
     2    14    13   ar
     3    13    12    1
     4     6     5    1
     5     7     5    1
     6    12     9    1
     7     5     2    1
     8     1     2    1
     9     8     9    1
    10     9    10    1
    11     2     3    1
    12     3     4    2
    13    10    11    2
    14    68    66    1
    15    67    65    1
    16    66    65    1
    17    65    62    1
    18    23    22   ar
    19    24    22   ar
    20    22    21    1
    21    64    63    2
    22    62    63    1
    23    62    61    1
    24   101    99    1
    25   100    99    1
    26    87    85   am
    27    99    96    1
    28    61    59   am
    29    21    20    1
    30    60    59    2
    31    84    85    1
    32    84    81    1
    33    59    58    1
    34    85    86    2
    35    20    17    1
    36    33    31   am
    37    98    97    2
    38    80    81    1
    39    96    97    1
    40    96    95    1
    41    58    57    1
    42    81    82    1
    43    31    30    1
    44    31    32    2
    45    95    90   am
    46    30    29    1
    47    17    18    1
    48    17    16    1
    49    83    82    2
    50   121   119   ar
    51   121   120   ar
    52    19    18    2
    53   119   117   ar
    54    18    25   am
    55    56    55    1
    56    94    92    1
    57    90    91    2
    58    90    89    1
    59    92    93    1
    60    92    89    1
    61    53    55   ar
    62    53    51   ar
    63    55    54   ar
    64    25    26    1
    65    29    26    1
    66   120   118   ar
    67    51    50   ar
    68    89    88    1
    69   117   116   ar
    70    26    27    1
    71    54    52   ar
    72    43    42    1
    73    50    52   ar
    74    50    49    1
    75    79    77    1
    76   118   116   ar
    77    49    46    1
    78   116   115    1
    79    42    44    1
    80    42    41    2
    81    27    28    2
    82    77    76    2
    83    77    78    1
    84    76    75    1
    85   110   108   am
    86    40    41    1
    87    40    39    1
    88   112   113    1
    89   112   115    1
    90   112   111    1
    91   113   114    2
    92    46    47    1
    93    46    45    1
    94   109   108    2
    95   108   107    1
    96    47    48    2
    97    74    75    1
    98    74    73    1
    99    38    39    1
   100    38    35    1
   101    69    70    1
   102    37    36    2
   103    34    35    1
   104    36    35    1
   105    70    73    1
   106    70    71    1
   107   107   106    1
   108   106   103    1
   109   103   104    1
   110   103   102    1
   111    71    72    2
   112   104   105    2
