@<TRIPOS>MOLECULE
tmp/3ughB00.pdb
 140 134 0 0 0
SMALL
GASTEIGER

@<TRIPOS>ATOM
      1  N         -4.8320    6.6330   -4.8860 N.3    27  ASP27      -0.1239
      2  CA        -3.7970    5.6550   -4.5210 C.3    27  ASP27       0.1674
      3  C         -3.2490    4.8170   -5.6770 C.2    27  ASP27       0.2266
      4  O         -4.0230    4.2000   -6.4120 O.2    27  ASP27      -0.2867
      5  CB        -4.3280    4.6850   -3.4570 C.3    27  ASP27       0.1410
      6  CG        -4.9100    5.3840   -2.2360 C.2    27  ASP27       0.3668
      7  OD1       -5.2100    6.5990   -2.2910 O.co2  27  ASP27      -0.2456
      8  OD2       -5.0800    4.6940   -1.2050 O.co2  27  ASP27      -0.2456
      9  N        -13.7170   11.1890   -4.4770 N.3    51  TRP51      -0.1241
     10  CA       -13.4700    9.8490   -3.9390 C.3    51  TRP51       0.1605
     11  C        -14.7670    9.0390   -3.8800 C.2    51  TRP51       0.2264
     12  O        -15.8200    9.5620   -3.4970 O.2    51  TRP51      -0.2867
     13  CB       -12.8440    9.9260   -2.5420 C.3    51  TRP51       0.0550
     14  CG       -12.4640    8.5800   -1.9640 C.ar   51  TRP51       0.0003
     15  CD1      -11.2390    7.9720   -2.0320 C.ar   51  TRP51       0.0946
     16  CD2      -13.3160    7.6790   -1.2390 C.ar   51  TRP51       0.0152
     17  NE1      -11.2750    6.7560   -1.3960 N.ar   51  TRP51      -0.2442
     18  CE2      -12.5360    6.5500   -0.8980 C.ar   51  TRP51       0.0810
     19  CE3      -14.6640    7.7150   -0.8440 C.ar   51  TRP51       0.0012
     20  CZ2      -13.0580    5.4650   -0.1780 C.ar   51  TRP51       0.0191
     21  CZ3      -15.1800    6.6370   -0.1310 C.ar   51  TRP51       0.0001
     22  CH2      -14.3760    5.5280    0.1940 C.ar   51  TRP51       0.0015
     23  N        -10.5690   -1.4020   -3.1110 N.3    86  PHE86      -0.1227
     24  CA        -9.5780   -0.5390   -2.4790 C.3    86  PHE86       0.1736
     25  C         -8.1570   -0.9340   -2.8460 C.2    86  PHE86       0.2596
     26  O         -7.9350   -1.8700   -3.6050 O.2    86  PHE86      -0.2718
     27  CB        -9.7520   -0.5430   -0.9590 C.3    86  PHE86       0.0547
     28  CG       -10.8460    0.3640   -0.4610 C.ar   86  PHE86      -0.0202
     29  CD1      -10.8250    0.8260    0.8580 C.ar   86  PHE86      -0.0042
     30  CD2      -11.8930    0.7570   -1.2930 C.ar   86  PHE86      -0.0042
     31  CE1      -11.8300    1.6570    1.3440 C.ar   86  PHE86      -0.0003
     32  CE2      -12.9000    1.5890   -0.8250 C.ar   86  PHE86      -0.0003
     33  CZ       -12.8710    2.0420    0.5000 C.ar   86  PHE86      -0.0000
     34  N         -7.2010   -0.2100   -2.2800 N.am   87  SER87      -0.1952
     35  CA        -5.7990   -0.3220   -2.6480 C.3    87  SER87       0.1924
     36  C         -5.1700   -1.6820   -2.3360 C.2    87  SER87       0.2314
     37  O         -5.6030   -2.3800   -1.4130 O.2    87  SER87      -0.2863
     38  CB        -5.0090    0.7890   -1.9690 C.3    87  SER87       0.2116
     39  OG        -3.6590    0.7420   -2.3890 O.3    87  SER87      -0.2180
     40  N        -19.8290   -1.8150    4.7400 N.3   109  MET109     -0.1245
     41  CA       -18.5450   -1.1320    4.9920 C.3   109  MET109      0.1570
     42  C        -17.4220   -2.0360    5.5300 C.2   109  MET109      0.2261
     43  O        -16.3660   -1.5450    5.9320 O.2   109  MET109     -0.2867
     44  CB       -18.7170    0.1080    5.8910 C.3   109  MET109      0.0387
     45  CG       -19.7240    1.1540    5.3990 C.3   109  MET109      0.0595
     46  SD       -19.4960    1.7230    3.6980 S.3   109  MET109     -0.1393
     47  CE       -17.8720    2.4930    3.7750 C.3   109  MET109      0.0692
     48  N        -14.2930   -4.3440    5.4800 N.3   111  GLU111     -0.1245
     49  CA       -13.0910   -4.4470    4.6520 C.3   111  GLU111      0.1567
     50  C        -12.4130   -5.8080    4.8140 C.2   111  GLU111      0.2260
     51  O        -12.1030   -6.2340    5.9300 O.2   111  GLU111     -0.2867
     52  CB       -12.1180   -3.3040    4.9710 C.3   111  GLU111      0.0388
     53  CG       -12.7250   -1.9110    4.7920 C.3   111  GLU111      0.1160
     54  CD       -11.7240   -0.7710    4.9920 C.2   111  GLU111      0.3649
     55  OE1      -10.7430   -0.9430    5.7590 O.co2 111  GLU111     -0.2457
     56  OE2      -11.9270    0.3080    4.3830 O.co2 111  GLU111     -0.2457
     57  N        -13.9580   -2.5590    9.7640 N.3   147  THR147     -0.1218
     58  CA       -14.2530   -1.4830    8.8180 C.3   147  THR147      0.1862
     59  C        -12.9910   -0.6720    8.5130 C.2   147  THR147      0.2287
     60  O        -13.0210    0.2820    7.7320 O.2   147  THR147     -0.2866
     61  CB       -15.3780   -0.5560    9.3260 C.3   147  THR147      0.1770
     62  OG1      -15.0350   -0.0520   10.6190 O.3   147  THR147     -0.2211
     63  CG2      -16.6810   -1.3110    9.4240 C.3   147  THR147      0.0375
     64  N         -7.1630   -2.8500    5.8730 N.3   150  ARG150     -0.1231
     65  CA        -6.8290   -2.5860    4.4740 C.3   150  ARG150      0.1694
     66  C         -5.3310   -2.5220    4.1520 C.2   150  ARG150      0.2592
     67  O         -4.4850   -2.5360    5.0520 O.2   150  ARG150     -0.2718
     68  CB        -7.5250   -1.2960    4.0120 C.3   150  ARG150      0.0321
     69  CG        -7.0660   -0.0280    4.7350 C.3   150  ARG150      0.0489
     70  CD        -7.8310    1.1990    4.2520 C.3   150  ARG150      0.2205
     71  NE        -9.1170    1.3450    4.9340 N.pl3 150  ARG150     -0.0865
     72  CZ        -9.4770    2.3970    5.6680 C.cat 150  ARG150      0.5346
     73  NH1      -10.6690    2.4170    6.2520 N.pl3 150  ARG150      0.1354
     74  NH2       -8.6590    3.4330    5.8120 N.pl3 150  ARG150      0.1354
     75  N         -5.0330   -2.4530    2.8510 N.am  151  ASP151     -0.1974
     76  CA        -3.6980   -2.1480    2.3060 C.3   151  ASP151      0.1709
     77  C         -2.6290   -3.2120    2.5710 C.2   151  ASP151      0.2293
     78  O         -1.7150   -3.0040    3.3780 O.2   151  ASP151     -0.2864
     79  CB        -3.2110   -0.7610    2.7650 C.3   151  ASP151      0.1436
     80  CG        -4.1120    0.3730    2.2890 C.2   151  ASP151      0.3671
     81  OD1       -4.7990    0.2070    1.2560 O.co2 151  ASP151     -0.2456
     82  OD2       -4.1270    1.4410    2.9440 O.co2 151  ASP151     -0.2456
     83  N         -1.6600    3.2650    6.9580 N.3   205  GLU205     -0.1231
     84  CA        -2.1100    2.7810    5.6620 C.3   205  GLU205      0.1699
     85  C         -0.9050    2.5050    4.7800 C.2   205  GLU205      0.2592
     86  O          0.2020    2.9270    5.1070 O.2   205  GLU205     -0.2718
     87  CB        -3.0110    3.8190    5.0000 C.3   205  GLU205      0.0402
     88  CG        -4.3740    3.9860    5.6440 C.3   205  GLU205      0.1161
     89  CD        -5.2890    4.8620    4.8140 C.2   205  GLU205      0.3649
     90  OE1       -4.8980    6.0020    4.4730 O.co2 205  GLU205     -0.2457
     91  OE2       -6.4040    4.4040    4.4950 O.co2 205  GLU205     -0.2457
     92  N         -1.1270    1.8060    3.6650 N.am  206  CYS206     -0.1970
     93  CA        -0.0660    1.4640    2.7010 C.3   206  CYS206      0.1712
     94  C          1.3040    1.3380    3.3630 C.2   206  CYS206      0.2296
     95  O          2.2020    2.1300    3.0650 O.2   206  CYS206     -0.2864
     96  CB         0.0310    2.5010    1.5590 C.3   206  CYS206      0.0983
     97  SG        -1.5440    3.1420    0.8630 S.3   206  CYS206     -0.0798
     98  N         -2.8110    8.2200    8.2200 N.3   238  ASP238     -0.1239
     99  CA        -4.1720    8.5540    7.8050 C.3   238  ASP238      0.1674
    100  C         -4.6950    9.8930    8.3260 C.2   238  ASP238      0.2266
    101  O         -5.2510   10.6790    7.5620 O.2   238  ASP238     -0.2867
    102  CB        -5.1220    7.4360    8.2340 C.3   238  ASP238      0.1410
    103  CG        -6.5480    7.6880    7.8060 C.2   238  ASP238      0.3668
    104  OD1       -6.8010    7.6800    6.5830 O.co2 238  ASP238     -0.2456
    105  OD2       -7.4100    7.8830    8.6950 O.co2 238  ASP238     -0.2456
    106  N         -2.9330   12.6400    6.6070 N.3   241  GLN241     -0.1245
    107  CA        -2.8910   12.4440    5.1470 C.3   241  GLN241      0.1566
    108  C         -1.5040   12.7420    4.5640 C.2   241  GLN241      0.2260
    109  O         -1.3780   13.4240    3.5440 O.2   241  GLN241     -0.2867
    110  CB        -3.9940   13.2320    4.4250 C.3   241  GLN241      0.0367
    111  CG        -5.4120   12.7020    4.6350 C.3   241  GLN241      0.0905
    112  CD        -5.6980   11.4050    3.8850 C.2   241  GLN241      0.2608
    113  OE1       -5.6970   11.3630    2.6480 O.2   241  GLN241     -0.2717
    114  NE2       -5.9670   10.3380    4.6370 N.am  241  GLN241     -0.0878
    115  N          0.8120   11.4010   -1.0130 N.3   278  TYR278     -0.1241
    116  CA         0.1790   10.3950   -0.1760 C.3   278  TYR278      0.1605
    117  C          0.0950    9.0130   -0.8300 C.2   278  TYR278      0.2264
    118  O          0.2390    8.8750   -2.0560 O.2   278  TYR278     -0.2867
    119  CB        -1.2090   10.8830    0.2630 C.3   278  TYR278      0.0534
    120  CG        -1.8080   10.0880    1.3990 C.ar  278  TYR278     -0.0201
    121  CD1       -1.1760   10.0240    2.6380 C.ar  278  TYR278     -0.0009
    122  CD2       -3.0010    9.3910    1.2330 C.ar  278  TYR278     -0.0009
    123  CE1       -1.7170    9.2920    3.6800 C.ar  278  TYR278      0.0417
    124  CE2       -3.5510    8.6530    2.2740 C.ar  278  TYR278      0.0417
    125  CZ        -2.9010    8.6120    3.4910 C.ar  278  TYR278      0.1957
    126  OH        -3.4340    7.8850    4.5230 O.3   278  TYR278     -0.2866
    127  N          0.4600    9.8330   -5.1600 N.3   296  TRP296     -0.1241
    128  CA        -0.4960   10.7480   -5.7780 C.3   296  TRP296      0.1605
    129  C         -0.5820   12.0820   -5.0650 C.2   296  TRP296      0.2264
    130  O         -0.4330   12.1590   -3.8410 O.2   296  TRP296     -0.2867
    131  CB        -1.8780   10.1110   -5.9190 C.3   296  TRP296      0.0550
    132  CG        -2.6230    9.9020   -4.6450 C.ar  296  TRP296      0.0003
    133  CD1       -2.3460    8.9860   -3.6700 C.ar  296  TRP296      0.0946
    134  CD2       -3.8040   10.5900   -4.2230 C.ar  296  TRP296      0.0152
    135  NE1       -3.2700    9.0760   -2.6540 N.ar  296  TRP296     -0.2442
    136  CE2       -4.1790   10.0500   -2.9720 C.ar  296  TRP296      0.0810
    137  CE3       -4.5800   11.6140   -4.7770 C.ar  296  TRP296      0.0012
    138  CZ2       -5.2930   10.5040   -2.2630 C.ar  296  TRP296      0.0191
    139  CZ3       -5.6920   12.0580   -4.0740 C.ar  296  TRP296      0.0001
    140  CH2       -6.0350   11.5030   -2.8290 C.ar  296  TRP296      0.0015
@<TRIPOS>BOND
     1     4     3    2
     2   131   128    1
     3   131   132    1
     4   128   127    1
     5   128   129    1
     6     3     2    1
     7   129   130    2
     8     1     2    1
     9   137   134   ar
    10   137   139   ar
    11   132   134   ar
    12   132   133   ar
    13     2     5    1
    14     9    10    1
    15   134   136   ar
    16   139   140   ar
    17    10    11    1
    18    10    13    1
    19    11    12    2
    20   133   135   ar
    21    26    25    2
    22     5     6    1
    23    23    24    1
    24   136   135   ar
    25   136   138   ar
    26    25    24    1
    27    25    34   am
    28   140   138   ar
    29    35    36    1
    30    35    34    1
    31    35    38    1
    32    13    14    1
    33    24    27    1
    34    39    38    1
    35    36    37    2
    36     7     6   ar
    37     6     8   ar
    38   118   117    2
    39    15    14   ar
    40    15    17   ar
    41    14    16   ar
    42    17    18   ar
    43    30    32   ar
    44    30    28   ar
    45    16    18   ar
    46    16    19   ar
    47   115   116    1
    48    27    28    1
    49    18    20   ar
    50    19    21   ar
    51   117   116    1
    52    32    33   ar
    53    28    29   ar
    54    20    22   ar
    55   116   119    1
    56    21    22   ar
    57   119   120    1
    58    33    31   ar
    59    29    31   ar
    60    97    96    1
    61   122   120   ar
    62   122   124   ar
    63    81    80   ar
    64   120   121   ar
    65    96    93    1
    66   124   125   ar
    67    80    79    1
    68    80    82   ar
    69    76    77    1
    70    76    79    1
    71    76    75    1
    72    77    78    2
    73   121   123   ar
    74   113   112    2
    75    93    94    1
    76    93    92    1
    77    75    66   am
    78    95    94    2
    79   125   123   ar
    80   125   126    1
    81   109   108    2
    82    92    85   am
    83    46    47    1
    84    46    45    1
    85   112   111    1
    86   112   114   am
    87    68    65    1
    88    68    69    1
    89    66    65    1
    90    66    67    2
    91    70    69    1
    92    70    71    1
    93    56    54   ar
    94   110   111    1
    95   110   107    1
    96    90    89   ar
    97    65    64    1
    98    91    89   ar
    99   108   107    1
   100    49    50    1
   101    49    52    1
   102    49    48    1
   103    40    41    1
   104    85    86    2
   105    85    84    1
   106    53    52    1
   107    53    54    1
   108    50    51    2
   109    89    88    1
   110    71    72    2
   111    41    42    1
   112    41    44    1
   113    54    55   ar
   114    87    88    1
   115    87    84    1
   116   107   106    1
   117    45    44    1
   118    42    43    2
   119    84    83    1
   120    72    74    1
   121    72    73    1
   122   104   103   ar
   123   101   100    2
   124    60    59    2
   125    99    98    1
   126    99   102    1
   127    99   100    1
   128   103   102    1
   129   103   105   ar
   130    59    58    1
   131    58    61    1
   132    58    57    1
   133    61    63    1
   134    61    62    1
