@<TRIPOS>MOLECULE
tmp/3ughB03.pdb
 125 116 0 0 0
SMALL
GASTEIGER

@<TRIPOS>ATOM
      1  N         -4.7250    4.4320   19.8640 N.3   173  THR173     -0.1218
      2  CA        -4.0670    5.5040   19.1040 C.3   173  THR173      0.1862
      3  C         -2.7040    5.1020   18.5300 C.2   173  THR173      0.2287
      4  O         -2.0910    5.8760   17.7910 O.2   173  THR173     -0.2866
      5  CB        -3.8960    6.7890   19.9250 C.3   173  THR173      0.1770
      6  OG1       -3.2050    6.4850   21.1400 O.3   173  THR173     -0.2211
      7  CG2       -5.2410    7.4250   20.2300 C.3   173  THR173      0.0375
      8  N          0.6360    7.0810   19.6000 N.3   200  ASP200     -0.1239
      9  CA         0.1380    8.4200   19.2160 C.3   200  ASP200      0.1674
     10  C          0.2760    8.8200   17.7310 C.2   200  ASP200      0.2266
     11  O          0.3780   10.0080   17.4180 O.2   200  ASP200     -0.2867
     12  CB         0.7430    9.5080   20.1200 C.3   200  ASP200      0.1410
     13  CG         0.2960    9.3850   21.5750 C.2   200  ASP200      0.3668
     14  OD1       -0.8850    9.0410   21.8320 O.co2 200  ASP200     -0.2456
     15  OD2        1.1310    9.6520   22.4690 O.co2 200  ASP200     -0.2456
     16  N         -4.5170   10.1390    9.6220 N.3   239  GLU239     -0.1231
     17  CA        -5.0560   11.3340   10.2770 C.3   239  GLU239      0.1699
     18  C         -4.4250   12.6240    9.7650 C.2   239  GLU239      0.2592
     19  O         -5.0680   13.6740    9.7630 O.2   239  GLU239     -0.2718
     20  CB        -4.9100   11.2300   11.7970 C.3   239  GLU239      0.0402
     21  CG        -5.7470   10.1170   12.4100 C.3   239  GLU239      0.1161
     22  CD        -5.7340   10.1090   13.9320 C.2   239  GLU239      0.3649
     23  OE1       -5.2770   11.0990   14.5470 O.co2 239  GLU239     -0.2457
     24  OE2       -6.1920    9.1000   14.5150 O.co2 239  GLU239     -0.2457
     25  N         -3.1730   12.5330    9.3260 N.am  240  GLN240     -0.1979
     26  CA        -2.4500   13.6700    8.7600 C.3   240  GLN240      0.1601
     27  C         -2.5740   13.7640    7.2370 C.2   240  GLN240      0.2287
     28  O         -2.3500   14.8330    6.6610 O.2   240  GLN240     -0.2864
     29  CB        -0.9710   13.5810    9.1310 C.3   240  GLN240      0.0394
     30  CG        -0.6600   13.8850   10.5860 C.3   240  GLN240      0.0908
     31  CD         0.8330   13.9230   10.8540 C.2   240  GLN240      0.2608
     32  OE1        1.6070   14.4650   10.0650 O.2   240  GLN240     -0.2717
     33  NE2        1.2450   13.3440   11.9710 N.am  240  GLN240     -0.0878
     34  N         -0.4680   12.2250    5.2260 N.3   242  ARG242     -0.1245
     35  CA         0.9280   12.4310    4.8200 C.3   242  ARG242      0.1563
     36  C          1.7200   11.1520    5.0360 C.2   242  ARG242      0.2260
     37  O          1.4380   10.4050    5.9710 O.2   242  ARG242     -0.2867
     38  CB         1.5760   13.5740    5.6150 C.3   242  ARG242      0.0307
     39  CG         0.7430   14.8480    5.6730 C.3   242  ARG242      0.0489
     40  CD         1.5130   16.0070    6.2400 C.3   242  ARG242      0.2205
     41  NE         0.6470   17.1480    6.5310 N.pl3 242  ARG242     -0.0865
     42  CZ         0.2720   17.5160    7.7550 C.cat 242  ARG242      0.5346
     43  NH1        0.6900   16.8400    8.8210 N.pl3 242  ARG242      0.1354
     44  NH2       -0.5190   18.5690    7.9170 N.pl3 242  ARG242      0.1354
     45  N          5.0800    8.9530    5.9630 N.3   244  TYR244     -0.1241
     46  CA         6.2670    9.0020    6.8160 C.3   244  TYR244      0.1605
     47  C          7.1080    7.7380    6.6780 C.2   244  TYR244      0.2264
     48  O          6.5750    6.6510    6.4640 O.2   244  TYR244     -0.2867
     49  CB         5.8660    9.1440    8.2820 C.3   244  TYR244      0.0534
     50  CG         5.4680   10.5320    8.7240 C.ar  244  TYR244     -0.0201
     51  CD1        6.4150   11.4240    9.2280 C.ar  244  TYR244     -0.0009
     52  CD2        4.1390   10.9400    8.6720 C.ar  244  TYR244     -0.0009
     53  CE1        6.0480   12.6960    9.6510 C.ar  244  TYR244      0.0417
     54  CE2        3.7580   12.2060    9.0910 C.ar  244  TYR244      0.0417
     55  CZ         4.7160   13.0800    9.5770 C.ar  244  TYR244      0.1957
     56  OH         4.3320   14.3320    9.9890 O.3   244  TYR244     -0.2866
     57  N          6.1370    7.9700   11.4970 N.3   267  GLY267     -0.1210
     58  CA         5.0200    8.8440   11.8090 C.3   267  GLY267      0.1956
     59  C          5.4000   10.0890   12.5840 C.2   267  GLY267      0.2612
     60  O          4.6850   11.0940   12.5320 O.2   267  GLY267     -0.2717
     61  N          6.5140   10.0290   13.3110 N.am  268  ILE268     -0.1965
     62  CA         6.9850   11.1840   14.0860 C.3   268  ILE268      0.1727
     63  C          8.3340   11.7300   13.5970 C.2   268  ILE268      0.2616
     64  O          8.9860   12.4960   14.3030 O.2   268  ILE268     -0.2715
     65  CB         7.0320   10.8860   15.6200 C.3   268  ILE268      0.0290
     66  CG1        8.0060    9.7380   15.9330 C.3   268  ILE268      0.0022
     67  CG2        5.6220   10.5970   16.1570 C.3   268  ILE268      0.0023
     68  CD1        8.3600    9.5820   17.4050 C.3   268  ILE268      0.0001
     69  N          8.7360   11.3450   12.3860 N.am  269  GLY269     -0.1955
     70  CA        10.0340   11.7320   11.8370 C.3   269  GLY269      0.1869
     71  C          9.9860   12.2920   10.4260 C.2   269  GLY269      0.2309
     72  O          9.2840   13.2700   10.1590 O.2   269  GLY269     -0.2863
     73  N          9.6420   12.5020    6.1260 N.3   271  ARG271     -0.1245
     74  CA         8.6990   12.2020    5.0500 C.3   271  ARG271      0.1563
     75  C          9.4240   12.1140    3.7140 C.2   271  ARG271      0.2260
     76  O         10.4570   12.7530    3.5170 O.2   271  ARG271     -0.2867
     77  CB         7.6510   13.3030    4.9330 C.3   271  ARG271      0.0307
     78  CG         6.8520   13.5770    6.1770 C.3   271  ARG271      0.0489
     79  CD         5.7120   14.5050    5.8430 C.3   271  ARG271      0.2205
     80  NE         5.3240   15.3330    6.9830 N.pl3 271  ARG271     -0.0865
     81  CZ         4.7680   16.5370    6.8750 C.cat 271  ARG271      0.5346
     82  NH1        4.5360   17.0600    5.6780 N.pl3 271  ARG271      0.1354
     83  NH2        4.4470   17.2210    7.9630 N.pl3 271  ARG271      0.1354
     84  N         10.4020   28.1590   10.9770 N.3   383  ASN383     -0.1240
     85  CA         9.5930   27.0020   10.5960 C.3   383  ASN383      0.1653
     86  C          8.8370   27.4050    9.3310 C.2   383  ASN383      0.2266
     87  O          8.0450   28.3460    9.3760 O.2   383  ASN383     -0.2867
     88  CB         8.6280   26.6520   11.7480 C.3   383  ASN383      0.1155
     89  CG         7.6790   25.4910   11.4310 C.2   383  ASN383      0.2627
     90  OD1        7.5260   25.0770   10.2810 O.2   383  ASN383     -0.2716
     91  ND2        7.0280   24.9670   12.4800 N.am  383  ASN383     -0.0877
     92  N          6.3290   26.2360    7.8050 N.3   385  THR385     -0.1203
     93  CA         4.8830   26.1460    8.0210 C.3   385  THR385      0.1994
     94  C          4.2630   27.3770    8.6930 C.2   385  THR385      0.2618
     95  O          3.1400   27.7510    8.3610 O.2   385  THR385     -0.2717
     96  CB         4.5290   24.8810    8.8370 C.3   385  THR385      0.1784
     97  OG1        5.4050   23.8090    8.4620 O.3   385  THR385     -0.2211
     98  CG2        3.0860   24.4550    8.5930 C.3   385  THR385      0.0376
     99  N          4.9940   28.0000    9.6220 N.am  386  THR386     -0.1952
    100  CA         4.4940   29.1710   10.3660 C.3   386  THR386      0.1897
    101  C          5.1030   30.5010    9.9120 C.2   386  THR386      0.2313
    102  O          4.7380   31.5670   10.4220 O.2   386  THR386     -0.2863
    103  CB         4.7190   29.0400   11.8960 C.3   386  THR386      0.1794
    104  OG1        6.1240   28.9700   12.1740 O.3   386  THR386     -0.2208
    105  CG2        4.0100   27.8130   12.4630 C.3   386  THR386      0.0378
    106  N         -1.0420   27.7720    1.7640 N.3   443  GLN443     -0.1245
    107  CA        -0.1180   27.4150    2.8380 C.3   443  GLN443      0.1566
    108  C          1.3610   27.4330    2.4530 C.2   443  GLN443      0.2260
    109  O          1.7080   27.4630    1.2730 O.2   443  GLN443     -0.2867
    110  CB        -0.5100   26.0660    3.4390 C.3   443  GLN443      0.0367
    111  CG        -1.5650   26.1930    4.5330 C.3   443  GLN443      0.0905
    112  CD        -1.5660   24.9960    5.4650 C.2   443  GLN443      0.2608
    113  OE1       -2.0930   23.9280    5.1210 O.2   443  GLN443     -0.2717
    114  NE2       -0.9690   25.1610    6.6520 N.am  443  GLN443     -0.0878
    115  N         10.6170   22.0730    5.1650 N.3   447  PHE447     -0.1241
    116  CA        11.3460   21.4640    6.2750 C.3   447  PHE447      0.1605
    117  C         12.8210   21.7910    6.0930 C.2   447  PHE447      0.2264
    118  O         13.2130   22.3060    5.0410 O.2   447  PHE447     -0.2867
    119  CB        11.1510   19.9460    6.2640 C.3   447  PHE447      0.0534
    120  CG        11.4740   19.2710    7.5690 C.ar  447  PHE447     -0.0203
    121  CD1       10.6180   19.3870    8.6620 C.ar  447  PHE447     -0.0042
    122  CD2       12.6200   18.4910    7.6970 C.ar  447  PHE447     -0.0042
    123  CE1       10.9070   18.7500    9.8690 C.ar  447  PHE447     -0.0003
    124  CE2       12.9210   17.8480    8.8990 C.ar  447  PHE447     -0.0003
    125  CZ        12.0640   17.9800    9.9870 C.ar  447  PHE447     -0.0000
@<TRIPOS>BOND
     1   109   108    2
     2   106   107    1
     3   108   107    1
     4   107   110    1
     5   110   111    1
     6    76    75    2
     7    75    74    1
     8   111   112    1
     9    35    36    1
    10    35    34    1
    11    35    38    1
    12    77    74    1
    13    77    78    1
    14    36    37    2
    15   118   117    2
    16    74    73    1
    17   113   112    2
    18   115   116    1
    19   112   114   am
    20    38    39    1
    21    39    40    1
    22    82    81    1
    23    79    78    1
    24    79    80    1
    25    45    46    1
    26   117   116    1
    27    40    41    1
    28   119   116    1
    29   119   120    1
    30    48    47    2
    31    41    42    2
    32    28    27    2
    33    47    46    1
    34    46    49    1
    35    81    80    2
    36    81    83    1
    37    27    26    1
    38   120   122   ar
    39   120   121   ar
    40   122   124   ar
    41    42    44    1
    42    42    43    1
    43    92    93    1
    44    93    94    1
    45    93    96    1
    46    49    50    1
    47    95    94    2
    48    97    96    1
    49    98    96    1
    50   121   123   ar
    51    52    50   ar
    52    52    54   ar
    53    94    99   am
    54    50    51   ar
    55    26    29    1
    56    26    25    1
    57   124   125   ar
    58    54    55   ar
    59    29    30    1
    60    51    53   ar
    61    25    18   am
    62    86    87    2
    63    86    85    1
    64    55    53   ar
    65    55    56    1
    66    99   100    1
    67    16    17    1
    68    19    18    2
    69    18    17    1
    70   123   125   ar
    71   101   100    1
    72   101   102    2
    73    32    31    2
    74    72    71    2
    75    17    20    1
    76    90    89    2
    77   100   103    1
    78    71    70    1
    79    30    31    1
    80    85    84    1
    81    85    88    1
    82    31    33   am
    83    89    88    1
    84    89    91   am
    85    57    58    1
    86    20    21    1
    87    58    59    1
    88    70    69    1
    89   103   104    1
    90   103   105    1
    91    69    63   am
    92    21    22    1
    93    60    59    2
    94    59    61   am
    95    61    62    1
    96    63    62    1
    97    63    64    2
    98    22    24   ar
    99    22    23   ar
   100    62    65    1
   101    65    66    1
   102    65    67    1
   103    66    68    1
   104    11    10    2
   105    10     9    1
   106     4     3    2
   107     3     2    1
   108     2     1    1
   109     2     5    1
   110     9     8    1
   111     9    12    1
   112     5     7    1
   113     5     6    1
   114    12    13    1
   115    13    14   ar
   116    13    15   ar
