@<TRIPOS>MOLECULE
tmp/3ugsA00.pdb
 139 128 0 0 0
SMALL
GASTEIGER

@<TRIPOS>ATOM
      1  N         11.7790   11.1580   33.9660 N.3    10  VAL10      -0.1231
      2  CA        11.7780    9.7290   33.7810 C.3    10  VAL10       0.1692
      3  C         10.8460    9.0780   34.7780 C.2    10  VAL10       0.2592
      4  O         10.8050    9.4140   35.9560 O.2    10  VAL10      -0.2718
      5  CB        13.1620    9.0700   33.8860 C.3    10  VAL10       0.0266
      6  CG1       13.7930    9.3540   35.2380 C.3    10  VAL10       0.0020
      7  CG2       13.0220    7.5430   33.6530 C.3    10  VAL10       0.0020
      8  N         10.0920    8.1210   34.2790 N.am   11  MET11      -0.1965
      9  CA         9.1420    7.3700   35.1360 C.3    11  MET11       0.1736
     10  C          9.6280    5.9480   35.3250 C.2    11  MET11       0.2616
     11  O         10.3610    5.4250   34.5200 O.2    11  MET11      -0.2715
     12  CB         7.7460    7.3810   34.5340 C.3    11  MET11       0.0427
     13  CG         7.3320    8.7780   34.0880 C.3    11  MET11       0.0599
     14  SD         6.3000    8.7430   32.6130 S.3    11  MET11      -0.1393
     15  CE         6.1110   10.4990   32.2890 C.3    11  MET11       0.0692
     16  N          9.2320    5.3470   36.4200 N.am   12  ASP12      -0.1957
     17  CA         9.5490    3.9410   36.6560 C.3    12  ASP12       0.1840
     18  C          9.2640    3.1300   35.4050 C.2    12  ASP12       0.2623
     19  O          8.2110    3.1810   34.8100 O.2    12  ASP12      -0.2715
     20  CB         8.7620    3.3500   37.7980 C.3    12  ASP12       0.1450
     21  CG         9.3610    3.6640   39.1380 C.2    12  ASP12       0.3671
     22  OD1        8.9130    3.0150   40.1070 O.co2  12  ASP12      -0.2456
     23  OD2       10.2690    4.5380   39.2320 O.co2  12  ASP12      -0.2456
     24  N         10.2570    2.3890   35.0080 N.am   13  GLY13      -0.1940
     25  CA        10.1460    1.5210   33.8590 C.3    13  GLY13       0.2014
     26  C          9.8510    0.0650   34.1870 C.2    13  GLY13       0.2638
     27  O          9.9180   -0.7910   33.2900 O.2    13  GLY13      -0.2714
     28  N          9.5420   -0.2530   35.4450 N.am   14  ASN14      -0.1972
     29  CA         9.1570   -1.6710   35.7470 C.3    14  ASN14       0.1688
     30  C          7.6720   -1.9770   35.9670 C.2    14  ASN14       0.2292
     31  O          6.8100   -1.1940   35.6270 O.2    14  ASN14      -0.2864
     32  CB        10.0250   -2.2970   36.8480 C.3    14  ASN14       0.1181
     33  CG         9.8560   -1.6240   38.2000 C.2    14  ASN14       0.2629
     34  OD1        8.7650   -1.1990   38.5710 O.2    14  ASN14      -0.2716
     35  ND2       10.9560   -1.5430   38.9540 N.am   14  ASN14      -0.0877
     36  N         11.9750   10.3050   28.7040 N.3    40  PHE40      -0.1227
     37  CA        12.6930    9.0610   28.4810 C.3    40  PHE40       0.1736
     38  C         11.7450    7.9650   28.0600 C.2    40  PHE40       0.2595
     39  O         11.0060    7.4370   28.8470 O.2    40  PHE40      -0.2718
     40  CB        13.4660    8.5900   29.7320 C.3    40  PHE40       0.0547
     41  CG        14.7070    7.7730   29.4190 C.ar   40  PHE40      -0.0202
     42  CD1       14.9800    7.3290   28.1280 C.ar   40  PHE40      -0.0042
     43  CD2       15.6090    7.4640   30.4130 C.ar   40  PHE40      -0.0042
     44  CE1       16.1390    6.6070   27.8600 C.ar   40  PHE40      -0.0003
     45  CE2       16.7570    6.7510   30.1430 C.ar   40  PHE40      -0.0003
     46  CZ        17.0170    6.3200   28.8750 C.ar   40  PHE40      -0.0000
     47  N         11.8330    7.5860   26.8050 N.am   41  ALA41      -0.1980
     48  CA        10.9190    6.5600   26.2520 C.3    41  ALA41       0.1597
     49  C         11.5170    5.1590   26.2650 C.2    41  ALA41       0.2287
     50  O         10.9440    4.2300   26.8100 O.2    41  ALA41      -0.2864
     51  CB        10.5000    6.9380   24.8400 C.3    41  ALA41       0.0319
     52  N         15.6010    3.1220   26.0630 N.3    43  SER43      -0.1217
     53  CA        17.0410    3.2580   26.1630 C.3    43  SER43       0.1889
     54  C         17.7980    2.1960   25.4190 C.2    43  SER43       0.2288
     55  O         17.2150    1.2460   24.9260 O.2    43  SER43      -0.2866
     56  CB        17.4810    3.2290   27.6250 C.3    43  SER43       0.2089
     57  OG        17.2360    1.9520   28.1760 O.3    43  SER43      -0.2183
     58  N         17.4210   -1.1340   27.2140 N.3    46  ASN46      -0.1240
     59  CA        16.0390   -1.6330   27.0310 C.3    46  ASN46       0.1653
     60  C         15.9380   -2.6720   25.9040 C.2    46  ASN46       0.2266
     61  O         14.9890   -3.4660   25.8300 O.2    46  ASN46      -0.2867
     62  CB        15.0310   -0.5140   26.7550 C.3    46  ASN46       0.1155
     63  CG        14.7140    0.3320   27.9960 C.2    46  ASN46       0.2627
     64  OD1       14.2610    1.4830   27.8770 O.2    46  ASN46      -0.2716
     65  ND2       14.9400   -0.2130   29.1610 N.am   46  ASN46      -0.0877
     66  N         15.4880   -6.2000   26.9540 N.3    49  ARG49      -0.1245
     67  CA        14.1450   -6.5690   27.4320 C.3    49  ARG49       0.1563
     68  C         13.5300   -7.6640   26.5610 C.2    49  ARG49       0.2260
     69  O         13.7830   -7.7250   25.3610 O.2    49  ARG49      -0.2867
     70  CB        13.1770   -5.3900   27.3540 C.3    49  ARG49       0.0307
     71  CG        13.1690   -4.4530   28.5550 C.3    49  ARG49       0.0489
     72  CD        12.1220   -3.3960   28.2450 C.3    49  ARG49       0.2205
     73  NE        12.0650   -2.2980   29.1780 N.pl3  49  ARG49      -0.0865
     74  CZ        11.2780   -2.2550   30.2390 C.cat  49  ARG49       0.5346
     75  NH1       10.4750   -3.2730   30.5280 N.pl3  49  ARG49       0.1354
     76  NH2       11.3000   -1.1820   31.0240 N.pl3  49  ARG49       0.1354
     77  N          5.7740   -1.3260   24.0840 N.3    57  ILE57      -0.1245
     78  CA         6.3320    0.0220   24.2290 C.3    57  ILE57       0.1561
     79  C          6.3360    0.8080   22.9210 C.2    57  ILE57       0.2260
     80  O          5.9660    1.9570   22.8860 O.2    57  ILE57      -0.2867
     81  CB         7.7490   -0.0400   24.8040 C.3    57  ILE57       0.0252
     82  CG1        7.6820   -0.5000   26.2440 C.3    57  ILE57       0.0019
     83  CG2        8.4370    1.3340   24.7490 C.3    57  ILE57       0.0019
     84  CD1        9.0040   -1.0530   26.7360 C.3    57  ILE57       0.0001
     85  N          2.7570    1.6730   21.8640 N.3    60  LEU60      -0.1231
     86  CA         2.3380    2.9460   22.5180 C.3    60  LEU60       0.1693
     87  C          3.0430    4.1800   21.9710 C.2    60  LEU60       0.2591
     88  O          2.4620    5.2260   21.7170 O.2    60  LEU60      -0.2718
     89  CB         2.6020    2.9170   24.0120 C.3    60  LEU60       0.0284
     90  CG         1.9460    1.7360   24.7240 C.3    60  LEU60       0.0019
     91  CD1        2.5830    1.5860   26.1090 C.3    60  LEU60       0.0001
     92  CD2        0.4090    1.8270   24.8000 C.3    60  LEU60       0.0001
     93  N          4.3370    4.0430   21.8470 N.am   61  LEU61      -0.1980
     94  CA         5.1700    5.1350   21.3160 C.3    61  LEU61       0.1596
     95  C          4.5600    5.6170   19.9900 C.2    61  LEU61       0.2287
     96  O          4.4140    6.8100   19.7050 O.2    61  LEU61      -0.2864
     97  CB         6.6190    4.6890   21.1070 C.3    61  LEU61       0.0297
     98  CG         7.3940    5.6740   20.2230 C.3    61  LEU61       0.0022
     99  CD1        7.6850    6.9560   20.9760 C.3    61  LEU61       0.0001
    100  CD2        8.6690    5.0450   19.6750 C.3    61  LEU61       0.0001
    101  N          1.5850    7.5710   20.6220 N.3    64  CYS64      -0.1235
    102  CA         2.0200    8.9190   21.0720 C.3    64  CYS64       0.1677
    103  C          2.5270    9.7670   19.9230 C.2    64  CYS64       0.2270
    104  O          2.3930   10.9860   19.8960 O.2    64  CYS64      -0.2867
    105  CB         3.1040    8.8570   22.1300 C.3    64  CYS64       0.0956
    106  SG         2.5510    8.0540   23.6370 S.3    64  CYS64      -0.0801
    107  N         12.3130   12.2850   38.7770 N.3   157  ARG157     -0.1245
    108  CA        11.9470   10.8630   38.7190 C.3   157  ARG157      0.1563
    109  C         10.5170   10.7030   39.2650 C.2   157  ARG157      0.2260
    110  O         10.2110   11.1080   40.3710 O.2   157  ARG157     -0.2867
    111  CB        12.9270    9.9810   39.5020 C.3   157  ARG157      0.0307
    112  CG        12.3660    8.6260   39.9220 C.3   157  ARG157      0.0489
    113  CD        12.1930    7.6310   38.7570 C.3   157  ARG157      0.2205
    114  NE        13.4800    7.2070   38.1790 N.pl3 157  ARG157     -0.0865
    115  CZ        13.6790    6.1100   37.4490 C.cat 157  ARG157      0.5346
    116  NH1       12.6770    5.3030   37.1460 N.pl3 157  ARG157      0.1354
    117  NH2       14.8890    5.8240   36.9980 N.pl3 157  ARG157      0.1354
    118  N         11.7890    4.0170   41.8210 N.3   161  ALA161     -0.1245
    119  CA        13.2240    3.8080   41.4360 C.3   161  ALA161      0.1562
    120  C         14.0620    5.0400   41.7700 C.2   161  ALA161      0.2260
    121  O         13.6740    6.1630   41.5030 O.2   161  ALA161     -0.2867
    122  CB        13.3780    3.4890   39.9510 C.3   161  ALA161      0.0290
    123  N         17.4360    6.4130   40.8340 N.3   163  ARG163     -0.1245
    124  CA        18.5400    6.2350   39.8740 C.3   163  ARG163      0.1563
    125  C         18.2840    6.9650   38.5720 C.2   163  ARG163      0.2260
    126  O         17.1630    7.3600   38.3200 O.2   163  ARG163     -0.2867
    127  CB        18.7860    4.7670   39.6060 C.3   163  ARG163      0.0307
    128  CG        17.5490    4.0590   39.0900 C.3   163  ARG163      0.0489
    129  CD        17.8200    2.5970   38.8350 C.3   163  ARG163      0.2205
    130  NE        16.6210    1.8870   38.4080 N.pl3 163  ARG163     -0.0865
    131  CZ        16.1340    0.7920   38.9890 C.cat 163  ARG163      0.5346
    132  NH1       16.7280    0.2640   40.0560 N.pl3 163  ARG163      0.1354
    133  NH2       15.0650    0.2110   38.4710 N.pl3 163  ARG163      0.1354
    134  N         19.4480    5.8670   35.4670 N.3   165  SER165     -0.1217
    135  CA        19.3660    4.8630   34.4160 C.3   165  SER165      0.1889
    136  C         19.8030    5.3710   33.0490 C.2   165  SER165      0.2288
    137  O         19.0330    5.4120   32.1090 O.2   165  SER165     -0.2866
    138  CB        17.9590    4.3080   34.3300 C.3   165  SER165      0.2089
    139  OG        17.7130    3.5510   35.4820 O.3   165  SER165     -0.2183
@<TRIPOS>BOND
     1   100    98    1
     2    96    95    2
     3   104   103    2
     4   103   102    1
     5    95    94    1
     6    98    99    1
     7    98    97    1
     8   101   102    1
     9   102   105    1
    10    97    94    1
    11    94    93    1
    12    88    87    2
    13    93    87   am
    14    85    86    1
    15    87    86    1
    16   105   106    1
    17    86    89    1
    18    80    79    2
    19    79    78    1
    20    89    90    1
    21    77    78    1
    22    78    81    1
    23    90    92    1
    24    90    91    1
    25    83    81    1
    26    81    82    1
    27    51    48    1
    28    55    54    2
    29    69    68    2
    30    54    53    1
    31    61    60    2
    32    60    59    1
    33    52    53    1
    34    53    56    1
    35    82    84    1
    36    48    49    1
    37    48    47    1
    38    49    50    2
    39    68    67    1
    40    62    59    1
    41    62    63    1
    42    47    38   am
    43    66    67    1
    44    59    58    1
    45    70    67    1
    46    70    71    1
    47    56    57    1
    48    44    42   ar
    49    44    46   ar
    50    64    63    2
    51    63    65   am
    52    38    37    1
    53    38    39    2
    54    42    41   ar
    55    72    71    1
    56    72    73    1
    57    37    36    1
    58    37    40    1
    59    46    45   ar
    60    73    74    2
    61    41    40    1
    62    41    43   ar
    63    45    43   ar
    64    74    75    1
    65    74    76    1
    66   137   136    2
    67    15    14    1
    68    14    13    1
    69   136   135    1
    70    27    26    2
    71     7     5    1
    72     2     5    1
    73     2     1    1
    74     2     3    1
    75    25    26    1
    76    25    24    1
    77     5     6    1
    78    13    12    1
    79    26    28   am
    80     8     3   am
    81     8     9    1
    82   138   135    1
    83   138   139    1
    84   135   134    1
    85    11    10    2
    86    12     9    1
    87     3     4    2
    88    19    18    2
    89    24    18   am
    90     9    10    1
    91    10    16   am
    92    18    17    1
    93    28    29    1
    94    31    30    2
    95    29    30    1
    96    29    32    1
    97    16    17    1
    98    17    20    1
    99    32    33    1
   100   117   115    1
   101   116   115    1
   102   115   114    2
   103    20    21    1
   104   114   113    1
   105    33    34    2
   106    33    35   am
   107   126   125    2
   108   130   129    1
   109   130   131    2
   110   133   131    1
   111   125   124    1
   112   108   107    1
   113   108   109    1
   114   108   111    1
   115   113   112    1
   116   129   128    1
   117   131   132    1
   118   128   127    1
   119    21    23   ar
   120    21    22   ar
   121   109   110    2
   122   111   112    1
   123   127   124    1
   124   124   123    1
   125   122   119    1
   126   119   120    1
   127   119   118    1
   128   121   120    2
