@<TRIPOS>MOLECULE
tmp/3ugwA04.pdb
 86 82 0 0 0
SMALL
GASTEIGER

@<TRIPOS>ATOM
      1  N         -9.8050    9.9060    7.4990 N.3    74  ARG74      -0.1245
      2  CA        -9.4920    9.1240    6.3130 C.3    74  ARG74       0.1563
      3  C         -9.5930    9.9670    5.0580 C.2    74  ARG74       0.2260
      4  O         -9.7510   11.1510    5.1740 O.2    74  ARG74      -0.2867
      5  CB       -10.3030    7.8500    6.2870 C.3    74  ARG74       0.0307
      6  CG       -11.5950    7.8870    5.5650 C.3    74  ARG74       0.0489
      7  CD       -12.7160    7.3730    6.4160 C.3    74  ARG74       0.2205
      8  NE       -13.9600    8.0660    6.1230 N.pl3  74  ARG74      -0.0865
      9  CZ       -14.6440    8.7800    7.0000 C.cat  74  ARG74       0.5346
     10  NH1      -14.2230    8.9100    8.2400 N.pl3  74  ARG74       0.1354
     11  NH2      -15.7510    9.3700    6.6280 N.pl3  74  ARG74       0.1354
     12  N        -15.2810   13.9350    9.1590 N.3    90  GLU90      -0.1231
     13  CA       -16.6020   13.8720    8.5460 C.3    90  GLU90       0.1699
     14  C        -17.4570   12.7150    9.0500 C.2    90  GLU90       0.2593
     15  O        -18.6320   12.6350    8.7020 O.2    90  GLU90      -0.2718
     16  CB       -16.4620   13.7690    7.0250 C.3    90  GLU90       0.0402
     17  CG       -15.8490   15.0300    6.3940 C.3    90  GLU90       0.1161
     18  CD       -15.3330   14.7870    4.9780 C.2    90  GLU90       0.3649
     19  OE1      -14.1410   15.0740    4.7300 O.co2  90  GLU90      -0.2457
     20  OE2      -16.1130   14.2890    4.1240 O.co2  90  GLU90      -0.2457
     21  N        -16.9100   11.8240    9.8710 N.am   91  GLY91      -0.1942
     22  CA       -17.7760   10.7730   10.4790 C.3    91  GLY91       0.2014
     23  C        -17.8210    9.6250    9.4820 C.2    91  GLY91       0.2639
     24  O        -17.2370    9.7330    8.4150 O.2    91  GLY91      -0.2714
     25  N        -18.4140    8.4790    9.8360 N.am   92  TYR92      -0.1959
     26  CA       -18.4790    7.4040    8.8630 C.3    92  TYR92       0.1771
     27  C        -19.9120    6.9400    8.8610 C.2    92  TYR92       0.2619
     28  O        -20.6100    7.1800    9.8130 O.2    92  TYR92      -0.2715
     29  CB       -17.4530    6.2410    9.1610 C.3    92  TYR92       0.0574
     30  CG       -17.4740    5.6900   10.6070 C.ar   92  TYR92      -0.0198
     31  CD1      -16.7100    6.3040   11.6050 C.ar   92  TYR92      -0.0009
     32  CD2      -18.2700    4.5460   10.9460 C.ar   92  TYR92      -0.0009
     33  CE1      -16.6680    5.7980   12.9070 C.ar   92  TYR92       0.0417
     34  CE2      -18.2880    4.0340   12.2290 C.ar   92  TYR92       0.0417
     35  CZ       -17.5110    4.6690   13.2150 C.ar   92  TYR92       0.1957
     36  OH       -17.5450    4.1630   14.4710 O.3    92  TYR92      -0.2866
     37  N        -20.3320    6.2340    7.7900 N.am   93  LEU93      -0.1977
     38  CA       -21.6920    5.7470    7.6770 C.3    93  LEU93       0.1596
     39  C        -21.8310    4.3490    8.2940 C.2    93  LEU93       0.2287
     40  O        -21.2540    3.4110    7.7530 O.2    93  LEU93      -0.2864
     41  CB       -22.1520    5.6400    6.2190 C.3    93  LEU93       0.0297
     42  CG       -21.9310    6.9760    5.4750 C.3    93  LEU93       0.0022
     43  CD1      -22.3530    6.9550    4.0110 C.3    93  LEU93       0.0001
     44  CD2      -22.7070    8.0330    6.2500 C.3    93  LEU93       0.0001
     45  N        -19.9170    1.6800    6.0310 N.3   204  ASN204     -0.1225
     46  CA       -19.8760    1.6970    4.5910 C.3   204  ASN204      0.1785
     47  C        -18.5360    1.2610    4.1170 C.2   204  ASN204      0.2597
     48  O        -18.4290    0.4860    3.2590 O.2   204  ASN204     -0.2718
     49  CB       -20.1990    3.0700    4.0060 C.3   204  ASN204      0.1169
     50  CG       -19.6920    3.2340    2.5860 C.2   204  ASN204      0.2627
     51  OD1      -20.1290    2.5400    1.6980 O.2   204  ASN204     -0.2716
     52  ND2      -18.7720    4.1400    2.3920 N.am  204  ASN204     -0.0877
     53  N        -17.5070    1.7890    4.7170 N.am  205  ASP205     -0.1974
     54  CA       -16.1310    1.4930    4.1880 C.3   205  ASP205      0.1709
     55  C        -15.7400   -0.0080    4.2500 C.2   205  ASP205      0.2293
     56  O        -15.0010   -0.4910    3.3880 O.2   205  ASP205     -0.2864
     57  CB       -15.0720    2.2570    4.9750 C.3   205  ASP205      0.1436
     58  CG       -15.4300    3.7600    5.0640 C.2   205  ASP205      0.3671
     59  OD1      -16.3290    4.1540    5.8790 O.co2 205  ASP205     -0.2456
     60  OD2      -14.8400    4.5060    4.2540 O.co2 205  ASP205     -0.2456
     61  N        -24.8270    6.8440    0.9700 N.3   244  GLN244     -0.1245
     62  CA       -25.1360    8.2200    1.3990 C.3   244  GLN244      0.1566
     63  C        -26.6190    8.3900    1.5740 C.2   244  GLN244      0.2260
     64  O        -27.0580    9.2890    2.3100 O.2   244  GLN244     -0.2867
     65  CB       -24.4890    9.3130    0.4790 C.3   244  GLN244      0.0367
     66  CG       -24.2350   10.6350    1.2300 C.3   244  GLN244      0.0905
     67  CD       -23.5190   11.7130    0.4540 C.2   244  GLN244      0.2608
     68  OE1      -23.4910   12.8590    0.9230 O.2   244  GLN244     -0.2717
     69  NE2      -22.9010   11.3770   -0.7000 N.am  244  GLN244     -0.0878
     70  N        -28.3050    4.6370    5.1510 N.3   247  HIS247     -0.1241
     71  CA       -27.4480    4.2980    6.3110 C.3   247  HIS247      0.1621
     72  C        -28.2940    4.4340    7.5480 C.2   247  HIS247      0.2264
     73  O        -29.3620    5.0540    7.4900 O.2   247  HIS247     -0.2867
     74  CB       -26.2070    5.2050    6.3430 C.3   247  HIS247      0.0745
     75  CG       -26.5160    6.6840    6.2620 C.ar  247  HIS247      0.0817
     76  ND1      -26.3930    7.3890    5.0800 N.ar  247  HIS247     -0.2268
     77  CD2      -27.0720    7.5770    7.1890 C.ar  247  HIS247      0.1154
     78  CE1      -26.7690    8.6610    5.2760 C.ar  247  HIS247      0.1986
     79  NE2      -27.1600    8.7900    6.5600 N.ar  247  HIS247     -0.2212
     80  N        -24.6540    8.5820   10.9120 N.3   250  VAL250     -0.1245
     81  CA       -23.3650    9.0460   10.6520 C.3   250  VAL250      0.1561
     82  C        -22.6620    8.9060   12.0680 C.2   250  VAL250      0.2260
     83  O        -23.1360    9.3620   13.1210 O.2   250  VAL250     -0.2867
     84  CB       -23.4230   10.5140   10.1600 C.3   250  VAL250      0.0252
     85  CG1      -21.9930   11.0890    9.9900 C.3   250  VAL250      0.0019
     86  CG2      -24.2960   10.6380    8.8610 C.3   250  VAL250      0.0019
@<TRIPOS>BOND
     1    69    67   am
     2    67    68    2
     3    67    66    1
     4    65    66    1
     5    65    62    1
     6    61    62    1
     7    62    63    1
     8    63    64    2
     9    51    50    2
    10    52    50   am
    11    50    49    1
    12    48    47    2
    13    56    55    2
    14    49    46    1
    15    43    42    1
    16    47    46    1
    17    47    53   am
    18    20    18   ar
    19    54    55    1
    20    54    53    1
    21    54    57    1
    22    60    58   ar
    23    46    45    1
    24    19    18   ar
    25    57    58    1
    26    18    17    1
    27     3     4    2
    28     3     2    1
    29    58    59   ar
    30    76    78   ar
    31    76    75   ar
    32    70    71    1
    33    78    79   ar
    34    42    41    1
    35    42    44    1
    36     6     5    1
    37     6     7    1
    38     8     7    1
    39     8     9    2
    40    41    38    1
    41    75    74    1
    42    75    77   ar
    43     5     2    1
    44    71    74    1
    45    71    72    1
    46     2     1    1
    47    17    16    1
    48    79    77   ar
    49    11     9    1
    50     9    10    1
    51    16    13    1
    52    73    72    2
    53    38    37    1
    54    38    39    1
    55    40    39    2
    56    37    27   am
    57    24    23    2
    58    13    14    1
    59    13    12    1
    60    15    14    2
    61    86    84    1
    62    27    26    1
    63    27    28    2
    64    26    29    1
    65    26    25    1
    66    14    21   am
    67    29    30    1
    68    23    25   am
    69    23    22    1
    70    21    22    1
    71    85    84    1
    72    84    81    1
    73    30    32   ar
    74    30    31   ar
    75    81    80    1
    76    81    82    1
    77    32    34   ar
    78    31    33   ar
    79    82    83    2
    80    34    35   ar
    81    33    35   ar
    82    35    36    1
