@<TRIPOS>MOLECULE
tmp/3ugxA05.pdb
 101 95 0 0 0
SMALL
GASTEIGER

@<TRIPOS>ATOM
      1  N         93.1210   25.6740   -1.7540 N.3    25  ASP25      -0.1239
      2  CA        92.4210   25.3810   -0.5200 C.3    25  ASP25       0.1674
      3  C         91.0690   24.8010   -0.9490 C.2    25  ASP25       0.2266
      4  O         90.2240   25.5420   -1.4570 O.2    25  ASP25      -0.2867
      5  CB        92.2220   26.7300    0.2100 C.3    25  ASP25       0.1410
      6  CG        91.5160   26.6050    1.5720 C.2    25  ASP25       0.3668
      7  OD1       90.7870   25.6250    1.8290 O.co2  25  ASP25      -0.2456
      8  OD2       91.6690   27.5290    2.3940 O.co2  25  ASP25      -0.2456
      9  N         93.5830   29.4760    8.0880 N.3   118  LEU118     -0.1231
     10  CA        93.8590   30.7350    7.3910 C.3   118  LEU118      0.1678
     11  C         92.7440   31.1410    6.4340 C.2   118  LEU118      0.2434
     12  O         91.9550   30.3110    5.9950 O.2   118  LEU118     -0.2733
     13  CB        95.1860   30.6510    6.6350 C.3   118  LEU118      0.0284
     14  CG        96.4220   30.3780    7.4940 C.3   118  LEU118      0.0019
     15  CD1       97.6330   30.1290    6.6150 C.3   118  LEU118      0.0001
     16  CD2       96.6770   31.5310    8.4360 C.3   118  LEU118      0.0001
     17  N         92.6750   32.4340    6.1160 N.am  119  PRO119     -0.2718
     18  CA        91.8460   32.9120    5.0030 C.3   119  PRO119      0.1535
     19  C         92.5130   32.5850    3.6660 C.2   119  PRO119      0.2599
     20  O         93.5680   31.9430    3.6350 O.2   119  PRO119     -0.2715
     21  CB        91.8390   34.4240    5.2060 C.3   119  PRO119      0.0310
     22  CG        93.1830   34.7080    5.8860 C.3   119  PRO119      0.0237
     23  CD        93.4020   33.5230    6.7950 C.3   119  PRO119      0.0939
     24  N         91.9050   33.0220    2.5710 N.am  120  CYS120     -0.1954
     25  CA        92.5440   32.8830    1.2830 C.3   120  CYS120      0.1843
     26  C         92.8840   34.2950    0.8400 C.2   120  CYS120      0.2626
     27  O         92.5760   35.2520    1.5550 O.2   120  CYS120     -0.2714
     28  CB        91.6180   32.1860    0.2940 C.3   120  CYS120      0.0997
     29  SG        91.3830   30.4030    0.5900 S.3   120  CYS120     -0.0797
     30  N         93.5190   34.4290   -0.3190 N.am  121  SER121     -0.1936
     31  CA        93.9930   35.7380   -0.7590 C.3   121  SER121      0.2055
     32  C         92.8400   36.7400   -0.8830 C.2   121  SER121      0.2642
     33  O         91.8300   36.4770   -1.5530 O.2   121  SER121     -0.2714
     34  CB        94.7410   35.6070   -2.0920 C.3   121  SER121      0.2130
     35  OG        95.7420   34.6020   -2.0160 O.3   121  SER121     -0.2179
     36  N         92.9720   37.8740   -0.2020 N.am  122  VAL122     -0.1977
     37  CA        91.9680   38.9220   -0.3000 C.3   122  VAL122      0.1596
     38  C         92.6330   40.2760   -0.2410 C.2   122  VAL122      0.2287
     39  O         93.4500   40.5280    0.6430 O.2   122  VAL122     -0.2864
     40  CB        90.9580   38.8720    0.8560 C.3   122  VAL122      0.0276
     41  CG1       89.7490   39.7590    0.5330 C.3   122  VAL122      0.0022
     42  CG2       90.5040   37.4650    1.1120 C.3   122  VAL122      0.0022
     43  N         90.6640   29.7390   -3.1780 N.3   170  GLN170     -0.1245
     44  CA        89.5790   28.9400   -2.6390 C.3   170  GLN170      0.1566
     45  C         88.9000   28.0640   -3.6820 C.2   170  GLN170      0.2260
     46  O         88.3400   28.5740   -4.6570 O.2   170  GLN170     -0.2867
     47  CB        88.5230   29.8550   -2.0360 C.3   170  GLN170      0.0367
     48  CG        87.3940   29.0710   -1.4260 C.3   170  GLN170      0.0905
     49  CD        87.8570   28.2420   -0.2520 C.2   170  GLN170      0.2608
     50  OE1       88.1320   28.7770    0.8240 O.2   170  GLN170     -0.2717
     51  NE2       87.9570   26.9250   -0.4530 N.am  170  GLN170     -0.0878
     52  N         86.9950   34.9440   -3.5110 N.3   300  SER300     -0.1202
     53  CA        85.9960   33.9350   -3.2120 C.3   300  SER300      0.2020
     54  C         85.3390   34.1840   -1.8500 C.2   300  SER300      0.2619
     55  O         85.9140   34.8450   -0.9890 O.2   300  SER300     -0.2717
     56  CB        86.6420   32.5540   -3.2490 C.3   300  SER300      0.2103
     57  OG        86.9550   32.2120   -4.5860 O.3   300  SER300     -0.2182
     58  N         84.1290   33.6670   -1.6640 N.am  301  SER301     -0.1937
     59  CA        83.4450   33.7830   -0.3760 C.3   301  SER301      0.2055
     60  C         84.3490   33.2350    0.7200 C.2   301  SER301      0.2644
     61  O         84.9020   32.1310    0.5870 O.2   301  SER301     -0.2714
     62  CB        82.1310   32.9850   -0.3680 C.3   301  SER301      0.2130
     63  OG        81.3360   33.2450   -1.5130 O.3   301  SER301     -0.2179
     64  N         84.5000   33.9970    1.7990 N.am  302  THR302     -0.1936
     65  CA        85.2090   33.5130    2.9810 C.3   302  THR302      0.2028
     66  C         84.5850   32.2220    3.5180 C.2   302  THR302      0.2642
     67  O         83.3640   32.0660    3.5200 O.2   302  THR302     -0.2714
     68  CB        85.1410   34.5290    4.1030 C.3   302  THR302      0.1808
     69  OG1       85.7150   35.7680    3.6680 O.3   302  THR302     -0.2208
     70  CG2       85.8690   34.0090    5.3370 C.3   302  THR302      0.0379
     71  N         85.4270   31.3030    3.9800 N.am  303  ILE303     -0.1977
     72  CA        84.9430   30.0990    4.6430 C.3   303  ILE303      0.1596
     73  C         85.6380   29.9290    6.0220 C.2   303  ILE303      0.2287
     74  O         86.8450   29.6580    6.1040 O.2   303  ILE303     -0.2864
     75  CB        85.1540   28.8570    3.7290 C.3   303  ILE303      0.0276
     76  CG1       84.5200   29.0720    2.3540 C.3   303  ILE303      0.0022
     77  CG2       84.6440   27.5590    4.3850 C.3   303  ILE303      0.0022
     78  CD1       84.6750   27.8610    1.4140 C.3   303  ILE303      0.0001
     79  N         90.6100   36.0490   10.1270 N.3   313  MET313     -0.1245
     80  CA        90.4850   35.9280    8.6580 C.3   313  MET313      0.1570
     81  C         90.9250   37.2080    7.9660 C.2   313  MET313      0.2261
     82  O         91.2840   37.2220    6.7960 O.2   313  MET313     -0.2867
     83  CB        89.0290   35.6350    8.2740 C.3   313  MET313      0.0387
     84  CG        88.4820   34.3620    8.9060 C.3   313  MET313      0.0595
     85  SD        89.5760   32.9500    8.6170 S.3   313  MET313     -0.1393
     86  CE        89.0920   32.5320    6.9400 C.3   313  MET313      0.0692
     87  N         89.7830   39.7250    6.4650 N.3   315  ILE315     -0.1245
     88  CA        88.7870   40.3290    5.5950 C.3   315  ILE315      0.1561
     89  C         87.7390   39.2840    5.2410 C.2   315  ILE315      0.2260
     90  O         88.0730   38.1840    4.7860 O.2   315  ILE315     -0.2867
     91  CB        89.4200   40.9250    4.3240 C.3   315  ILE315      0.0252
     92  CG1       90.4980   41.9500    4.6990 C.3   315  ILE315      0.0019
     93  CG2       88.3620   41.5720    3.4670 C.3   315  ILE315      0.0019
     94  CD1       91.2190   42.5490    3.5150 C.3   315  ILE315      0.0001
     95  N         84.6180   38.0860    2.9590 N.3   317  VAL317     -0.1245
     96  CA        83.9320   38.3050    1.7030 C.3   317  VAL317      0.1561
     97  C         82.7200   37.3870    1.6260 C.2   317  VAL317      0.2260
     98  O         82.7840   36.2290    2.0380 O.2   317  VAL317     -0.2867
     99  CB        84.8510   38.0740    0.5100 C.3   317  VAL317      0.0252
    100  CG1       84.0960   38.3550   -0.7900 C.3   317  VAL317      0.0019
    101  CG2       86.0640   38.9770    0.6210 C.3   317  VAL317      0.0019
@<TRIPOS>BOND
     1    46    45    2
     2    57    56    1
     3    45    44    1
     4    52    53    1
     5    56    53    1
     6    53    54    1
     7    43    44    1
     8    44    47    1
     9    34    35    1
    10    34    31    1
    11    47    48    1
    12    54    58   am
    13    54    55    2
    14     1     2    1
    15    58    59    1
    16    33    32    2
    17    63    62    1
    18     4     3    2
    19    48    49    1
    20     3     2    1
    21    32    31    1
    22    32    36   am
    23   100    99    1
    24    31    30    1
    25     2     5    1
    26    51    49   am
    27    59    62    1
    28    59    60    1
    29    30    26   am
    30    37    38    1
    31    37    36    1
    32    37    40    1
    33    49    50    2
    34    38    39    2
    35     5     6    1
    36    28    29    1
    37    28    25    1
    38    99   101    1
    39    99    96    1
    40    41    40    1
    41    61    60    2
    42    60    64   am
    43    26    25    1
    44    26    27    2
    45    40    42    1
    46    25    24    1
    47    78    76    1
    48     6     7   ar
    49     6     8   ar
    50    97    96    1
    51    97    98    2
    52    96    95    1
    53    64    65    1
    54    76    75    1
    55    24    19   am
    56    65    66    1
    57    65    68    1
    58    93    91    1
    59    94    92    1
    60    66    67    2
    61    66    71   am
    62    20    19    2
    63    19    18    1
    64    69    68    1
    65    75    77    1
    66    75    72    1
    67    71    72    1
    68    68    70    1
    69    91    92    1
    70    91    88    1
    71    72    73    1
    72    90    89    2
    73    18    21    1
    74    18    17    1
    75    21    22    1
    76    89    88    1
    77    88    87    1
    78    22    23    1
    79    12    11    2
    80    73    74    2
    81    17    11   am
    82    17    23    1
    83    11    10    1
    84    15    14    1
    85    13    10    1
    86    13    14    1
    87    82    81    2
    88    86    85    1
    89    10     9    1
    90    14    16    1
    91    81    80    1
    92    83    80    1
    93    83    84    1
    94    85    84    1
    95    80    79    1
