@<TRIPOS>MOLECULE
tmp/3ugxC02.pdb
 83 82 0 0 0
SMALL
GASTEIGER

@<TRIPOS>ATOM
      1  N         52.7600   11.9240   25.9810 N.3   173  PRO173     -0.2116
      2  CA        51.4010   12.1190   25.4680 C.3   173  PRO173      0.1372
      3  C         50.8330   13.4550   25.9120 C.2   173  PRO173      0.2244
      4  O         50.8760   13.7630   27.1070 O.2   173  PRO173     -0.2868
      5  CB        50.6160   10.9890   26.1380 C.3   173  PRO173      0.0268
      6  CG        51.6560    9.9430   26.4550 C.3   173  PRO173      0.0207
      7  CD        52.8660   10.7360   26.8470 C.3   173  PRO173      0.0892
      8  N         54.5830    7.8440   27.7650 N.3   197  GLU197     -0.1245
      9  CA        53.7570    7.1890   26.7380 C.3   197  GLU197      0.1567
     10  C         53.4780    5.6930   26.9900 C.2   197  GLU197      0.2260
     11  O         52.4880    5.1440   26.4780 O.2   197  GLU197     -0.2867
     12  CB        54.2730    7.4720   25.3140 C.3   197  GLU197      0.0388
     13  CG        55.0110    6.3070   24.6380 C.3   197  GLU197      0.1160
     14  CD        54.1230    5.4580   23.7370 C.2   197  GLU197      0.3649
     15  OE1       53.0070    5.8850   23.3900 O.co2 197  GLU197     -0.2457
     16  OE2       54.5460    4.3490   23.3740 O.co2 197  GLU197     -0.2457
     17  N         48.3670   -3.0460   24.7260 N.3   294  SER294     -0.1202
     18  CA        48.2910   -2.3550   23.4580 C.3   294  SER294      0.2020
     19  C         49.0150   -3.1840   22.3810 C.2   294  SER294      0.2619
     20  O         50.1340   -3.6730   22.5890 O.2   294  SER294     -0.2717
     21  CB        48.9160   -0.9650   23.5750 C.3   294  SER294      0.2103
     22  OG        48.2840   -0.2040   24.5920 O.3   294  SER294     -0.2182
     23  N         48.3370   -3.3650   21.2520 N.am  295  THR295     -0.1952
     24  CA        48.9120   -3.9470   20.0460 C.3   295  THR295      0.1897
     25  C         50.1260   -3.1490   19.5760 C.2   295  THR295      0.2313
     26  O         50.0880   -1.9090   19.5340 O.2   295  THR295     -0.2863
     27  CB        47.8950   -3.8360   18.9120 C.3   295  THR295      0.1794
     28  OG1       46.6860   -4.5160   19.2730 O.3   295  THR295     -0.2208
     29  CG2       48.4720   -4.3900   17.6160 C.3   295  THR295      0.0378
     30  N         44.1800   -3.7020   19.7430 N.3   310  VAL310     -0.1231
     31  CA        43.8500   -3.1470   21.0460 C.3   310  VAL310      0.1692
     32  C         44.6540   -1.8730   21.2860 C.2   310  VAL310      0.2593
     33  O         45.8820   -1.8480   21.0780 O.2   310  VAL310     -0.2718
     34  CB        44.1840   -4.1370   22.1590 C.3   310  VAL310      0.0266
     35  CG1       43.9780   -3.4770   23.5560 C.3   310  VAL310      0.0020
     36  CG2       43.3700   -5.4440   21.9790 C.3   310  VAL310      0.0020
     37  N         43.9650   -0.8170   21.7130 N.am  311  SER311     -0.1938
     38  CA        44.6400    0.4340   22.0390 C.3   311  SER311      0.2055
     39  C         43.9810    1.0940   23.2470 C.2   311  SER311      0.2643
     40  O         42.8480    0.7550   23.6130 O.2   311  SER311     -0.2714
     41  CB        44.6460    1.3720   20.8250 C.3   311  SER311      0.2130
     42  OG        43.3200    1.6860   20.4450 O.3   311  SER311     -0.2179
     43  N         44.6930    2.0210   23.8800 N.am  312  TYR312     -0.1973
     44  CA        44.1580    2.6810   25.0710 C.3   312  TYR312      0.1639
     45  C         44.2720    4.1900   24.9930 C.2   312  TYR312      0.2290
     46  O         45.2450    4.7500   24.4600 O.2   312  TYR312     -0.2864
     47  CB        44.8430    2.1910   26.3560 C.3   312  TYR312      0.0560
     48  CG        44.5530    0.7550   26.7300 C.ar  312  TYR312     -0.0198
     49  CD1       43.4600    0.4160   27.5280 C.ar  312  TYR312     -0.0009
     50  CD2       45.3850   -0.2670   26.3010 C.ar  312  TYR312     -0.0009
     51  CE1       43.2050   -0.9220   27.8740 C.ar  312  TYR312      0.0417
     52  CE2       45.1400   -1.5960   26.6370 C.ar  312  TYR312      0.0417
     53  CZ        44.0550   -1.9210   27.4200 C.ar  312  TYR312      0.1957
     54  OH        43.8400   -3.2470   27.7390 O.3   312  TYR312     -0.2866
     55  N         46.1680    9.3860   23.4790 N.3   333  PRO333     -0.2102
     56  CA        46.5100    7.9610   23.4270 C.3   333  PRO333      0.1504
     57  C         47.6780    7.6170   24.3500 C.2   333  PRO333      0.2576
     58  O         48.5300    8.4740   24.6180 O.2   333  PRO333     -0.2718
     59  CB        46.8840    7.7470   21.9530 C.3   333  PRO333      0.0282
     60  CG        47.3810    9.1090   21.4740 C.3   333  PRO333      0.0208
     61  CD        46.6980   10.1590   22.3380 C.3   333  PRO333      0.0893
     62  N         47.7310    6.3790   24.8210 N.am  334  PHE334     -0.1963
     63  CA        48.9360    5.9190   25.4950 C.3   334  PHE334      0.1771
     64  C         48.9940    4.4140   25.2990 C.2   334  PHE334      0.2619
     65  O         47.9820    3.7940   24.9590 O.2   334  PHE334     -0.2715
     66  CB        48.9060    6.2870   26.9950 C.3   334  PHE334      0.0574
     67  CG        47.9230    5.4820   27.7850 C.ar  334  PHE334     -0.0200
     68  CD1       46.5750    5.8300   27.8090 C.ar  334  PHE334     -0.0042
     69  CD2       48.3320    4.3420   28.4630 C.ar  334  PHE334     -0.0042
     70  CE1       45.6550    5.0660   28.5200 C.ar  334  PHE334     -0.0003
     71  CE2       47.4200    3.5740   29.1730 C.ar  334  PHE334     -0.0003
     72  CZ        46.0790    3.9360   29.2000 C.ar  334  PHE334     -0.0000
     73  N         50.1610    3.8190   25.5170 N.am  335  ARG335     -0.1977
     74  CA        50.2510    2.3630   25.4490 C.3   335  ARG335      0.1597
     75  C         50.3470    1.6790   26.8250 C.2   335  ARG335      0.2287
     76  O         50.9150    2.2120   27.7790 O.2   335  ARG335     -0.2864
     77  CB        51.3780    1.9240   24.5140 C.3   335  ARG335      0.0334
     78  CG        51.0730    2.1760   23.0310 C.3   335  ARG335      0.0492
     79  CD        52.1450    1.5820   22.1500 C.3   335  ARG335      0.2205
     80  NE        53.4170    2.2870   22.2730 N.pl3 335  ARG335     -0.0865
     81  CZ        54.5740    1.8490   21.7790 C.cat 335  ARG335      0.5346
     82  NH1       54.6330    0.6960   21.1220 N.pl3 335  ARG335      0.1354
     83  NH2       55.6810    2.5630   21.9480 N.pl3 335  ARG335      0.1354
@<TRIPOS>BOND
     1    29    27    1
     2    27    28    1
     3    27    24    1
     4    26    25    2
     5    25    24    1
     6    30    31    1
     7    24    23    1
     8    42    41    1
     9    41    38    1
    10    31    32    1
    11    31    34    1
    12    33    32    2
    13    82    81    1
    14    23    19   am
    15    32    37   am
    16    60    59    1
    17    60    61    1
    18    37    38    1
    19    81    83    1
    20    81    80    2
    21    59    56    1
    22    36    34    1
    23    38    39    1
    24    79    80    1
    25    79    78    1
    26    34    35    1
    27    61    55    1
    28    19    20    2
    29    19    18    1
    30    78    77    1
    31    39    40    2
    32    39    43   am
    33    16    14   ar
    34    15    14   ar
    35    56    55    1
    36    56    57    1
    37    18    21    1
    38    18    17    1
    39    21    22    1
    40    14    13    1
    41    43    44    1
    42    57    58    2
    43    57    62   am
    44    46    45    2
    45    77    74    1
    46    13    12    1
    47    62    63    1
    48    65    64    2
    49    45    44    1
    50    44    47    1
    51    64    63    1
    52    64    73   am
    53    12     9    1
    54    74    73    1
    55    74    75    1
    56     2     3    1
    57     2     1    1
    58     2     5    1
    59    63    66    1
    60     3     4    2
    61     1     7    1
    62     5     6    1
    63    50    52   ar
    64    50    48   ar
    65    47    48    1
    66     6     7    1
    67    11    10    2
    68    52    53   ar
    69    48    49   ar
    70     9    10    1
    71     9     8    1
    72    75    76    2
    73    66    67    1
    74    53    54    1
    75    53    51   ar
    76    49    51   ar
    77    67    68   ar
    78    67    69   ar
    79    68    70   ar
    80    69    71   ar
    81    70    72   ar
    82    71    72   ar
