@<TRIPOS>MOLECULE
tmp/3uh0A00.pdb
 206 193 0 0 0
SMALL
GASTEIGER

@<TRIPOS>ATOM
      1  N          7.6750  -15.7050  -38.7550 N.3    94  MET94      -0.1245
      2  CA         6.9110  -14.9530  -37.7560 C.3    94  MET94       0.1570
      3  C          7.5490  -13.6000  -37.4410 C.2    94  MET94       0.2261
      4  O          8.7610  -13.4300  -37.5740 O.2    94  MET94      -0.2867
      5  CB         6.7750  -15.7580  -36.4570 C.3    94  MET94       0.0387
      6  CG         5.8460  -16.9560  -36.5420 C.3    94  MET94       0.0595
      7  SD         5.5780  -17.7040  -34.9180 S.3    94  MET94      -0.1393
      8  CE         4.6610  -19.1750  -35.3700 C.3    94  MET94       0.0692
      9  N          7.1700  -12.0280  -34.2930 N.3    96  CYS96      -0.1235
     10  CA         7.2920  -11.7810  -32.8420 C.3    96  CYS96       0.1677
     11  C          8.6950  -11.3930  -32.3560 C.2    96  CYS96       0.2270
     12  O          8.8560  -10.3790  -31.6790 O.2    96  CYS96      -0.2867
     13  CB         6.7520  -12.9500  -32.0070 C.3    96  CYS96       0.0956
     14  SG         5.9580  -14.2790  -32.9340 S.3    96  CYS96      -0.0801
     15  N          7.0070  -19.7750  -44.9710 N.3   125  ARG125     -0.1245
     16  CA         7.0640  -21.0450  -44.2590 C.3   125  ARG125      0.1563
     17  C          7.2520  -22.1660  -45.2700 C.2   125  ARG125      0.2260
     18  O          6.5370  -22.2280  -46.2710 O.2   125  ARG125     -0.2867
     19  CB         5.8000  -21.2530  -43.4220 C.3   125  ARG125      0.0307
     20  CG         5.5780  -20.1430  -42.4060 C.3   125  ARG125      0.0489
     21  CD         4.4820  -20.4610  -41.4050 C.3   125  ARG125      0.2205
     22  NE         4.3320  -19.3690  -40.4430 N.pl3 125  ARG125     -0.0865
     23  CZ         3.4440  -19.3450  -39.4570 C.cat 125  ARG125      0.5346
     24  NH1        2.6130  -20.3620  -39.2810 N.pl3 125  ARG125      0.1354
     25  NH2        3.3910  -18.2980  -38.6430 N.pl3 125  ARG125      0.1354
     26  N          6.3060  -24.9320  -46.2170 N.3   127  GLU127     -0.1245
     27  CA         5.2440  -25.9350  -46.2340 C.3   127  GLU127      0.1567
     28  C          5.5560  -27.0400  -47.2390 C.2   127  GLU127      0.2260
     29  O          6.0340  -26.7650  -48.3380 O.2   127  GLU127     -0.2867
     30  CB         3.9080  -25.2780  -46.6060 C.3   127  GLU127      0.0388
     31  CG         3.5030  -24.1070  -45.7150 C.3   127  GLU127      0.1160
     32  CD         2.8650  -24.5520  -44.4150 C.2   127  GLU127      0.3649
     33  OE1        2.3240  -25.6790  -44.3710 O.co2 127  GLU127     -0.2457
     34  OE2        2.9010  -23.7720  -43.4360 O.co2 127  GLU127     -0.2457
     35  N         -5.0470  -20.4450  -52.1130 N.3   135  LEU135     -0.1231
     36  CA        -4.6090  -19.3260  -51.2870 C.3   135  LEU135      0.1693
     37  C         -4.6780  -19.6490  -49.7980 C.2   135  LEU135      0.2593
     38  O         -4.2520  -18.8470  -48.9720 O.2   135  LEU135     -0.2718
     39  CB        -5.4410  -18.0730  -51.5880 C.3   135  LEU135      0.0284
     40  CG        -4.9090  -17.1300  -52.6700 C.3   135  LEU135      0.0019
     41  CD1       -4.8240  -17.8410  -54.0120 C.3   135  LEU135      0.0001
     42  CD2       -5.7810  -15.8870  -52.7770 C.3   135  LEU135      0.0001
     43  N         -5.2090  -20.8180  -49.4500 N.am  136  THR136     -0.1939
     44  CA        -5.3660  -21.1660  -48.0390 C.3   136  THR136      0.2028
     45  C         -4.0390  -21.5510  -47.3940 C.2   136  THR136      0.2642
     46  O         -3.7600  -21.1680  -46.2600 O.2   136  THR136     -0.2714
     47  CB        -6.4030  -22.2910  -47.8120 C.3   136  THR136      0.1808
     48  OG1       -5.9550  -23.4980  -48.4360 O.3   136  THR136     -0.2208
     49  CG2       -7.7580  -21.8970  -48.3840 C.3   136  THR136      0.0379
     50  N         -3.2210  -22.3090  -48.1160 N.am  137  ARG137     -0.1963
     51  CA        -1.9280  -22.7340  -47.5930 C.3   137  ARG137      0.1729
     52  C         -0.8120  -22.4550  -48.5960 C.2   137  ARG137      0.2616
     53  O         -0.7250  -23.1010  -49.6420 O.2   137  ARG137     -0.2715
     54  CB        -1.9660  -24.2180  -47.2130 C.3   137  ARG137      0.0348
     55  CG        -0.9400  -24.6150  -46.1630 C.3   137  ARG137      0.0492
     56  CD        -1.5530  -25.5370  -45.1200 C.3   137  ARG137      0.2205
     57  NE        -0.6360  -25.8050  -44.0170 N.pl3 137  ARG137     -0.0865
     58  CZ        -0.6210  -25.1270  -42.8730 C.cat 137  ARG137      0.5346
     59  NH1        0.3880  -25.2710  -42.0250 N.pl3 137  ARG137      0.1354
     60  NH2       -1.6190  -24.3090  -42.5730 N.pl3 137  ARG137      0.1354
     61  N          0.0360  -21.4830  -48.2640 N.am  138  LEU138     -0.1977
     62  CA         1.1030  -21.0230  -49.1480 C.3   138  LEU138      0.1596
     63  C          2.4520  -21.0700  -48.4550 C.2   138  LEU138      0.2287
     64  O          2.5210  -21.2590  -47.2420 O.2   138  LEU138     -0.2864
     65  CB         0.8380  -19.5740  -49.5610 C.3   138  LEU138      0.0297
     66  CG        -0.4300  -19.2820  -50.3540 C.3   138  LEU138      0.0022
     67  CD1       -0.7050  -17.7870  -50.3530 C.3   138  LEU138      0.0001
     68  CD2       -0.2950  -19.8130  -51.7750 C.3   138  LEU138      0.0001
     69  N          3.0470  -15.5590  -47.4510 N.3   141  PHE141     -0.1241
     70  CA         1.7730  -14.9270  -47.1390 C.3   141  PHE141      0.1605
     71  C          1.9820  -13.7180  -46.2400 C.2   141  PHE141      0.2264
     72  O          3.0590  -13.5290  -45.6750 O.2   141  PHE141     -0.2867
     73  CB         0.8170  -15.9300  -46.4810 C.3   141  PHE141      0.0534
     74  CG         1.3650  -16.5670  -45.2320 C.ar  141  PHE141     -0.0203
     75  CD1        1.2150  -15.9520  -44.0020 C.ar  141  PHE141     -0.0042
     76  CD2        2.0270  -17.7850  -45.2880 C.ar  141  PHE141     -0.0042
     77  CE1        1.7110  -16.5400  -42.8470 C.ar  141  PHE141     -0.0003
     78  CE2        2.5310  -18.3740  -44.1400 C.ar  141  PHE141     -0.0003
     79  CZ         2.3710  -17.7510  -42.9160 C.ar  141  PHE141     -0.0000
     80  N          0.5130  -11.7320  -42.9320 N.3   143  GLN143     -0.1245
     81  CA        -0.3740  -11.6980  -41.7850 C.3   143  GLN143      0.1566
     82  C         -0.7240  -10.2590  -41.4510 C.2   143  GLN143      0.2260
     83  O          0.1060   -9.3670  -41.5990 O.2   143  GLN143     -0.2867
     84  CB         0.3070  -12.3110  -40.5630 C.3   143  GLN143      0.0367
     85  CG         0.3210  -13.8130  -40.5060 C.3   143  GLN143      0.0905
     86  CD         1.0940  -14.2990  -39.2990 C.2   143  GLN143      0.2608
     87  OE1        1.5880  -13.4930  -38.5090 O.2   143  GLN143     -0.2717
     88  NE2        1.2160  -15.6140  -39.1540 N.am  143  GLN143     -0.0878
     89  N         -0.5380   -9.0170  -38.6370 N.3   145  ASP145     -0.1239
     90  CA         0.0300   -9.4400  -37.3640 C.3   145  ASP145      0.1674
     91  C          0.0210   -8.3030  -36.3590 C.2   145  ASP145      0.2266
     92  O         -0.0540   -7.1370  -36.7240 O.2   145  ASP145     -0.2867
     93  CB         1.4610   -9.9620  -37.5790 C.3   145  ASP145      0.1410
     94  CG         1.9800  -10.7620  -36.4010 C.2   145  ASP145      0.3668
     95  OD1        1.1650  -11.1480  -35.5330 O.co2 145  ASP145     -0.2456
     96  OD2        3.2060  -11.0150  -36.3420 O.co2 145  ASP145     -0.2456
     97  N          1.3170   -7.5580  -31.9770 N.3   147  HIS147     -0.1241
     98  CA         1.7740   -8.0290  -30.6820 C.3   147  HIS147      0.1621
     99  C          1.5010   -6.9890  -29.6150 C.2   147  HIS147      0.2264
    100  O          1.8150   -5.8090  -29.7790 O.2   147  HIS147     -0.2867
    101  CB         3.2540   -8.3910  -30.7300 C.3   147  HIS147      0.0745
    102  CG         3.5550   -9.5240  -31.6580 C.ar  147  HIS147      0.0817
    103  ND1        4.0160   -9.3330  -32.9430 N.ar  147  HIS147     -0.2268
    104  CD2        3.4290  -10.8630  -31.4990 C.ar  147  HIS147      0.1154
    105  CE1        4.1730  -10.5060  -33.5300 C.ar  147  HIS147      0.1986
    106  NE2        3.8240  -11.4490  -32.6760 N.ar  147  HIS147     -0.2212
    107  N          5.0470  -21.3700  -27.5220 N.3   228  TYR228     -0.1241
    108  CA         5.3120  -20.3220  -26.5430 C.3   228  TYR228      0.1605
    109  C          4.0960  -20.0190  -25.6680 C.2   228  TYR228      0.2264
    110  O          4.2070  -19.2890  -24.6840 O.2   228  TYR228     -0.2867
    111  CB         5.8160  -19.0430  -27.2310 C.3   228  TYR228      0.0534
    112  CG         5.0890  -18.7090  -28.5150 C.ar  228  TYR228     -0.0201
    113  CD1        3.9110  -17.9720  -28.5030 C.ar  228  TYR228     -0.0009
    114  CD2        5.5830  -19.1320  -29.7420 C.ar  228  TYR228     -0.0009
    115  CE1        3.2440  -17.6680  -29.6810 C.ar  228  TYR228      0.0417
    116  CE2        4.9240  -18.8350  -30.9190 C.ar  228  TYR228      0.0417
    117  CZ         3.7590  -18.1040  -30.8830 C.ar  228  TYR228      0.1957
    118  OH         3.1030  -17.8140  -32.0590 O.3   228  TYR228     -0.2866
    119  N         -3.6050  -20.7680  -27.1030 N.3   231  LYS231     -0.1245
    120  CA        -4.2600  -19.7710  -27.9390 C.3   231  LYS231      0.1561
    121  C         -5.7280  -20.0600  -28.2010 C.2   231  LYS231      0.2260
    122  O         -6.1970  -21.1850  -28.0180 O.2   231  LYS231     -0.2867
    123  CB        -3.4970  -19.5900  -29.2640 C.3   231  LYS231      0.0271
    124  CG        -3.3080  -20.8570  -30.0830 C.3   231  LYS231      0.0035
    125  CD        -2.2610  -20.6500  -31.1770 C.3   231  LYS231      0.0206
    126  CE        -2.0310  -21.9350  -31.9630 C.3   231  LYS231      0.1093
    127  NZ        -2.6220  -21.8640  -33.3300 N.3   231  LYS231     -0.1314
    128  N         -8.4120  -22.3140  -39.8940 N.3   245  GLN245     -0.1231
    129  CA        -7.9750  -21.4030  -38.8430 C.3   245  GLN245      0.1698
    130  C         -7.6350  -20.0490  -39.4550 C.2   245  GLN245      0.2592
    131  O         -6.7600  -19.9420  -40.3200 O.2   245  GLN245     -0.2718
    132  CB        -6.7640  -21.9660  -38.0910 C.3   245  GLN245      0.0381
    133  CG        -6.2210  -21.0460  -36.9960 C.3   245  GLN245      0.0905
    134  CD        -5.0200  -21.6290  -36.2720 C.2   245  GLN245      0.2608
    135  OE1       -5.1460  -22.5890  -35.5110 O.2   245  GLN245     -0.2717
    136  NE2       -3.8480  -21.0490  -36.5040 N.am  245  GLN245     -0.0878
    137  N         -8.3360  -19.0130  -39.0180 N.am  246  VAL246     -0.1980
    138  CA        -8.0600  -17.6760  -39.5190 C.3   246  VAL246      0.1595
    139  C         -7.4930  -16.7180  -38.4790 C.2   246  VAL246      0.2287
    140  O         -6.2730  -16.6050  -38.3390 O.2   246  VAL246     -0.2864
    141  CB        -9.3040  -17.0640  -40.1850 C.3   246  VAL246      0.0276
    142  CG1       -9.5340  -17.7290  -41.5240 C.3   246  VAL246      0.0022
    143  CG2      -10.5320  -17.2220  -39.2910 C.3   246  VAL246      0.0022
    144  N         -6.4680  -15.5380  -34.7280 N.3   248  THR248     -0.1218
    145  CA        -5.9130  -16.2660  -33.5990 C.3   248  THR248      0.1862
    146  C         -5.4390  -15.2880  -32.5390 C.2   248  THR248      0.2287
    147  O         -5.0360  -14.1680  -32.8490 O.2   248  THR248     -0.2866
    148  CB        -4.7450  -17.1740  -34.0240 C.3   248  THR248      0.1770
    149  OG1       -4.2410  -17.8770  -32.8810 O.3   248  THR248     -0.2211
    150  CG2       -3.6280  -16.3550  -34.6300 C.3   248  THR248      0.0375
    151  N         -2.9780  -15.4030  -29.0390 N.3   250  GLN250     -0.1245
    152  CA        -2.0480  -16.2770  -28.3360 C.3   250  GLN250      0.1566
    153  C         -1.4800  -15.6060  -27.0940 C.2   250  GLN250      0.2260
    154  O         -0.9430  -14.5020  -27.1690 O.2   250  GLN250     -0.2867
    155  CB        -0.9420  -16.7140  -29.3020 C.3   250  GLN250      0.0367
    156  CG        -1.5120  -17.2010  -30.6350 C.3   250  GLN250      0.0905
    157  CD        -0.4730  -17.3440  -31.7320 C.2   250  GLN250      0.2608
    158  OE1       -0.7830  -17.7810  -32.8440 O.2   250  GLN250     -0.2717
    159  NE2        0.7590  -16.9750  -31.4300 N.am  250  GLN250     -0.0878
    160  N         -0.1790  -12.4370  -28.8850 N.3   277  HIS277     -0.1226
    161  CA        -0.0450  -12.4220  -30.3400 C.3   277  HIS277      0.1752
    162  C         -1.4550  -12.4650  -30.8960 C.2   277  HIS277      0.2596
    163  O         -2.3220  -13.1040  -30.3060 O.2   277  HIS277     -0.2718
    164  CB         0.7310  -13.6480  -30.8250 C.3   277  HIS277      0.0759
    165  CG         2.0060  -13.8910  -30.0900 C.ar  277  HIS277      0.0818
    166  ND1        3.2170  -14.0660  -30.7330 N.ar  277  HIS277     -0.2268
    167  CD2        2.2740  -14.0140  -28.7660 C.ar  277  HIS277      0.1154
    168  CE1        4.1640  -14.2730  -29.8420 C.ar  277  HIS277      0.1986
    169  NE2        3.6210  -14.2460  -28.6410 N.ar  277  HIS277     -0.2212
    170  N         -1.7060  -11.7810  -32.0100 N.am  278  ARG278     -0.1966
    171  CA        -3.0460  -11.7910  -32.5830 C.3   278  ARG278      0.1729
    172  C         -3.0710  -11.4080  -34.0580 C.2   278  ARG278      0.2616
    173  O         -2.2760  -10.5900  -34.5190 O.2   278  ARG278     -0.2715
    174  CB        -4.0030  -10.9090  -31.7640 C.3   278  ARG278      0.0348
    175  CG        -3.3670   -9.6430  -31.2060 C.3   278  ARG278      0.0492
    176  CD        -2.9560   -8.6930  -32.3170 C.3   278  ARG278      0.2205
    177  NE        -4.0870   -7.9320  -32.8360 N.pl3 278  ARG278     -0.0865
    178  CZ        -4.2120   -7.5440  -34.1010 C.cat 278  ARG278      0.5346
    179  NH1       -3.2790   -7.8590  -34.9910 N.pl3 278  ARG278      0.1354
    180  NH2       -5.2750   -6.8470  -34.4770 N.pl3 278  ARG278      0.1354
    181  N         -3.9930  -12.0290  -34.7820 N.am  279  ALA279     -0.1977
    182  CA        -4.1950  -11.7700  -36.1950 C.3   279  ALA279      0.1597
    183  C         -5.6890  -11.8610  -36.3950 C.2   279  ALA279      0.2287
    184  O         -6.3440  -12.6940  -35.7680 O.2   279  ALA279     -0.2864
    185  CB        -3.4860  -12.8270  -37.0300 C.3   279  ALA279      0.0319
    186  N         -5.9330  -13.4990  -40.1630 N.3   282  GLY282     -0.1210
    187  CA        -5.0290  -14.6370  -40.1380 C.3   282  GLY282      0.1956
    188  C         -3.9210  -14.3310  -41.1260 C.2   282  GLY282      0.2612
    189  O         -2.8640  -13.8170  -40.7610 O.2   282  GLY282     -0.2717
    190  N         -4.1710  -14.6450  -42.3900 N.am  283  SER283     -0.1952
    191  CA        -3.3510  -14.1300  -43.4710 C.3   283  SER283      0.1924
    192  C         -4.3210  -13.5040  -44.4500 C.2   283  SER283      0.2314
    193  O         -5.4750  -13.9190  -44.5270 O.2   283  SER283     -0.2863
    194  CB        -2.5540  -15.2480  -44.1360 C.3   283  SER283      0.2116
    195  OG        -3.4160  -16.1780  -44.7670 O.3   283  SER283     -0.2180
    196  N         -5.3920  -16.3100  -47.0770 N.3   286  ARG286     -0.1245
    197  CA        -6.3500  -17.3290  -46.6540 C.3   286  ARG286      0.1563
    198  C         -7.7340  -16.7310  -46.4300 C.2   286  ARG286      0.2260
    199  O         -8.7470  -17.3620  -46.7290 O.2   286  ARG286     -0.2867
    200  CB        -5.8710  -18.0460  -45.3880 C.3   286  ARG286      0.0307
    201  CG        -6.8440  -19.1150  -44.9000 C.3   286  ARG286      0.0489
    202  CD        -6.3220  -19.8410  -43.6700 C.3   286  ARG286      0.2205
    203  NE        -5.1670  -20.6790  -43.9770 N.pl3 286  ARG286     -0.0865
    204  CZ        -4.5680  -21.4750  -43.0960 C.cat 286  ARG286      0.5346
    205  NH1       -5.0210  -21.5470  -41.8540 N.pl3 286  ARG286      0.1354
    206  NH2       -3.5170  -22.1990  -43.4550 N.pl3 286  ARG286      0.1354
@<TRIPOS>BOND
     1    41    40    1
     2    42    40    1
     3    40    39    1
     4    35    36    1
     5    68    66    1
     6    39    36    1
     7    36    37    1
     8    66    67    1
     9    66    65    1
    10    37    43   am
    11    37    38    2
    12    53    52    2
    13    65    62    1
    14    43    44    1
    15    62    63    1
    16    62    61    1
    17    52    61   am
    18    52    51    1
    19    63    64    2
    20    48    47    1
    21    49    47    1
    22    29    28    2
    23    50    51    1
    24    50    45   am
    25    44    47    1
    26    44    45    1
    27    51    54    1
    28    69    70    1
    29    45    46    2
    30    28    27    1
    31    54    55    1
    32    70    73    1
    33    70    71    1
    34   196   197    1
    35   199   198    2
    36   197   198    1
    37   197   200    1
    38    30    27    1
    39    30    31    1
    40    73    74    1
    41    18    17    2
    42    71    72    2
    43    27    26    1
    44    55    56    1
    45    31    32    1
    46   200   201    1
    47    76    74   ar
    48    76    78   ar
    49    17    16    1
    50    74    75   ar
    51    56    57    1
    52    15    16    1
    53   201   202    1
    54   195   194    1
    55   193   192    2
    56   192   191    1
    57    32    33   ar
    58    32    34   ar
    59    16    19    1
    60    78    79   ar
    61   194   191    1
    62    57    58    2
    63    75    77   ar
    64   203   202    1
    65   203   204    2
    66   191   190    1
    67   206   204    1
    68    19    20    1
    69   204   205    1
    70    80    81    1
    71    79    77   ar
    72    58    60    1
    73    58    59    1
    74    20    21    1
    75   190   188   am
    76    81    82    1
    77    81    84    1
    78    83    82    2
    79   142   141    1
    80    21    22    1
    81   188   189    2
    82   188   187    1
    83    84    85    1
    84    85    86    1
    85    22    23    2
    86   131   130    2
    87   141   138    1
    88   141   143    1
    89   186   187    1
    90   128   129    1
    91   138   137    1
    92   138   139    1
    93    23    24    1
    94    23    25    1
    95   130   137   am
    96   130   129    1
    97    86    88   am
    98    86    87    2
    99   129   132    1
   100     1     2    1
   101    89    90    1
   102   139   140    2
   103   132   133    1
   104     2     3    1
   105     2     5    1
   106    93    90    1
   107    93    94    1
   108     4     3    2
   109    90    91    1
   110   185   182    1
   111   133   134    1
   112    92    91    2
   113     6     5    1
   114     6     7    1
   115   136   134   am
   116    94    96   ar
   117    94    95   ar
   118   183   182    1
   119   183   184    2
   120   134   135    2
   121   182   181    1
   122     8     7    1
   123   179   178    1
   124   181   172   am
   125   144   145    1
   126   150   148    1
   127   173   172    2
   128   180   178    1
   129     9    10    1
   130   178   177    2
   131   172   171    1
   132   148   145    1
   133   148   149    1
   134   145   146    1
   135   105   103   ar
   136   105   106   ar
   137   127   126    1
   138   103   102   ar
   139    14    13    1
   140   147   146    2
   141   158   157    2
   142    10    11    1
   143    10    13    1
   144   177   176    1
   145   106   104   ar
   146   171   170    1
   147   171   174    1
   148    11    12    2
   149   176   175    1
   150   118   117    1
   151   170   162   am
   152    97    98    1
   153   126   125    1
   154   174   175    1
   155   157   159   am
   156   157   156    1
   157   102   104   ar
   158   102   101    1
   159   125   124    1
   160   116   117   ar
   161   116   114   ar
   162   162   161    1
   163   162   163    2
   164   117   115   ar
   165   164   161    1
   166   164   165    1
   167   166   165   ar
   168   166   168   ar
   169   101    98    1
   170    98    99    1
   171   156   155    1
   172   161   160    1
   173   165   167   ar
   174   124   123    1
   175   168   169   ar
   176   100    99    2
   177   114   112   ar
   178   115   113   ar
   179   155   152    1
   180   123   120    1
   181   151   152    1
   182   167   169   ar
   183   112   113   ar
   184   112   111    1
   185   152   153    1
   186   121   122    2
   187   121   120    1
   188   120   119    1
   189   107   108    1
   190   111   108    1
   191   154   153    2
   192   108   109    1
   193   109   110    2
