@<TRIPOS>MOLECULE
tmp/3uh1A01.pdb
 150 143 0 0 0
SMALL
GASTEIGER

@<TRIPOS>ATOM
      1  N         25.7700   -8.6520   -1.6410 N.3    16  ARG16      -0.1245
      2  CA        24.3830   -9.0230   -1.9370 C.3    16  ARG16       0.1563
      3  C         24.3070   -9.3980   -3.4040 C.2    16  ARG16       0.2260
      4  O         25.2430   -9.1380   -4.1440 O.2    16  ARG16      -0.2867
      5  CB        23.3910   -7.8990   -1.6300 C.3    16  ARG16       0.0307
      6  CG        23.2180   -7.6170   -0.1040 C.3    16  ARG16       0.0489
      7  CD        22.4790   -6.3340    0.1170 C.3    16  ARG16       0.2205
      8  NE        23.2220   -5.2070   -0.4560 N.pl3  16  ARG16      -0.0865
      9  CZ        22.7000   -3.9880   -0.6750 C.cat  16  ARG16       0.5346
     10  NH1       21.4140   -3.7440   -0.4130 N.pl3  16  ARG16       0.1354
     11  NH2       23.4480   -3.0300   -1.1950 N.pl3  16  ARG16       0.1354
     12  N         23.9840   -2.5790   -7.6960 N.3    75  LYS75      -0.1245
     13  CA        24.6490   -1.3350   -7.3370 C.3    75  LYS75       0.1561
     14  C         25.1240   -0.6100   -8.5920 C.2    75  LYS75       0.2260
     15  O         24.9440   -1.1370   -9.6920 O.2    75  LYS75      -0.2867
     16  CB        25.7340   -1.5280   -6.2370 C.3    75  LYS75       0.0271
     17  CG        25.0960   -1.8980   -4.8520 C.3    75  LYS75       0.0035
     18  CD        24.7440   -0.6420   -4.0060 C.3    75  LYS75       0.0206
     19  CE        23.3990   -0.0660   -4.4140 C.3    75  LYS75       0.1093
     20  NZ        23.0800    1.3380   -3.9680 N.3    75  LYS75      -0.1314
     21  N         19.8480   -0.2810   -8.9950 N.3    92  PHE92      -0.1241
     22  CA        19.7430    1.0340   -8.3400 C.3    92  PHE92       0.1605
     23  C         20.7870    1.9180   -9.0160 C.2    92  PHE92       0.2264
     24  O         21.9270    1.5610   -9.0330 O.2    92  PHE92      -0.2867
     25  CB        20.0540    0.9880   -6.7970 C.3    92  PHE92       0.0534
     26  CG        19.0080    0.2960   -5.9790 C.ar   92  PHE92      -0.0203
     27  CD1       17.8620    0.9930   -5.5330 C.ar   92  PHE92      -0.0042
     28  CD2       19.1630   -1.0350   -5.6160 C.ar   92  PHE92      -0.0042
     29  CE1       16.8980    0.3630   -4.8060 C.ar   92  PHE92      -0.0003
     30  CE2       18.1750   -1.6910   -4.8470 C.ar   92  PHE92      -0.0003
     31  CZ        17.0420   -0.9730   -4.4370 C.ar   92  PHE92      -0.0000
     32  N         20.5870    5.5410   -8.4890 N.3    94  HIS94      -0.1241
     33  CA        20.7300    6.7720   -7.6590 C.3    94  HIS94       0.1621
     34  C         21.0030    8.0460   -8.5160 C.2    94  HIS94       0.2264
     35  O         21.9860    8.7690   -8.3390 O.2    94  HIS94      -0.2867
     36  CB        21.8070    6.5250   -6.5610 C.3    94  HIS94       0.0745
     37  CG        21.4360    5.4020   -5.6510 C.ar   94  HIS94       0.0817
     38  ND1       20.2040    5.3320   -5.0520 N.ar   94  HIS94      -0.2268
     39  CD2       22.1000    4.2790   -5.2860 C.ar   94  HIS94       0.1154
     40  CE1       20.1030    4.2060   -4.3670 C.ar   94  HIS94       0.1986
     41  NE2       21.2540    3.5600   -4.4710 N.ar   94  HIS94      -0.2212
     42  N         17.5730   12.1620   -8.2700 N.3    97  LYS97      -0.1245
     43  CA        17.3770   13.1890   -7.2290 C.3    97  LYS97       0.1561
     44  C         18.4970   14.2250   -7.2760 C.2    97  LYS97       0.2260
     45  O         18.8970   14.7450   -6.2310 O.2    97  LYS97      -0.2867
     46  CB        17.3550   12.5490   -5.8140 C.3    97  LYS97       0.0271
     47  CG        16.2740   11.4620   -5.6400 C.3    97  LYS97       0.0035
     48  CD        15.7990   11.3030   -4.1950 C.3    97  LYS97       0.0206
     49  CE        16.9580   11.1850   -3.1490 C.3    97  LYS97       0.1093
     50  NZ        16.3780   10.7710   -1.8170 N.3    97  LYS97      -0.1314
     51  N         21.6510   13.7600   -7.4170 N.3    99  GLN99      -0.1245
     52  CA        22.9420   13.3390   -6.8430 C.3    99  GLN99       0.1566
     53  C         24.0790   13.8180   -7.7690 C.2    99  GLN99       0.2260
     54  O         23.9030   13.9130   -9.0020 O.2    99  GLN99      -0.2867
     55  CB        22.9930   11.7990   -6.6460 C.3    99  GLN99       0.0367
     56  CG        21.8400   11.2720   -5.7820 C.3    99  GLN99       0.0905
     57  CD        20.5490   10.8030   -6.5740 C.2    99  GLN99       0.2608
     58  OE1       19.8490    9.8770   -6.1370 O.2    99  GLN99      -0.2717
     59  NE2       20.2680   11.4190   -7.7170 N.am   99  GLN99      -0.0878
     60  N         14.5290    1.4110   -7.3100 N.3   120  GLU120     -0.1245
     61  CA        13.9640    2.2050   -6.1880 C.3   120  GLU120      0.1567
     62  C         12.5740    2.7190   -6.5600 C.2   120  GLU120      0.2260
     63  O         11.7460    3.0170   -5.6710 O.2   120  GLU120     -0.2867
     64  CB        14.8710    3.3880   -5.8110 C.3   120  GLU120      0.0388
     65  CG        14.2110    4.4000   -4.8390 C.3   120  GLU120      0.1160
     66  CD        15.2080    5.4710   -4.3730 C.2   120  GLU120      0.3649
     67  OE1       16.4170    5.3440   -4.6460 O.co2 120  GLU120     -0.2457
     68  OE2       14.8110    6.4710   -3.8050 O.co2 120  GLU120     -0.2457
     69  N          6.4850    1.2420   -3.0630 N.3   129  ARG129     -0.1245
     70  CA         7.5860    0.3940   -3.5040 C.3   129  ARG129      0.1563
     71  C          7.3400   -1.0840   -3.4230 C.2   129  ARG129      0.2260
     72  O          6.8320   -1.5870   -2.4430 O.2   129  ARG129     -0.2867
     73  CB         8.9090    0.7550   -2.8010 C.3   129  ARG129      0.0307
     74  CG         9.5590    1.9940   -3.3810 C.3   129  ARG129      0.0489
     75  CD        10.9140    2.2360   -2.7500 C.3   129  ARG129      0.2205
     76  NE        11.8530    1.1630   -3.0720 N.pl3 129  ARG129     -0.0865
     77  CZ        13.0720    1.0700   -2.5750 C.cat 129  ARG129      0.5346
     78  NH1       13.5400    2.0260   -1.7730 N.pl3 129  ARG129      0.1354
     79  NH2       13.8400    0.0320   -2.9060 N.pl3 129  ARG129      0.1354
     80  N         12.4100   -3.3390   -1.2140 N.3   132  ALA132     -0.1231
     81  CA        13.1740   -2.3030   -0.5200 C.3   132  ALA132      0.1694
     82  C         14.0760   -2.9020    0.5530 C.2   132  ALA132      0.2592
     83  O         13.6490   -3.7640    1.2770 O.2   132  ALA132     -0.2718
     84  CB        12.1660   -1.2720    0.1220 C.3   132  ALA132      0.0304
     85  N         15.3260   -2.4370    0.6500 N.am  133  PHE133     -0.1962
     86  CA        16.2290   -2.9660    1.6660 C.3   133  PHE133      0.1771
     87  C         16.1870   -2.1800    2.9750 C.2   133  PHE133      0.2620
     88  O         16.8850   -2.5490    3.9400 O.2   133  PHE133     -0.2715
     89  CB        17.6630   -2.9550    1.1730 C.3   133  PHE133      0.0574
     90  CG        17.9850   -4.0350    0.1690 C.ar  133  PHE133     -0.0200
     91  CD1       17.9910   -3.7690   -1.1890 C.ar  133  PHE133     -0.0042
     92  CD2       18.3500   -5.2960    0.6090 C.ar  133  PHE133     -0.0042
     93  CE1       18.3750   -4.7620   -2.0990 C.ar  133  PHE133     -0.0003
     94  CE2       18.6840   -6.2920   -0.2590 C.ar  133  PHE133     -0.0003
     95  CZ        18.7010   -6.0170   -1.6360 C.ar  133  PHE133     -0.0000
     96  N         15.3840   -1.1090    3.0110 N.am  134  GLY134     -0.1954
     97  CA        15.4380   -0.1460    4.1390 C.3   134  GLY134      0.1869
     98  C         15.4770   -0.7440    5.5480 C.2   134  GLY134      0.2309
     99  O         16.1920   -0.2510    6.4320 O.2   134  GLY134     -0.2863
    100  N         21.7600    7.0440    7.7450 N.3   276  VAL276     -0.1231
    101  CA        21.1820    5.9060    6.9730 C.3   276  VAL276      0.1692
    102  C         20.6360    6.4040    5.5840 C.2   276  VAL276      0.2593
    103  O         20.9850    5.8090    4.5360 O.2   276  VAL276     -0.2718
    104  CB        20.0870    5.1260    7.7400 C.3   276  VAL276      0.0266
    105  CG1       19.4710    4.0030    6.8190 C.3   276  VAL276      0.0020
    106  CG2       20.6120    4.5390    9.0940 C.3   276  VAL276      0.0020
    107  N         19.7910    7.4510    5.5850 N.am  277  SER277     -0.1938
    108  CA        19.3400    8.0340    4.3240 C.3   277  SER277      0.2055
    109  C         20.4970    8.2000    3.3630 C.2   277  SER277      0.2643
    110  O         20.4420    7.7560    2.1890 O.2   277  SER277     -0.2714
    111  CB        18.6430    9.3550    4.5670 C.3   277  SER277      0.2130
    112  OG        17.5830    9.1150    5.4720 O.3   277  SER277     -0.2179
    113  N         21.5750    8.7960    3.8670 N.am  278  ALA278     -0.1963
    114  CA        22.8480    8.8990    3.1250 C.3   278  ALA278      0.1728
    115  C         22.7690    9.6840    1.7940 C.2   278  ALA278      0.2616
    116  O         23.3360    9.2630    0.7620 O.2   278  ALA278     -0.2715
    117  CB        23.4820    7.5320    2.9280 C.3   278  ALA278      0.0334
    118  N         22.0750   10.8180    1.8310 N.am  279  ASP279     -0.1971
    119  CA        21.9590   11.7270    0.6720 C.3   279  ASP279      0.1709
    120  C         23.1360   12.6770    0.6530 C.2   279  ASP279      0.2293
    121  O         22.9910   13.9160    0.5600 O.2   279  ASP279     -0.2864
    122  CB        20.6180   12.4790    0.7260 C.3   279  ASP279      0.1436
    123  CG        19.4160   11.5340    0.6630 C.2   279  ASP279      0.3671
    124  OD1       18.6500   11.3970    1.6470 O.co2 279  ASP279     -0.2456
    125  OD2       19.2230   10.9010   -0.3760 O.co2 279  ASP279     -0.2456
    126  N         26.6990    3.5310    2.3010 N.3   317  ASP317     -0.1225
    127  CA        25.5920    3.5770    1.3950 C.3   317  ASP317      0.1805
    128  C         25.0590    2.2070    0.9250 C.2   317  ASP317      0.2597
    129  O         24.2420    2.1220   -0.0110 O.2   317  ASP317     -0.2718
    130  CB        25.9610    4.4730    0.2100 C.3   317  ASP317      0.1424
    131  CG        27.0270    3.9050   -0.6790 C.2   317  ASP317      0.3668
    132  OD1       27.4850    2.7310   -0.5600 O.co2 317  ASP317     -0.2456
    133  OD2       27.4310    4.6790   -1.5620 O.co2 317  ASP317     -0.2456
    134  N         25.4970    1.1370    1.5820 N.am  318  HIS318     -0.1975
    135  CA        24.9510   -0.1910    1.2980 C.3   318  HIS318      0.1656
    136  C         25.0590   -1.0240    2.5730 C.2   318  HIS318      0.2291
    137  O         25.5510   -2.1450    2.5800 O.2   318  HIS318     -0.2864
    138  CB        25.6340   -0.8300    0.1070 C.3   318  HIS318      0.0771
    139  CG        27.1040   -1.0020    0.2820 C.ar  318  HIS318      0.0820
    140  ND1       27.9100   -0.0310    0.8340 N.ar  318  HIS318     -0.2267
    141  CD2       27.9170   -2.0530    0.0070 C.ar  318  HIS318      0.1154
    142  CE1       29.1560   -0.4740    0.9160 C.ar  318  HIS318      0.1986
    143  NE2       29.1820   -1.7070    0.4510 N.ar  318  HIS318     -0.2212
    144  N         22.7570   -2.7590    4.0580 N.3   320  PRO320     -0.2116
    145  CA        22.1530   -4.1080    4.0620 C.3   320  PRO320      0.1372
    146  C         23.1290   -5.2470    3.7620 C.2   320  PRO320      0.2244
    147  O         22.8960   -6.3880    4.1370 O.2   320  PRO320     -0.2868
    148  CB        21.0340   -3.9850    3.0320 C.3   320  PRO320      0.0268
    149  CG        20.6690   -2.5390    3.0930 C.3   320  PRO320      0.0207
    150  CD        22.0310   -1.8690    3.1480 C.3   320  PRO320      0.0892
@<TRIPOS>BOND
     1    15    14    2
     2    24    23    2
     3    23    22    1
     4    54    53    2
     5    21    22    1
     6    14    13    1
     7    34    35    2
     8    34    33    1
     9    32    33    1
    10    22    25    1
    11    42    43    1
    12    53    52    1
    13    59    57   am
    14    12    13    1
    15    33    36    1
    16    51    52    1
    17    13    16    1
    18    60    61    1
    19    44    43    1
    20    44    45    2
    21    43    46    1
    22    52    55    1
    23    25    26    1
    24    55    56    1
    25    57    58    2
    26    57    56    1
    27    36    37    1
    28    62    61    1
    29    62    63    2
    30    16    17    1
    31    61    64    1
    32    26    28   ar
    33    26    27   ar
    34    46    47    1
    35    64    65    1
    36    37    39   ar
    37    37    38   ar
    38    47    48    1
    39    28    30   ar
    40    27    29   ar
    41    39    41   ar
    42    38    40   ar
    43    17    18    1
    44    30    31   ar
    45    65    66    1
    46    29    31   ar
    47    67    66   ar
    48    41    40   ar
    49    19    18    1
    50    19    20    1
    51    66    68   ar
    52    48    49    1
    53     4     3    2
    54    70    71    1
    55    70    69    1
    56    70    73    1
    57    71    72    2
    58     3     2    1
    59    74    73    1
    60    74    75    1
    61    49    50    1
    62    76    75    1
    63    76    77    2
    64    79    77    1
    65    77    78    1
    66    93    95   ar
    67    93    91   ar
    68     2     1    1
    69     2     5    1
    70    95    94   ar
    71     5     6    1
    72   133   131   ar
    73    80    81    1
    74    11     9    1
    75    91    90   ar
    76   131   132   ar
    77   131   130    1
    78     9     8    2
    79     9    10    1
    80    81    84    1
    81    81    82    1
    82     8     7    1
    83   125   123   ar
    84    94    92   ar
    85     6     7    1
    86   129   128    2
    87   141   139   ar
    88   141   143   ar
    89   138   139    1
    90   138   135    1
    91    90    92   ar
    92    90    89    1
    93   130   127    1
    94   139   140   ar
    95   143   142   ar
    96    82    85   am
    97    82    83    2
    98   121   120    2
    99    85    86    1
   100   120   119    1
   101   123   122    1
   102   123   124   ar
   103   119   122    1
   104   119   118    1
   105   116   115    2
   106   140   142   ar
   107   128   127    1
   108   128   134   am
   109    89    86    1
   110   135   134    1
   111   135   136    1
   112   127   126    1
   113    86    87    1
   114   115   118   am
   115   115   114    1
   116   110   109    2
   117   136   137    2
   118   117   114    1
   119    87    96   am
   120    87    88    2
   121    96    97    1
   122   148   149    1
   123   148   145    1
   124   149   150    1
   125   114   113    1
   126   150   144    1
   127   109   113   am
   128   109   108    1
   129   146   145    1
   130   146   147    2
   131   144   145    1
   132    97    98    1
   133   108   111    1
   134   108   107    1
   135   103   102    2
   136   111   112    1
   137    98    99    2
   138   102   107   am
   139   102   101    1
   140   105   104    1
   141   101   104    1
   142   101   100    1
   143   104   106    1
