@<TRIPOS>MOLECULE
tmp/3uh2B01.pdb
 123 122 0 0 0
SMALL
GASTEIGER

@<TRIPOS>ATOM
      1  N        -47.4690    8.0570   32.2750 N.3    80  HIS80      -0.1241
      2  CA       -47.6980    6.8880   31.4270 C.3    80  HIS80       0.1621
      3  C        -48.9440    6.1700   31.8910 C.2    80  HIS80       0.2264
      4  O        -49.0020    5.7550   33.0430 O.2    80  HIS80      -0.2867
      5  CB       -46.4980    5.8970   31.4130 C.3    80  HIS80       0.0745
      6  CG       -46.6910    4.7720   30.4490 C.ar   80  HIS80       0.0817
      7  ND1      -46.4250    4.9280   29.1100 N.ar   80  HIS80      -0.2268
      8  CD2      -47.1940    3.5280   30.6510 C.ar   80  HIS80       0.1154
      9  CE1      -46.7390    3.7810   28.5360 C.ar   80  HIS80       0.1986
     10  NE2      -47.2060    2.9080   29.4210 N.ar   80  HIS80      -0.2212
     11  N        -51.4990    2.8610   31.1560 N.3    82  SER82      -0.1217
     12  CA       -51.4550    1.5360   30.5460 C.3    82  SER82       0.1889
     13  C        -52.3730    0.5660   31.2710 C.2    82  SER82       0.2288
     14  O        -52.3810    0.5940   32.4890 O.2    82  SER82      -0.2866
     15  CB       -50.0370    0.9750   30.6650 C.3    82  SER82       0.2089
     16  OG       -49.9390   -0.3420   30.1490 O.3    82  SER82      -0.2183
     17  N        -51.4740   -2.3460   31.6330 N.3    84  PHE84      -0.1241
     18  CA       -50.4220   -3.2410   32.1220 C.3    84  PHE84       0.1605
     19  C        -49.5490   -2.6500   33.2320 C.2    84  PHE84       0.2264
     20  O        -48.3860   -3.0410   33.3780 O.2    84  PHE84      -0.2867
     21  CB       -49.6030   -3.7830   30.9440 C.3    84  PHE84       0.0534
     22  CG       -50.5160   -4.2350   29.8210 C.ar   84  PHE84      -0.0203
     23  CD1      -51.3310   -5.3570   29.9730 C.ar   84  PHE84      -0.0042
     24  CD2      -50.6220   -3.4940   28.6460 C.ar   84  PHE84      -0.0042
     25  CE1      -52.2010   -5.7510   28.9500 C.ar   84  PHE84      -0.0003
     26  CE2      -51.4960   -3.8820   27.6320 C.ar   84  PHE84      -0.0003
     27  CZ       -52.2860   -5.0010   27.7940 C.ar   84  PHE84      -0.0000
     28  N        -47.7410   -5.3390   35.5160 N.3    87  ALA87      -0.1231
     29  CA       -46.5280   -5.9080   34.9240 C.3    87  ALA87       0.1694
     30  C        -45.3870   -4.8790   34.9650 C.2    87  ALA87       0.2591
     31  O        -44.2490   -5.2390   35.2960 O.2    87  ALA87      -0.2718
     32  CB       -46.7940   -6.3010   33.4830 C.3    87  ALA87       0.0304
     33  N        -45.6900   -3.5990   34.6310 N.am   88  ILE88      -0.1980
     34  CA       -44.6680   -2.5440   34.6020 C.3    88  ILE88       0.1595
     35  C        -44.0230   -2.3350   35.9910 C.2    88  ILE88       0.2287
     36  O        -42.8050   -2.2070   36.0860 O.2    88  ILE88      -0.2864
     37  CB       -45.1970   -1.1990   33.9810 C.3    88  ILE88       0.0276
     38  CG1      -45.6110   -1.3680   32.5080 C.3    88  ILE88       0.0022
     39  CG2      -44.1550   -0.0710   34.1340 C.3    88  ILE88       0.0022
     40  CD1      -46.6010   -0.2520   31.9950 C.3    88  ILE88       0.0001
     41  N        -41.8800   -5.9070   36.7490 N.3    91  LYS91      -0.1231
     42  CA       -40.8290   -6.2780   35.7950 C.3    91  LYS91       0.1693
     43  C        -40.1860   -5.0610   35.0970 C.2    91  LYS91       0.2593
     44  O        -39.2110   -5.2210   34.3750 O.2    91  LYS91      -0.2718
     45  CB       -41.4050   -7.2060   34.7230 C.3    91  LYS91       0.0285
     46  CG       -42.1530   -8.4070   35.2240 C.3    91  LYS91       0.0035
     47  CD       -42.7430   -9.1680   34.0390 C.3    91  LYS91       0.0206
     48  CE       -43.6630  -10.3010   34.4170 C.3    91  LYS91       0.1093
     49  NZ       -44.8800  -10.3070   33.5590 N.3    91  LYS91      -0.1314
     50  N        -40.7510   -3.8730   35.2840 N.am   92  GLY92      -0.1942
     51  CA       -40.2500   -2.6650   34.6370 C.3    92  GLY92       0.2014
     52  C        -40.8090   -2.4880   33.2460 C.2    92  GLY92       0.2639
     53  O        -41.5240   -3.3530   32.7350 O.2    92  GLY92      -0.2714
     54  N        -40.4630   -1.3810   32.6080 N.am   93  PHE93      -0.1959
     55  CA       -40.9080   -1.1180   31.2450 C.3    93  PHE93       0.1771
     56  C        -40.2040   -2.0720   30.2790 C.2    93  PHE93       0.2619
     57  O        -39.0240   -2.3290   30.4420 O.2    93  PHE93      -0.2715
     58  CB       -40.6320    0.3360   30.8820 C.3    93  PHE93       0.0574
     59  CG       -41.6300    1.3040   31.4730 C.ar   93  PHE93      -0.0200
     60  CD1      -42.8880    1.4710   30.8990 C.ar   93  PHE93      -0.0042
     61  CD2      -41.2990    2.0790   32.5760 C.ar   93  PHE93      -0.0042
     62  CE1      -43.7990    2.3950   31.4260 C.ar   93  PHE93      -0.0003
     63  CE2      -42.2160    3.0010   33.1030 C.ar   93  PHE93      -0.0003
     64  CZ       -43.4500    3.1580   32.5130 C.ar   93  PHE93      -0.0000
     65  N        -40.9320   -2.6290   29.3300 N.am   94  ASP94      -0.1971
     66  CA       -40.4060   -3.5920   28.3690 C.3    94  ASP94       0.1709
     67  C        -40.8440   -3.2100   26.9440 C.2    94  ASP94       0.2293
     68  O        -42.0150   -3.3460   26.5780 O.2    94  ASP94      -0.2864
     69  CB       -40.8890   -5.0100   28.7640 C.3    94  ASP94       0.1436
     70  CG       -40.3050   -6.1750   27.9860 C.2    94  ASP94       0.3671
     71  OD1      -39.4860   -5.9350   27.0650 O.co2  94  ASP94      -0.2456
     72  OD2      -40.6390   -7.3220   28.3150 O.co2  94  ASP94      -0.2456
     73  N        -42.9170   -5.3110   24.0610 N.3    97  HIS97      -0.1226
     74  CA       -44.3510   -5.2250   23.9280 C.3    97  HIS97       0.1752
     75  C        -44.7830   -4.1170   22.9240 C.2    97  HIS97       0.2596
     76  O        -45.9710   -3.9890   22.6340 O.2    97  HIS97      -0.2718
     77  CB       -44.9900   -5.0810   25.3000 C.3    97  HIS97       0.0759
     78  CG       -44.9730   -6.3550   26.0970 C.ar   97  HIS97       0.0818
     79  ND1      -45.8030   -7.4180   25.7810 N.ar   97  HIS97      -0.2268
     80  CD2      -44.2430   -6.6890   27.1830 C.ar   97  HIS97       0.1154
     81  CE1      -45.5150   -8.3740   26.6510 C.ar   97  HIS97       0.1986
     82  NE2      -44.5950   -7.9780   27.5180 N.ar   97  HIS97      -0.2212
     83  N        -43.8160   -3.3540   22.3660 N.am   98  ALA98      -0.1966
     84  CA       -44.0880   -2.3010   21.3780 C.3    98  ALA98       0.1728
     85  C        -43.7270   -2.7970   19.9610 C.2    98  ALA98       0.2616
     86  O        -42.5950   -3.2210   19.7050 O.2    98  ALA98      -0.2715
     87  CB       -43.3160   -1.0310   21.7270 C.3    98  ALA98       0.0334
     88  N        -44.7130   -2.7770   19.0560 N.am   99  TYR99      -0.1974
     89  CA       -44.5720   -3.2350   17.6780 C.3    99  TYR99       0.1639
     90  C        -44.7110   -2.0960   16.6870 C.2    99  TYR99       0.2290
     91  O        -43.9100   -2.0110   15.7610 O.2    99  TYR99      -0.2864
     92  CB       -45.5940   -4.3270   17.3840 C.3    99  TYR99       0.0560
     93  CG       -45.5720   -5.4740   18.3680 C.ar   99  TYR99      -0.0198
     94  CD1      -46.2990   -5.4140   19.5580 C.ar   99  TYR99      -0.0009
     95  CD2      -44.8700   -6.6430   18.0880 C.ar   99  TYR99      -0.0009
     96  CE1      -46.2860   -6.4700   20.4670 C.ar   99  TYR99       0.0417
     97  CE2      -44.8630   -7.7120   18.9810 C.ar   99  TYR99       0.0417
     98  CZ       -45.5770   -7.6220   20.1650 C.ar   99  TYR99       0.1957
     99  OH       -45.6240   -8.6900   21.0150 O.3    99  TYR99      -0.2866
    100  N        -41.8800    2.2510   20.3160 N.3   105  GLY105     -0.1210
    101  CA       -41.3560    2.7340   21.5760 C.3   105  GLY105      0.1956
    102  C        -42.3980    2.7040   22.6690 C.2   105  GLY105      0.2612
    103  O        -43.5070    2.2160   22.4580 O.2   105  GLY105     -0.2717
    104  N        -42.0360    3.2290   23.8230 N.am  106  ILE106     -0.1965
    105  CA       -42.9000    3.3860   25.0090 C.3   106  ILE106      0.1727
    106  C        -43.1220    4.8830   25.0860 C.2   106  ILE106      0.2616
    107  O        -42.1610    5.6540   25.1070 O.2   106  ILE106     -0.2715
    108  CB       -42.2460    2.8420   26.2990 C.3   106  ILE106      0.0290
    109  CG1      -41.7280    1.4100   26.0620 C.3   106  ILE106      0.0022
    110  CG2      -43.2370    2.9470   27.4940 C.3   106  ILE106      0.0023
    111  CD1      -40.8140    0.8320   27.0920 C.3   106  ILE106      0.0001
    112  N        -44.3820    5.2620   25.1190 N.am  107  TYR107     -0.1974
    113  CA       -44.8930    6.6250   25.0200 C.3   107  TYR107      0.1639
    114  C        -45.2400    7.2400   26.3500 C.2   107  TYR107      0.2290
    115  O        -45.8930    6.5980   27.2020 O.2   107  TYR107     -0.2864
    116  CB       -46.1210    6.6370   24.0890 C.3   107  TYR107      0.0560
    117  CG       -45.8050    6.3220   22.6470 C.ar  107  TYR107     -0.0198
    118  CD1      -45.9500    7.2850   21.6530 C.ar  107  TYR107     -0.0009
    119  CD2      -45.3920    5.0480   22.2630 C.ar  107  TYR107     -0.0009
    120  CE1      -45.6370    6.9990   20.3190 C.ar  107  TYR107      0.0417
    121  CE2      -45.0480    4.7650   20.9420 C.ar  107  TYR107      0.0417
    122  CZ       -45.1960    5.7300   19.9720 C.ar  107  TYR107      0.1957
    123  OH       -44.8430    5.4310   18.6790 O.3   107  TYR107     -0.2866
@<TRIPOS>BOND
     1    91    90    2
     2    90    89    1
     3    92    89    1
     4    92    93    1
     5    89    88    1
     6    95    93   ar
     7    95    97   ar
     8    93    94   ar
     9   123   122    1
    10    97    98   ar
    11    88    85   am
    12    94    96   ar
    13    86    85    2
    14    85    84    1
    15   122   120   ar
    16   122   121   ar
    17    98    96   ar
    18    98    99    1
    19   100   101    1
    20   120   118   ar
    21   121   119   ar
    22    84    87    1
    23    84    83    1
    24   101   102    1
    25   118   117   ar
    26   119   117   ar
    27    83    75   am
    28   103   102    2
    29    76    75    2
    30   117   116    1
    31   102   104   am
    32    75    74    1
    33   104   105    1
    34    74    73    1
    35    74    77    1
    36   116   113    1
    37   105   106    1
    38   105   108    1
    39   113   112    1
    40   113   114    1
    41   106   107    2
    42   106   112   am
    43    77    78    1
    44    79    78   ar
    45    79    81   ar
    46   109   108    1
    47   109   111    1
    48    78    80   ar
    49   108   110    1
    50   114   115    2
    51    68    67    2
    52    81    82   ar
    53    67    66    1
    54    71    70   ar
    55    80    82   ar
    56    26    27   ar
    57    26    24   ar
    58    27    25   ar
    59    70    72   ar
    60    70    69    1
    61    66    69    1
    62    66    65    1
    63     9     7   ar
    64     9    10   ar
    65    24    22   ar
    66    25    23   ar
    67     7     6   ar
    68    65    56   am
    69    10     8   ar
    70    22    23   ar
    71    22    21    1
    72    16    15    1
    73    56    57    2
    74    56    55    1
    75     6     8   ar
    76     6     5    1
    77    12    15    1
    78    12    11    1
    79    12    13    1
    80    58    55    1
    81    58    59    1
    82    60    62   ar
    83    60    59   ar
    84    21    18    1
    85    55    54    1
    86    13    14    2
    87     5     2    1
    88    62    64   ar
    89     2     3    1
    90     2     1    1
    91    59    61   ar
    92    17    18    1
    93     3     4    2
    94    40    38    1
    95    18    19    1
    96    38    37    1
    97    64    63   ar
    98    61    63   ar
    99    54    52   am
   100    53    52    2
   101    19    20    2
   102    52    51    1
   103    32    29    1
   104    49    48    1
   105    37    39    1
   106    37    34    1
   107    47    48    1
   108    47    46    1
   109    44    43    2
   110    34    33    1
   111    34    35    1
   112    33    30   am
   113    51    50    1
   114    45    46    1
   115    45    42    1
   116    29    30    1
   117    29    28    1
   118    30    31    2
   119    43    50   am
   120    43    42    1
   121    42    41    1
   122    35    36    2
