@<TRIPOS>MOLECULE
tmp/3uhaA00.pdb
 214 205 0 0 0
SMALL
GASTEIGER

@<TRIPOS>ATOM
      1  N         21.1610   13.4010   25.9330 N.3   128  ARG128     -0.1245
      2  CA        20.0160   13.1210   25.0730 C.3   128  ARG128      0.1563
      3  C         20.4240   12.1920   23.9420 C.2   128  ARG128      0.2260
      4  O         21.4070   12.4230   23.2720 O.2   128  ARG128     -0.2867
      5  CB        19.3700   14.3930   24.5280 C.3   128  ARG128      0.0307
      6  CG        18.1490   14.1730   23.5690 C.3   128  ARG128      0.0489
      7  CD        17.1270   15.3070   23.7460 C.3   128  ARG128      0.2205
      8  NE        15.8430   15.1990   23.0160 N.pl3 128  ARG128     -0.0865
      9  CZ        14.7030   14.6890   23.5050 C.cat 128  ARG128      0.5346
     10  NH1       14.6710   14.1520   24.7350 N.pl3 128  ARG128      0.1354
     11  NH2       13.5890   14.6970   22.7540 N.pl3 128  ARG128      0.1354
     12  N         16.3040    8.1900   18.1690 N.3   132  ALA132     -0.1231
     13  CA        15.2320    7.3810   18.7380 C.3   132  ALA132      0.1694
     14  C         14.0430    7.2580   17.7530 C.2   132  ALA132      0.2592
     15  O         14.0460    7.8730   16.6630 O.2   132  ALA132     -0.2718
     16  CB        14.8030    7.9930   20.0740 C.3   132  ALA132      0.0304
     17  N         13.0510    6.4600   18.1260 N.am  133  PHE133     -0.1962
     18  CA        11.8730    6.1750   17.3150 C.3   133  PHE133      0.1771
     19  C         10.5930    6.9150   17.7210 C.2   133  PHE133      0.2620
     20  O          9.4940    6.6520   17.1570 O.2   133  PHE133     -0.2715
     21  CB        11.6290    4.6660   17.3090 C.3   133  PHE133      0.0574
     22  CG        12.4820    3.9510   16.3180 C.ar  133  PHE133     -0.0200
     23  CD1       13.5630    3.1710   16.7290 C.ar  133  PHE133     -0.0042
     24  CD2       12.2540    4.1120   14.9710 C.ar  133  PHE133     -0.0042
     25  CE1       14.3640    2.5700   15.8080 C.ar  133  PHE133     -0.0003
     26  CE2       13.0800    3.5200   14.0220 C.ar  133  PHE133     -0.0003
     27  CZ        14.1150    2.7430   14.4290 C.ar  133  PHE133     -0.0000
     28  N         10.7580    7.8490   18.6540 N.am  134  GLY134     -0.1954
     29  CA         9.7310    8.7300   19.1230 C.3   134  GLY134      0.1869
     30  C          8.6860    9.3110   18.1760 C.2   134  GLY134      0.2309
     31  O          7.5030    9.0280   18.3110 O.2   134  GLY134     -0.2863
     32  N          6.2820    6.6890   16.7510 N.3   137  ALA137     -0.1301
     33  CA         5.4390    6.0450   17.7800 C.3   137  ALA137      0.1247
     34  C          4.2460    6.9400   18.1330 C.3   137  ALA137      0.2009
     35  O          3.0840    6.4510   18.3890 O.3   137  ALA137     -0.2188
     36  CB         6.2310    5.7480   19.0320 C.3   137  ALA137      0.0233
     37  N         -0.1130   15.0620   26.7200 N.3   197  ILE197     -0.1231
     38  CA         0.8100   15.4790   27.7990 C.3   197  ILE197      0.1692
     39  C          2.1730   15.0030   27.4030 C.2   197  ILE197      0.2592
     40  O          2.3260   13.8650   27.0010 O.2   197  ILE197     -0.2718
     41  CB         0.3630   14.9340   29.1530 C.3   197  ILE197      0.0266
     42  CG1       -1.0100   15.5300   29.4980 C.3   197  ILE197      0.0019
     43  CG2        1.3560   15.2410   30.2350 C.3   197  ILE197      0.0020
     44  CD1       -1.6280   15.0710   30.8000 C.3   197  ILE197      0.0001
     45  N          3.1520   15.8930   27.4550 N.am  198  GLY198     -0.1957
     46  CA         4.4270   15.6890   26.8000 C.3   198  GLY198      0.1869
     47  C          4.4810   16.1070   25.3300 C.2   198  GLY198      0.2309
     48  O          5.2880   15.5530   24.5700 O.2   198  GLY198     -0.2863
     49  N          5.7780   18.5020   23.5820 N.3   200  LEU200     -0.1231
     50  CA         6.9600   19.1060   22.9670 C.3   200  LEU200      0.1693
     51  C          8.0710   18.1210   22.5550 C.2   200  LEU200      0.2593
     52  O          9.0100   18.5270   21.8640 O.2   200  LEU200     -0.2718
     53  CB         7.5540   20.1880   23.8610 C.3   200  LEU200      0.0284
     54  CG         6.6450   21.3670   24.1550 C.3   200  LEU200      0.0019
     55  CD1        7.4520   22.3070   25.0590 C.3   200  LEU200      0.0001
     56  CD2        6.0890   22.0630   22.8960 C.3   200  LEU200      0.0001
     57  N          7.9830   16.8610   22.9960 N.am  201  GLY201     -0.1942
     58  CA         8.9830   15.8610   22.6360 C.3   201  GLY201      0.2014
     59  C          8.7890   15.3190   21.2280 C.2   201  GLY201      0.2639
     60  O          7.9500   15.7830   20.4700 O.2   201  GLY201     -0.2714
     61  N          9.5630   14.3060   20.9060 N.am  202  ARG202     -0.1963
     62  CA         9.4630   13.5860   19.6370 C.3   202  ARG202      0.1729
     63  C          8.0930   12.9160   19.3930 C.2   202  ARG202      0.2617
     64  O          7.4750   13.1270   18.3390 O.2   202  ARG202     -0.2715
     65  CB        10.5650   12.5350   19.5740 C.3   202  ARG202      0.0348
     66  CG        11.9810   13.0380   19.5780 C.3   202  ARG202      0.0492
     67  CD        12.9650   11.8120   19.5700 C.3   202  ARG202      0.2205
     68  NE        13.2170   11.2940   20.9120 N.pl3 202  ARG202     -0.0865
     69  CZ        14.3680   11.3980   21.5840 C.cat 202  ARG202      0.5346
     70  NH1       14.4410   10.8870   22.7970 N.pl3 202  ARG202      0.1354
     71  NH2       15.4510   11.9710   21.0530 N.pl3 202  ARG202      0.1354
     72  N          7.6110   12.1060   20.3300 N.am  203  SER203     -0.1936
     73  CA         6.3520   11.4140   20.0950 C.3   203  SER203      0.2055
     74  C          5.1880   12.4230   20.0750 C.2   203  SER203      0.2643
     75  O          4.3670   12.4130   19.1570 O.2   203  SER203     -0.2714
     76  CB         6.1320   10.2580   21.0700 C.3   203  SER203      0.2130
     77  OG         5.9690   10.6900   22.4090 O.3   203  SER203     -0.2179
     78  N          5.1530   13.3350   21.0460 N.am  204  GLY204     -0.1954
     79  CA         4.1620   14.4160   21.0990 C.3   204  GLY204      0.1869
     80  C          4.1240   15.0650   19.7440 C.2   204  GLY204      0.2309
     81  O          3.0470   15.2720   19.1640 O.2   204  GLY204     -0.2863
     82  N          3.0820   20.3090   28.1980 N.3   225  ASP225     -0.1225
     83  CA         4.3660   19.7450   28.6020 C.3   225  ASP225      0.1805
     84  C          4.5630   20.0680   30.0860 C.2   225  ASP225      0.2597
     85  O          3.5920   20.1640   30.8020 O.2   225  ASP225     -0.2718
     86  CB         5.5090   20.2920   27.7420 C.3   225  ASP225      0.1424
     87  CG         6.6700   19.2700   27.5460 C.2   225  ASP225      0.3668
     88  OD1        7.6930   19.3530   28.2730 O.co2 225  ASP225     -0.2456
     89  OD2        6.5580   18.4050   26.6480 O.co2 225  ASP225     -0.2456
     90  N          5.8120   20.2060   30.5410 N.am  226  ILE226     -0.1980
     91  CA         6.1300   20.3440   31.9840 C.3   226  ILE226      0.1595
     92  C          5.3510   21.4320   32.7350 C.2   226  ILE226      0.2287
     93  O          4.8130   21.1930   33.8240 O.2   226  ILE226     -0.2864
     94  CB         7.6820   20.6450   32.2440 C.3   226  ILE226      0.0276
     95  CG1        8.5860   19.5760   31.6660 C.3   226  ILE226      0.0022
     96  CG2        7.9830   20.7780   33.7600 C.3   226  ILE226      0.0022
     97  CD1        8.5230   18.3020   32.3920 C.3   226  ILE226      0.0001
     98  N          1.5710   20.5780   33.6680 N.3   229  THR229     -0.1218
     99  CA         1.3020   19.6150   34.7480 C.3   229  THR229      0.1862
    100  C          1.9400   19.9310   36.1080 C.2   229  THR229      0.2287
    101  O          1.7450   19.1920   37.0800 O.2   229  THR229     -0.2866
    102  CB         1.6960   18.1520   34.3670 C.3   229  THR229      0.1770
    103  OG1        3.0960   18.0590   34.1540 O.3   229  THR229     -0.2211
    104  CG2        0.9560   17.6980   33.1350 C.3   229  THR229      0.0375
    105  N          2.4290   11.0490   26.0520 N.3   247  CYS247     -0.1221
    106  CA         3.7920   10.9970   25.5170 C.3   247  CYS247      0.1808
    107  C          4.5290   11.5160   26.7160 C.2   247  CYS247      0.2601
    108  O          3.8820   11.8410   27.6760 O.2   247  CYS247     -0.2717
    109  CB         3.8980   11.9380   24.3300 C.3   247  CYS247      0.0970
    110  SG         2.6750   11.4390   22.9990 S.3   247  CYS247     -0.0800
    111  N          5.8250   11.6220   26.7770 N.am  248  ILE248     -0.1965
    112  CA         6.3370   11.8840   28.1490 C.3   248  ILE248      0.1727
    113  C          7.3640   10.8260   28.3810 C.2   248  ILE248      0.2616
    114  O          7.1200    9.6550   28.0800 O.2   248  ILE248     -0.2715
    115  CB         5.3020   11.5590   29.2230 C.3   248  ILE248      0.0290
    116  CG1        4.9180   12.7040   30.1050 C.3   248  ILE248      0.0022
    117  CG2        5.8400   10.5610   30.2780 C.3   248  ILE248      0.0023
    118  CD1        4.5240   12.0990   31.4820 C.3   248  ILE248      0.0001
    119  N          8.4960   11.2410   28.9300 N.am  249  TYR249     -0.1960
    120  CA         9.4910   10.3100   29.4000 C.3   249  TYR249      0.1771
    121  C          9.4450   10.4550   30.9090 C.2   249  TYR249      0.2619
    122  O          9.8090   11.4970   31.4640 O.2   249  TYR249     -0.2715
    123  CB        10.8650   10.6210   28.7790 C.3   249  TYR249      0.0574
    124  CG        12.0500   10.0900   29.5580 C.ar  249  TYR249     -0.0198
    125  CD1       12.2980    8.7140   29.6500 C.ar  249  TYR249     -0.0009
    126  CD2       12.9300   10.9720   30.1970 C.ar  249  TYR249     -0.0009
    127  CE1       13.3800    8.2260   30.3750 C.ar  249  TYR249      0.0417
    128  CE2       14.0160   10.4920   30.9320 C.ar  249  TYR249      0.0417
    129  CZ        14.2310    9.1170   31.0140 C.ar  249  TYR249      0.1957
    130  OH        15.2950    8.6430   31.7470 O.3   249  TYR249     -0.2866
    131  N          8.9400    9.4170   31.5610 N.am  250  LEU250     -0.1977
    132  CA         8.8260    9.4200   33.0100 C.3   250  LEU250      0.1596
    133  C         10.2000    9.1610   33.6840 C.2   250  LEU250      0.2287
    134  O         10.8660    8.1590   33.3700 O.2   250  LEU250     -0.2864
    135  CB         7.7810    8.3740   33.4060 C.3   250  LEU250      0.0297
    136  CG         7.5950    7.6730   34.7500 C.3   250  LEU250      0.0022
    137  CD1        7.3100    8.6220   35.8940 C.3   250  LEU250      0.0001
    138  CD2        6.4380    6.6890   34.5900 C.3   250  LEU250      0.0001
    139  N          6.2320   11.7170   40.5970 N.3   254  ILE254     -0.1245
    140  CA         5.0400   12.3370   39.9390 C.3   254  ILE254      0.1561
    141  C          3.6510   11.7890   40.3690 C.2   254  ILE254      0.2260
    142  O          3.4300   10.5880   40.3820 O.2   254  ILE254     -0.2867
    143  CB         5.1950   12.3100   38.3610 C.3   254  ILE254      0.0252
    144  CG1        6.0550   13.4800   37.8800 C.3   254  ILE254      0.0019
    145  CG2        3.8640   12.2600   37.6350 C.3   254  ILE254      0.0019
    146  CD1        6.5930   13.2950   36.4280 C.3   254  ILE254      0.0001
    147  N         -2.0840   11.4070   36.6750 N.3   257  PHE257     -0.1241
    148  CA        -2.7600   12.3140   35.7650 C.3   257  PHE257      0.1605
    149  C         -4.3030   12.2050   35.9000 C.2   257  PHE257      0.2264
    150  O         -5.0070   13.2070   35.7290 O.2   257  PHE257     -0.2867
    151  CB        -2.3170   11.9990   34.3210 C.3   257  PHE257      0.0534
    152  CG        -0.8650   12.3660   34.0010 C.ar  257  PHE257     -0.0203
    153  CD1       -0.1670   13.3060   34.7400 C.ar  257  PHE257     -0.0042
    154  CD2       -0.2290   11.7930   32.9200 C.ar  257  PHE257     -0.0042
    155  CE1        1.1380   13.6540   34.4270 C.ar  257  PHE257     -0.0003
    156  CE2        1.0700   12.1160   32.5880 C.ar  257  PHE257     -0.0003
    157  CZ         1.7550   13.0540   33.3300 C.ar  257  PHE257     -0.0000
    158  N          1.5110    6.2090   24.8510 N.3   276  VAL276     -0.1231
    159  CA         2.7380    6.0460   24.1450 C.3   276  VAL276      0.1692
    160  C          3.8690    5.7220   25.1440 C.2   276  VAL276      0.2593
    161  O          4.6610    4.8300   24.8750 O.2   276  VAL276     -0.2718
    162  CB         3.0780    7.2930   23.2770 C.3   276  VAL276      0.0266
    163  CG1        4.4060    7.0950   22.5210 C.3   276  VAL276      0.0020
    164  CG2        1.9520    7.5690   22.2900 C.3   276  VAL276      0.0020
    165  N          3.9610    6.4160   26.2780 N.am  277  SER277     -0.1938
    166  CA         4.9580    6.0240   27.2820 C.3   277  SER277      0.2055
    167  C          4.9340    4.5290   27.6320 C.2   277  SER277      0.2643
    168  O          5.9960    3.9000   27.7540 O.2   277  SER277     -0.2714
    169  CB         4.7700    6.7870   28.5850 C.3   277  SER277      0.2130
    170  OG         5.1090    8.1380   28.4290 O.3   277  SER277     -0.2179
    171  N          3.7420    3.9650   27.8370 N.am  278  ALA278     -0.1963
    172  CA         3.6100    2.5230   28.1050 C.3   278  ALA278      0.1728
    173  C          4.5570    2.0520   29.2190 C.2   278  ALA278      0.2616
    174  O          5.2130    1.0250   29.0790 O.2   278  ALA278     -0.2715
    175  CB         3.8510    1.7420   26.8310 C.3   278  ALA278      0.0334
    176  N          4.6220    2.8410   30.3060 N.am  279  ASP279     -0.1971
    177  CA         5.3980    2.5420   31.5300 C.3   279  ASP279      0.1709
    178  C          4.4930    1.7950   32.5420 C.2   279  ASP279      0.2293
    179  O          4.3690    2.2050   33.7050 O.2   279  ASP279     -0.2864
    180  CB         5.9180    3.8470   32.1970 C.3   279  ASP279      0.1436
    181  CG         7.0840    4.5490   31.4070 C.2   279  ASP279      0.3671
    182  OD1        8.1020    3.8690   31.0790 O.co2 279  ASP279     -0.2456
    183  OD2        6.9870    5.8000   31.1460 O.co2 279  ASP279     -0.2456
    184  N          0.2950   -0.1630   23.1430 N.3   316  ILE316     -0.1231
    185  CA         1.2840   -0.8880   22.3240 C.3   316  ILE316      0.1692
    186  C          2.6930   -0.3220   22.5730 C.2   316  ILE316      0.2592
    187  O          2.8860    0.8940   22.5280 O.2   316  ILE316     -0.2718
    188  CB         0.8870   -0.8370   20.8490 C.3   316  ILE316      0.0266
    189  CG1       -0.4860   -1.5080   20.6670 C.3   316  ILE316      0.0019
    190  CG2        1.9560   -1.4480   19.9640 C.3   316  ILE316      0.0020
    191  CD1       -1.1130   -1.4310   19.2860 C.3   316  ILE316      0.0001
    192  N          3.6500   -1.2020   22.8850 N.am  317  ASP317     -0.1974
    193  CA         5.0590   -0.8430   23.1650 C.3   317  ASP317      0.1709
    194  C          5.9000   -0.9030   21.8690 C.2   317  ASP317      0.2293
    195  O          7.1160   -0.7840   21.9160 O.2   317  ASP317     -0.2864
    196  CB         5.6970   -1.7230   24.2910 C.3   317  ASP317      0.1436
    197  CG         6.2110   -3.1560   23.7790 C.2   317  ASP317      0.3671
    198  OD1        6.0860   -3.5050   22.5600 O.co2 317  ASP317     -0.2456
    199  OD2        6.7470   -3.9600   24.6070 O.co2 317  ASP317     -0.2456
    200  N          4.9390    0.9130   18.7250 N.3   319  LEU319     -0.1231
    201  CA         4.1080    1.6710   17.8260 C.3   319  LEU319      0.1678
    202  C          4.7670    2.0240   16.5020 C.2   319  LEU319      0.2434
    203  O          4.0620    2.0530   15.5370 O.2   319  LEU319     -0.2733
    204  CB         3.5500    2.9380   18.4980 C.3   319  LEU319      0.0284
    205  CG         2.4120    2.6410   19.4230 C.3   319  LEU319      0.0019
    206  CD1        2.2210    3.8190   20.3890 C.3   319  LEU319      0.0001
    207  CD2        1.1520    2.2870   18.6280 C.3   319  LEU319      0.0001
    208  N          6.1040    2.3130   16.4650 N.am  320  PRO320     -0.2729
    209  CA         6.7150    2.7640   15.2060 C.3   320  PRO320      0.1401
    210  C          6.7430    1.7100   14.1210 C.2   320  PRO320      0.2269
    211  O          6.8170    2.0600   12.9500 O.2   320  PRO320     -0.2865
    212  CB         8.1490    3.1420   15.6080 C.3   320  PRO320      0.0296
    213  CG         8.2270    3.1700   17.0160 C.3   320  PRO320      0.0237
    214  CD         7.1220    2.2930   17.5440 C.3   320  PRO320      0.0939
@<TRIPOS>BOND
     1   211   210    2
     2    26    27   ar
     3    26    24   ar
     4   210   209    1
     5    27    25   ar
     6    24    22   ar
     7   209   212    1
     8   209   208    1
     9   203   202    2
    10   212   213    1
    11    25    23   ar
    12    22    23   ar
    13    22    21    1
    14   208   202   am
    15   208   214    1
    16   202   201    1
    17    15    14    2
    18    32    33    1
    19   213   214    1
    20    20    19    2
    21    21    18    1
    22    18    19    1
    23    18    17    1
    24    19    28   am
    25    14    17   am
    26    14    13    1
    27    33    34    1
    28    33    36    1
    29   201   204    1
    30   201   200    1
    31    34    35    1
    32    12    13    1
    33    30    31    2
    34    30    29    1
    35    64    63    2
    36   204   205    1
    37   207   205    1
    38    28    29    1
    39    13    16    1
    40    75    74    2
    41    81    80    2
    42   191   189    1
    43    63    62    1
    44    63    72   am
    45   205   206    1
    46    67    66    1
    47    67    68    1
    48    65    66    1
    49    65    62    1
    50    62    61    1
    51    80    79    1
    52   190   188    1
    53    74    73    1
    54    74    78   am
    55    73    72    1
    56    73    76    1
    57    60    59    2
    58   189   188    1
    59   188   185    1
    60    61    59   am
    61    68    69    2
    62    78    79    1
    63    71    69    1
    64    76    77    1
    65    59    58    1
    66    69    70    1
    67    52    51    2
    68   194   195    2
    69   194   193    1
    70   164   162    1
    71   185   186    1
    72   185   184    1
    73   163   162    1
    74   187   186    2
    75    51    50    1
    76    51    57   am
    77   198   197   ar
    78   186   192   am
    79    58    57    1
    80    11     9    1
    81   192   193    1
    82    56    54    1
    83    50    49    1
    84    50    53    1
    85   110   109    1
    86     8     9    2
    87     8     7    1
    88   193   196    1
    89     4     3    2
    90   162   159    1
    91     9    10    1
    92     6     7    1
    93     6     5    1
    94   197   196    1
    95   197   199   ar
    96    53    54    1
    97     3     2    1
    98   159   158    1
    99   159   160    1
   100    54    55    1
   101   109   106    1
   102     5     2    1
   103    48    47    2
   104   161   160    2
   105     2     1    1
   106   160   165   am
   107    47    46    1
   108   106   105    1
   109   106   107    1
   110   165   166    1
   111    89    87   ar
   112   107   111   am
   113   107   108    2
   114    37    38    1
   115   111   112    1
   116    46    45    1
   117   175   172    1
   118    40    39    2
   119   166   167    1
   120   166   169    1
   121    39    45   am
   122    39    38    1
   123    87    86    1
   124    87    88   ar
   125   167   168    2
   126   167   171   am
   127    86    83    1
   128    38    41    1
   129   171   172    1
   130   114   113    2
   131   172   173    1
   132   112   113    1
   133   112   115    1
   134    82    83    1
   135   113   119   am
   136   170   169    1
   137    83    84    1
   138   123   120    1
   139   123   124    1
   140   119   120    1
   141   174   173    2
   142    41    42    1
   143    41    43    1
   144   173   176   am
   145   115   116    1
   146   115   117    1
   147   120   121    1
   148    42    44    1
   149   124   125   ar
   150   124   126   ar
   151   125   127   ar
   152    84    90   am
   153    84    85    2
   154   116   118    1
   155   126   128   ar
   156   176   177    1
   157   127   129   ar
   158    90    91    1
   159   121   122    2
   160   121   131   am
   161   128   129   ar
   162   129   130    1
   163   182   181   ar
   164   183   181   ar
   165   181   180    1
   166   177   180    1
   167   177   178    1
   168   131   132    1
   169    95    94    1
   170    95    97    1
   171    91    94    1
   172    91    92    1
   173    94    96    1
   174   178   179    2
   175   156   154   ar
   176   156   157   ar
   177    92    93    2
   178   154   152   ar
   179   132   135    1
   180   132   133    1
   181   104   102    1
   182   157   155   ar
   183   134   133    2
   184   135   136    1
   185    98    99    1
   186   152   151    1
   187   152   153   ar
   188   103   102    1
   189   151   148    1
   190   102    99    1
   191   155   153   ar
   192   138   136    1
   193    99   100    1
   194   136   137    1
   195   150   149    2
   196   148   149    1
   197   148   147    1
   198   100   101    2
   199   146   144    1
   200   145   143    1
   201   144   143    1
   202   143   140    1
   203   140   141    1
   204   140   139    1
   205   141   142    2
