@<TRIPOS>MOLECULE
tmp/3uhfA00.pdb
 114 110 0 0 0
SMALL
GASTEIGER

@<TRIPOS>ATOM
      1  N          9.4780   15.8950   28.7460 N.3    15  ASP15      -0.1225
      2  CA         9.4750   14.5500   29.2940 C.3    15  ASP15       0.1805
      3  C          8.9210   14.5670   30.7200 C.2    15  ASP15       0.2598
      4  O          8.8610   15.6170   31.3550 O.2    15  ASP15      -0.2718
      5  CB        10.8770   13.9450   29.2850 C.3    15  ASP15       0.1424
      6  CG        10.9020   12.5290   29.8490 C.2    15  ASP15       0.3668
      7  OD1       10.1540   11.6730   29.3270 O.co2  15  ASP15      -0.2456
      8  OD2       11.6430   12.2860   30.8230 O.co2  15  ASP15      -0.2456
      9  N          8.5030   13.4090   31.2090 N.am   16  SER16      -0.1952
     10  CA         8.0150   13.3060   32.5830 C.3    16  SER16       0.1924
     11  C          9.1140   13.6190   33.5870 C.2    16  SER16       0.2314
     12  O          8.8370   14.0510   34.7000 O.2    16  SER16      -0.2863
     13  CB         7.4550   11.9080   32.8500 C.3    16  SER16       0.2116
     14  OG         8.4670   10.9200   32.6910 O.3    16  SER16      -0.2180
     15  N          7.0230   12.9530   38.4210 N.3    45  VAL45      -0.1231
     16  CA         7.4710   11.7300   37.7520 C.3    45  VAL45       0.1678
     17  C          7.4210   10.5640   38.7730 C.2    45  VAL45       0.2434
     18  O          7.6410   10.7790   39.9750 O.2    45  VAL45      -0.2733
     19  CB         8.9100   11.9540   37.1940 C.3    45  VAL45       0.0265
     20  CG1        9.9310   12.0340   38.3280 C.3    45  VAL45       0.0020
     21  CG2        9.3230   10.8900   36.1470 C.3    45  VAL45       0.0020
     22  N          7.1000    9.3360   38.3240 N.am   46  PRO46      -0.2718
     23  CA         6.8220    8.8430   36.9740 C.3    46  PRO46       0.1535
     24  C          5.3670    8.9790   36.5490 C.2    46  PRO46       0.2599
     25  O          4.4770    9.0870   37.3920 O.2    46  PRO46      -0.2715
     26  CB         7.1500    7.3530   37.0970 C.3    46  PRO46       0.0310
     27  CG         6.6570    7.0180   38.4720 C.3    46  PRO46       0.0237
     28  CD         7.0480    8.2340   39.3110 C.3    46  PRO46       0.0939
     29  N          5.1490    8.9390   35.2400 N.am   47  TYR47      -0.1960
     30  CA         3.8110    8.9220   34.6430 C.3    47  TYR47       0.1771
     31  C          3.3880    7.4840   34.3100 C.2    47  TYR47       0.2620
     32  O          2.1970    7.1760   34.1990 O.2    47  TYR47      -0.2715
     33  CB         3.7910    9.7360   33.3290 C.3    47  TYR47       0.0574
     34  CG         3.8820   11.2530   33.4380 C.ar   47  TYR47      -0.0198
     35  CD1        4.1390   11.8850   34.6460 C.ar   47  TYR47      -0.0009
     36  CD2        3.6970   12.0570   32.3080 C.ar   47  TYR47      -0.0009
     37  CE1        4.2190   13.2790   34.7250 C.ar   47  TYR47       0.0417
     38  CE2        3.7780   13.4400   32.3790 C.ar   47  TYR47       0.0417
     39  CZ         4.0370   14.0500   33.5810 C.ar   47  TYR47       0.1957
     40  OH         4.1090   15.4300   33.6480 O.3    47  TYR47      -0.2866
     41  N          4.3780    6.6100   34.1600 N.am   48  GLY48      -0.1954
     42  CA         4.1690    5.2840   33.6030 C.3    48  GLY48       0.1869
     43  C          3.3410    4.3330   34.4430 C.2    48  GLY48       0.2309
     44  O          2.9150    3.2960   33.9550 O.2    48  GLY48      -0.2863
     45  N          8.6300   11.5730   25.8870 N.3    78  CYS78      -0.1221
     46  CA         8.0870   10.5610   26.7860 C.3    78  CYS78       0.1808
     47  C          7.1810    9.5890   26.0340 C.2    78  CYS78       0.2601
     48  O          6.2290   10.0140   25.3880 O.2    78  CYS78      -0.2717
     49  CB         7.2910   11.2600   27.8820 C.3    78  CYS78       0.0970
     50  SG         6.6130   10.1430   29.1290 S.3    78  CYS78      -0.0800
     51  N          7.4730    8.2930   26.1230 N.am   79  ASN79      -0.1960
     52  CA         6.6520    7.2980   25.4520 C.3    79  ASN79       0.1819
     53  C          5.2880    7.2020   26.1120 C.2    79  ASN79       0.2621
     54  O          4.2920    6.9290   25.4450 O.2    79  ASN79      -0.2715
     55  CB         7.3320    5.9260   25.4580 C.3    79  ASN79       0.1195
     56  CG         8.6860    5.9470   24.7580 C.2    79  ASN79       0.2630
     57  OD1        9.6660    6.4490   25.3020 O.2    79  ASN79      -0.2716
     58  ND2        8.7390    5.4000   23.5430 N.am   79  ASN79      -0.0877
     59  N          5.2470    7.4160   27.4270 N.am   80  THR80      -0.1951
     60  CA         3.9870    7.3310   28.1560 C.3    80  THR80       0.1897
     61  C          3.0730    8.4810   27.7590 C.2    80  THR80       0.2313
     62  O          1.9030    8.2690   27.4160 O.2    80  THR80      -0.2863
     63  CB         4.2100    7.3070   29.6890 C.3    80  THR80       0.1794
     64  OG1        4.9510    6.1280   30.0430 O.3    80  THR80      -0.2208
     65  CG2        2.8710    7.3000   30.4170 C.3    80  THR80       0.0378
     66  N          6.6020    1.1650   29.8770 N.3   124  THR124     -0.1218
     67  CA         5.8950    1.2810   31.1580 C.3   124  THR124      0.1862
     68  C          4.5500    0.5680   31.0720 C.2   124  THR124      0.2287
     69  O          4.0930    0.2520   29.9830 O.2   124  THR124     -0.2866
     70  CB         5.6050    2.7530   31.5230 C.3   124  THR124      0.1770
     71  OG1        4.7270    3.3270   30.5420 O.3   124  THR124     -0.2211
     72  CG2        6.9050    3.5720   31.6110 C.3   124  THR124      0.0375
     73  N          2.0660    2.6960   28.9850 N.3   127  THR127     -0.1218
     74  CA         2.3230    2.6320   27.5440 C.3   127  THR127      0.1862
     75  C          1.7980    1.3270   26.9490 C.2   127  THR127      0.2287
     76  O          1.1150    1.3380   25.9150 O.2   127  THR127     -0.2866
     77  CB         3.8140    2.8270   27.2280 C.3   127  THR127      0.1770
     78  OG1        4.2120    4.1350   27.6460 O.3   127  THR127     -0.2211
     79  CG2        4.0980    2.6700   25.6920 C.3   127  THR127      0.0375
     80  N         12.6360    1.5090   34.9930 N.3   154  VAL154     -0.1245
     81  CA        12.6610    2.9630   35.1560 C.3   154  VAL154      0.1561
     82  C         13.3840    3.3840   36.4440 C.2   154  VAL154      0.2260
     83  O         14.3830    4.1060   36.3770 O.2   154  VAL154     -0.2867
     84  CB        11.2400    3.6050   35.0620 C.3   154  VAL154      0.0252
     85  CG1       11.2600    5.0490   35.5850 C.3   154  VAL154      0.0019
     86  CG2       10.6960    3.5370   33.6200 C.3   154  VAL154      0.0019
     87  N         10.7710    1.1560   24.1800 N.3   187  ALA187     -0.1231
     88  CA         9.6480    2.0850   24.1550 C.3   187  ALA187      0.1694
     89  C          9.4940    2.8260   25.4760 C.2   187  ALA187      0.2592
     90  O          8.3820    2.9440   26.0120 O.2   187  ALA187     -0.2718
     91  CB         8.3510    1.3320   23.8040 C.3   187  ALA187      0.0304
     92  N         10.6090    3.3490   25.9820 N.am  188  CYS188     -0.1956
     93  CA        10.6160    4.1080   27.2340 C.3   188  CYS188      0.1843
     94  C         11.9050    4.9230   27.2620 C.2   188  CYS188      0.2626
     95  O         12.9730    4.4180   26.8830 O.2   188  CYS188     -0.2714
     96  CB        10.5630    3.1590   28.4250 C.3   188  CYS188      0.0997
     97  SG        10.7000    3.9660   30.0580 S.3   188  CYS188     -0.0797
     98  N         11.8050    6.1800   27.6870 N.am  189  THR189     -0.1936
     99  CA        12.9430    7.0970   27.6460 C.3   189  THR189      0.2028
    100  C         14.1650    6.5480   28.3930 C.2   189  THR189      0.2642
    101  O         15.3030    6.8350   28.0290 O.2   189  THR189     -0.2714
    102  CB        12.5890    8.4630   28.2760 C.3   189  THR189      0.1808
    103  OG1       12.0180    8.2530   29.5760 O.3   189  THR189     -0.2208
    104  CG2       11.6030    9.2240   27.4040 C.3   189  THR189      0.0379
    105  N         13.9230    5.7620   29.4420 N.am  190  HIS190     -0.1973
    106  CA        15.0170    5.3080   30.2960 C.3   190  HIS190      0.1656
    107  C         15.7780    4.1380   29.7060 C.2   190  HIS190      0.2291
    108  O         16.9050    3.8500   30.1150 O.2   190  HIS190     -0.2864
    109  CB        14.4880    4.8850   31.6820 C.3   190  HIS190      0.0771
    110  CG        13.9810    6.0230   32.5130 C.ar  190  HIS190      0.0820
    111  ND1       13.0580    6.9330   32.0470 N.ar  190  HIS190     -0.2267
    112  CD2       14.2450    6.3740   33.7980 C.ar  190  HIS190      0.1154
    113  CE1       12.7880    7.8110   33.0010 C.ar  190  HIS190      0.1986
    114  NE2       13.4980    7.4960   34.0710 N.ar  190  HIS190     -0.2212
@<TRIPOS>BOND
     1    58    56   am
     2    91    88    1
     3    88    87    1
     4    88    89    1
     5    56    57    2
     6    56    55    1
     7    48    47    2
     8    54    53    2
     9    52    55    1
    10    52    53    1
    11    52    51    1
    12    89    92   am
    13    89    90    2
    14    79    77    1
    15    45    46    1
    16    76    75    2
    17    92    93    1
    18    47    51   am
    19    47    46    1
    20    53    59   am
    21    46    49    1
    22    95    94    2
    23    75    74    1
    24    77    74    1
    25    77    78    1
    26    93    94    1
    27    93    96    1
    28    94    98   am
    29   104   102    1
    30    62    61    2
    31    59    60    1
    32    74    73    1
    33    99    98    1
    34    99   102    1
    35    99   100    1
    36    61    60    1
    37    49    50    1
    38   101   100    2
    39    60    63    1
    40   102   103    1
    41   100   105   am
    42    96    97    1
    43     1     2    1
    44     5     2    1
    45     5     6    1
    46     2     3    1
    47     7     6   ar
    48   105   106    1
    49    63    64    1
    50    63    65    1
    51   107   108    2
    52   107   106    1
    53     6     8   ar
    54    66    67    1
    55    69    68    2
    56   106   109    1
    57    71    70    1
    58     3     9   am
    59     3     4    2
    60    68    67    1
    61    67    70    1
    62     9    10    1
    63    70    72    1
    64   109   110    1
    65   111   110   ar
    66   111   113   ar
    67    36    38   ar
    68    36    34   ar
    69    38    39   ar
    70   110   112   ar
    71    10    13    1
    72    10    11    1
    73    14    13    1
    74   113   114   ar
    75    33    34    1
    76    33    30    1
    77    34    35   ar
    78    39    40    1
    79    39    37   ar
    80    11    12    2
    81    42    41    1
    82    42    43    1
    83    86    84    1
    84   112   114   ar
    85    44    43    2
    86    41    31   am
    87    32    31    2
    88    31    30    1
    89    30    29    1
    90    35    37   ar
    91    80    81    1
    92    84    81    1
    93    84    85    1
    94    81    82    1
    95    29    24   am
    96    21    19    1
    97    83    82    2
    98    24    23    1
    99    24    25    2
   100    23    26    1
   101    23    22    1
   102    26    27    1
   103    19    16    1
   104    19    20    1
   105    16    15    1
   106    16    17    1
   107    22    17   am
   108    22    28    1
   109    27    28    1
   110    17    18    2
