@<TRIPOS>MOLECULE
tmp/3uhlD00.pdb
 127 119 0 0 0
SMALL
GASTEIGER

@<TRIPOS>ATOM
      1  N          5.7980   -1.2610   -7.7660 N.3     8  ARG8       -0.1245
      2  CA         6.6490   -1.6900   -8.8570 C.3     8  ARG8        0.1563
      3  C          8.0940   -2.0100   -8.4400 C.2     8  ARG8        0.2260
      4  O          8.7800   -1.2810   -7.6780 O.2     8  ARG8       -0.2867
      5  CB         6.5150   -0.8230  -10.1320 C.3     8  ARG8        0.0307
      6  CG         6.7120    0.6540   -9.9780 C.3     8  ARG8        0.0489
      7  CD         5.9060    1.4040  -11.0310 C.3     8  ARG8        0.2205
      8  NE         6.6050    2.5910  -11.4950 N.pl3   8  ARG8       -0.0865
      9  CZ         6.1050    3.4680  -12.3550 C.cat   8  ARG8        0.5346
     10  NH1        6.8340    4.5120  -12.7110 N.pl3   8  ARG8        0.1354
     11  NH2        4.8820    3.3060  -12.8490 N.pl3   8  ARG8        0.1354
     12  N         12.3860   -2.5040  -14.4520 N.3    23  LEU23      -0.1245
     13  CA        11.3760   -3.2720  -13.7260 C.3    23  LEU23       0.1561
     14  C         11.6390   -4.7980  -13.8070 C.2    23  LEU23       0.2260
     15  O         11.8160   -5.3560  -14.9050 O.2    23  LEU23      -0.2867
     16  CB         9.9830   -2.8880  -14.2310 C.3    23  LEU23       0.0270
     17  CG         8.7040   -3.5960  -13.7730 C.3    23  LEU23       0.0019
     18  CD1        8.2420   -3.0590  -12.3920 C.3    23  LEU23       0.0001
     19  CD2        7.5790   -3.3980  -14.8060 C.3    23  LEU23       0.0001
     20  N         10.5380   -8.3540  -14.1790 N.3    25  ASP25      -0.1239
     21  CA         9.2960   -8.5990  -14.9080 C.3    25  ASP25       0.1674
     22  C          9.1660  -10.0600  -15.1670 C.2    25  ASP25       0.2266
     23  O          9.7310  -10.6010  -16.1570 O.2    25  ASP25      -0.2867
     24  CB         9.1700   -7.7050  -16.1910 C.3    25  ASP25       0.1410
     25  CG         7.8010   -7.8520  -16.8950 C.2    25  ASP25       0.3668
     26  OD1        7.0280   -8.7330  -16.4410 O.co2  25  ASP25      -0.2456
     27  OD2        7.4850   -7.1510  -17.9290 O.co2  25  ASP25      -0.2456
     28  N          6.7350  -11.6500  -16.1330 N.3    27  GLY27      -0.1210
     29  CA         6.0130  -11.8800  -17.3700 C.3    27  GLY27       0.1956
     30  C          6.8010  -11.6380  -18.6530 C.2    27  GLY27       0.2612
     31  O          6.2690  -11.8240  -19.7640 O.2    27  GLY27      -0.2717
     32  N          8.0510  -11.1810  -18.5220 N.am   28  ALA28      -0.1965
     33  CA         8.9270  -10.9160  -19.6740 C.3    28  ALA28       0.1728
     34  C          9.9030  -12.0660  -19.8500 C.2    28  ALA28       0.2616
     35  O         10.6210  -12.4590  -18.8880 O.2    28  ALA28      -0.2715
     36  CB         9.6830   -9.5970  -19.4720 C.3    28  ALA28       0.0334
     37  N          9.9090  -12.6300  -21.0670 N.am   29  ASP29      -0.1957
     38  CA        10.8350  -13.7260  -21.4250 C.3    29  ASP29       0.1840
     39  C         12.2140  -13.0930  -21.5090 C.2    29  ASP29       0.2622
     40  O         13.1930  -13.6210  -21.0110 O.2    29  ASP29      -0.2715
     41  CB        10.4450  -14.3740  -22.7650 C.3    29  ASP29       0.1450
     42  CG         9.1440  -15.1480  -22.6780 C.2    29  ASP29       0.3671
     43  OD1        8.7590  -15.6440  -21.5790 O.co2  29  ASP29      -0.2456
     44  OD2        8.4930  -15.2790  -23.7290 O.co2  29  ASP29      -0.2456
     45  N         12.2880  -11.9130  -22.0840 N.am   30  ASN30      -0.1972
     46  CA        13.6110  -11.3160  -22.1840 C.3    30  ASN30       0.1688
     47  C         13.7700   -9.9660  -21.5420 C.2    30  ASN30       0.2292
     48  O         12.8030   -9.2630  -21.2860 O.2    30  ASN30      -0.2864
     49  CB        14.0430  -11.2590  -23.6620 C.3    30  ASN30       0.1181
     50  CG        14.4380  -12.6240  -24.1830 C.2    30  ASN30       0.2629
     51  OD1       15.3240  -13.2830  -23.6170 O.2    30  ASN30      -0.2716
     52  ND2       13.7380  -13.0830  -25.2010 N.am   30  ASN30      -0.0877
     53  N         14.7030   -6.0950  -21.8810 N.3    32  ILE32      -0.1245
     54  CA        14.4990   -5.1180  -22.9260 C.3    32  ILE32       0.1561
     55  C         14.8950   -3.7560  -22.3830 C.2    32  ILE32       0.2260
     56  O         14.4310   -3.3620  -21.2950 O.2    32  ILE32      -0.2867
     57  CB        13.0610   -5.0580  -23.3300 C.3    32  ILE32       0.0252
     58  CG1       12.5480   -6.4190  -23.7580 C.3    32  ILE32       0.0019
     59  CG2       12.9030   -4.0690  -24.5230 C.3    32  ILE32       0.0019
     60  CD1       11.0610   -6.4470  -23.8700 C.3    32  ILE32       0.0001
     61  N         10.5000   -8.9850  -33.1610 N.3    46  MET46      -0.1230
     62  CA         9.2700   -8.3360  -32.8940 C.3    46  MET46       0.1702
     63  C          8.6910   -8.9740  -31.6060 C.2    46  MET46       0.2592
     64  O          8.6850  -10.1930  -31.4420 O.2    46  MET46      -0.2718
     65  CB         8.3900   -8.6010  -34.1020 C.3    46  MET46       0.0401
     66  CG         6.9960   -8.0300  -33.9540 C.3    46  MET46       0.0596
     67  SD         6.7270   -6.9560  -35.3790 S.3    46  MET46      -0.1393
     68  CE         6.4820   -5.4400  -34.5090 C.3    46  MET46       0.0692
     69  N          8.2380   -8.1540  -30.6700 N.am   47  VAL47      -0.1966
     70  CA         7.5760   -8.6980  -29.4760 C.3    47  VAL47       0.1727
     71  C          6.2690   -7.9900  -29.3310 C.2    47  VAL47       0.2617
     72  O          6.1820   -6.8230  -29.6850 O.2    47  VAL47      -0.2715
     73  CB         8.4240   -8.5510  -28.1520 C.3    47  VAL47       0.0290
     74  CG1        9.7680   -9.3140  -28.2710 C.3    47  VAL47       0.0023
     75  CG2        8.6490   -7.0500  -27.7730 C.3    47  VAL47       0.0023
     76  N          5.2610   -8.6700  -28.7830 N.am   48  GLY48      -0.1940
     77  CA         3.9240   -8.1030  -28.6800 C.3    48  GLY48       0.2014
     78  C          3.3180   -8.2890  -27.3050 C.2    48  GLY48       0.2639
     79  O          3.8950   -8.9470  -26.4630 O.2    48  GLY48      -0.2714
     80  N          2.1670   -7.6570  -27.0810 N.am   49  GLY49      -0.1939
     81  CA         1.5540   -7.5890  -25.7890 C.3    49  GLY49       0.2014
     82  C          0.4550   -6.5460  -25.8460 C.2    49  GLY49       0.2638
     83  O         -0.0510   -6.2200  -26.9280 O.2    49  GLY49      -0.2714
     84  N          0.0850   -6.0010  -24.6930 N.am   50  ILE50      -0.1977
     85  CA        -1.0030   -5.0150  -24.6500 C.3    50  ILE50       0.1596
     86  C         -0.6290   -3.7220  -25.3870 C.2    50  ILE50       0.2287
     87  O          0.4570   -3.1770  -25.1840 O.2    50  ILE50      -0.2864
     88  CB        -1.4150   -4.6980  -23.1680 C.3    50  ILE50       0.0276
     89  CG1       -2.2860   -5.8310  -22.5860 C.3    50  ILE50       0.0022
     90  CG2       -2.2110   -3.3900  -23.0930 C.3    50  ILE50       0.0022
     91  CD1       -1.6280   -6.6790  -21.6310 C.3    50  ILE50       0.0001
     92  N         17.1480   -7.1630  -25.5000 N.3    76  LEU76      -0.1245
     93  CA        16.3970   -6.5580  -26.6030 C.3    76  LEU76       0.1561
     94  C         16.5050   -5.0270  -26.4660 C.2    76  LEU76       0.2260
     95  O         16.3520   -4.5040  -25.3610 O.2    76  LEU76      -0.2867
     96  CB        14.9420   -7.0440  -26.6000 C.3    76  LEU76       0.0270
     97  CG        14.8000   -8.5850  -26.6110 C.3    76  LEU76       0.0019
     98  CD1       13.3650   -9.0170  -26.7190 C.3    76  LEU76       0.0001
     99  CD2       15.6590   -9.2640  -27.7260 C.3    76  LEU76       0.0001
    100  N         10.7010    0.2940  -25.7510 N.3    80  THR80      -0.1204
    101  CA         9.8270   -0.1190  -24.6960 C.3    80  THR80       0.1979
    102  C          9.5260    1.1040  -23.7940 C.2    80  THR80       0.2460
    103  O         10.4040    1.9130  -23.5500 O.2    80  THR80      -0.2732
    104  CB        10.4570   -1.1870  -23.9140 C.3    80  THR80       0.1783
    105  OG1        9.5280   -1.6260  -22.9210 O.3    80  THR80      -0.2211
    106  CG2       11.7700   -0.7440  -23.2720 C.3    80  THR80       0.0376
    107  N          8.2680    1.2730  -23.3660 N.am   81  PRO81      -0.2717
    108  CA         7.9280    2.4010  -22.4770 C.3    81  PRO81       0.1535
    109  C          8.5220    2.2730  -21.0680 C.2    81  PRO81       0.2598
    110  O          8.6400    3.2660  -20.3670 O.2    81  PRO81      -0.2715
    111  CB         6.3950    2.3720  -22.4250 C.3    81  PRO81       0.0310
    112  CG         6.0420    0.9590  -22.7230 C.3    81  PRO81       0.0237
    113  CD         7.0780    0.5050  -23.7620 C.3    81  PRO81       0.0939
    114  N          8.8730    1.0670  -20.6230 N.am   82  VAL82      -0.1978
    115  CA         9.6790    0.9600  -19.4000 C.3    82  VAL82       0.1596
    116  C         10.6540   -0.1410  -19.5910 C.2    82  VAL82       0.2287
    117  O         10.3340   -1.1270  -20.2640 O.2    82  VAL82      -0.2864
    118  CB         8.8420    0.8540  -18.0690 C.3    82  VAL82       0.0276
    119  CG1        7.3630    0.6780  -18.3690 C.3    82  VAL82       0.0022
    120  CG2        9.3350   -0.2680  -17.1380 C.3    82  VAL82       0.0022
    121  N         12.5810   -3.4150  -18.7760 N.3    84  VAL84      -0.1245
    122  CA        12.3220   -4.6430  -17.9820 C.3    84  VAL84       0.1561
    123  C         13.4770   -5.6580  -17.9810 C.2    84  VAL84       0.2260
    124  O         14.1920   -5.8040  -18.9620 O.2    84  VAL84      -0.2867
    125  CB        11.0320   -5.3910  -18.4460 C.3    84  VAL84       0.0252
    126  CG1        9.8140   -4.5120  -18.3080 C.3    84  VAL84       0.0019
    127  CG2       11.1380   -5.8280  -19.9080 C.3    84  VAL84       0.0019
@<TRIPOS>BOND
     1    67    68    1
     2    67    66    1
     3    65    66    1
     4    65    62    1
     5    61    62    1
     6    62    63    1
     7    63    64    2
     8    63    69   am
     9    69    70    1
    10    72    71    2
    11    70    71    1
    12    70    73    1
    13    71    76   am
    14    76    77    1
    15    77    78    1
    16    74    73    1
    17    73    75    1
    18    99    97    1
    19    78    80   am
    20    78    79    2
    21    80    81    1
    22    83    82    2
    23    98    97    1
    24    97    96    1
    25    93    96    1
    26    93    94    1
    27    93    92    1
    28    94    95    2
    29    82    81    1
    30    82    84   am
    31   100   101    1
    32    86    87    2
    33    86    85    1
    34    52    50   am
    35   101   104    1
    36   101   102    1
    37    84    85    1
    38    85    88    1
    39    59    57    1
    40    50    49    1
    41    50    51    2
    42   104   106    1
    43   104   105    1
    44    60    58    1
    45   102   103    2
    46   102   107   am
    47   113   107    1
    48   113   112    1
    49    58    57    1
    50    44    42   ar
    51    49    46    1
    52   107   108    1
    53    57    54    1
    54    88    90    1
    55    88    89    1
    56    54    55    1
    57    54    53    1
    58    41    42    1
    59    41    38    1
    60   112   111    1
    61    42    43   ar
    62    89    91    1
    63   108   111    1
    64   108   109    1
    65    55    56    2
    66    46    45    1
    67    46    47    1
    68    45    39   am
    69    47    48    2
    70    39    38    1
    71    39    40    2
    72    38    37    1
    73   109   114   am
    74   109   110    2
    75    37    34   am
    76   114   115    1
    77   117   116    2
    78   127   125    1
    79    34    33    1
    80    34    35    2
    81    31    30    2
    82    33    36    1
    83    33    32    1
    84   116   115    1
    85   115   118    1
    86   124   123    2
    87   121   122    1
    88    30    32   am
    89    30    29    1
    90   125   126    1
    91   125   122    1
    92   119   118    1
    93   118   120    1
    94   122   123    1
    95    27    25   ar
    96    29    28    1
    97    25    26   ar
    98    25    24    1
    99    24    21    1
   100    23    22    2
   101    22    21    1
   102    21    20    1
   103    15    14    2
   104    19    17    1
   105    12    13    1
   106    16    17    1
   107    16    13    1
   108    14    13    1
   109    17    18    1
   110    11     9    1
   111    10     9    1
   112     9     8    2
   113     8     7    1
   114     7     6    1
   115     5     6    1
   116     5     2    1
   117     2     3    1
   118     2     1    1
   119     3     4    2
