@<TRIPOS>MOLECULE
tmp/3uhmA00.pdb
 169 161 0 0 0
SMALL
GASTEIGER

@<TRIPOS>ATOM
      1  N         -0.2160  -14.5590    5.1090 N.3    18  LEU18      -0.1231
      2  CA        -0.0660  -14.4320    3.6610 C.3    18  LEU18       0.1693
      3  C          1.1470  -15.2580    3.1910 C.2    18  LEU18       0.2592
      4  O          1.0580  -15.9770    2.1810 O.2    18  LEU18      -0.2718
      5  CB         0.1810  -12.9530    3.2800 C.3    18  LEU18       0.0284
      6  CG         0.7050  -12.6870    1.8370 C.3    18  LEU18       0.0019
      7  CD1       -0.3150  -13.1240    0.7750 C.3    18  LEU18       0.0001
      8  CD2        1.0780  -11.2250    1.6550 C.3    18  LEU18       0.0001
      9  N          2.2800  -15.1380    3.8820 N.am   19  HIS19      -0.1976
     10  CA         3.4690  -15.8350    3.4010 C.3    19  HIS19       0.1656
     11  C          3.6060  -17.2420    3.9170 C.2    19  HIS19       0.2291
     12  O          3.9630  -18.1380    3.1350 O.2    19  HIS19      -0.2864
     13  CB         4.7200  -14.9910    3.6690 C.3    19  HIS19       0.0771
     14  CG         4.7770  -13.7840    2.7900 C.ar   19  HIS19       0.0820
     15  ND1        4.6970  -13.9080    1.4130 N.ar   19  HIS19      -0.2267
     16  CD2        4.8870  -12.4700    3.0890 C.ar   19  HIS19       0.1154
     17  CE1        4.7460  -12.6850    0.9260 C.ar   19  HIS19       0.1986
     18  NE2        4.8760  -11.7820    1.8970 N.ar   19  HIS19      -0.2212
     19  N          9.1300   -8.9060    0.5700 N.3    62  MET62      -0.1245
     20  CA         7.6940   -9.0440    0.3110 C.3    62  MET62       0.1570
     21  C          6.8250   -8.8290    1.4990 C.2    62  MET62       0.2261
     22  O          5.6340   -9.1400    1.4380 O.2    62  MET62      -0.2867
     23  CB         7.3420  -10.3610   -0.4440 C.3    62  MET62       0.0387
     24  CG         8.1880  -10.6310   -1.6820 C.3    62  MET62       0.0595
     25  SD         8.2490   -9.2640   -2.8410 S.3    62  MET62      -0.1393
     26  CE         6.6960   -9.4290   -3.6020 C.3    62  MET62       0.0692
     27  N          4.9200   -9.5880    8.3660 N.3    75  THR75      -0.1218
     28  CA         3.7950   -8.9190    7.7100 C.3    75  THR75       0.1862
     29  C          3.0190   -8.0260    8.6730 C.2    75  THR75       0.2287
     30  O          1.8020   -8.1290    8.8090 O.2    75  THR75      -0.2866
     31  CB         2.9080   -9.9240    6.9570 C.3    75  THR75       0.1770
     32  OG1        3.7730  -10.8840    6.3560 O.3    75  THR75      -0.2211
     33  CG2        2.0410   -9.2610    5.8850 C.3    75  THR75       0.0375
     34  N          2.7760   -4.6930    8.3120 N.3    77  GLU77      -0.1231
     35  CA         2.4410   -3.4120    7.6780 C.3    77  GLU77       0.1699
     36  C          0.9730   -3.0550    7.6150 C.2    77  GLU77       0.2592
     37  O          0.6240   -1.8800    7.7490 O.2    77  GLU77      -0.2718
     38  CB         3.0770   -3.3260    6.2810 C.3    77  GLU77       0.0402
     39  CG         2.7420   -4.4550    5.3240 C.3    77  GLU77       0.1161
     40  CD         3.7020   -5.6270    5.3190 C.2    77  GLU77       0.3649
     41  OE1        4.3770   -5.8930    6.3400 O.co2  77  GLU77      -0.2457
     42  OE2        3.7260   -6.3280    4.2870 O.co2  77  GLU77      -0.2457
     43  N          0.0820   -4.0140    7.3360 N.am   78  HIS78      -0.1976
     44  CA        -1.3260   -3.6440    7.1570 C.3    78  HIS78       0.1656
     45  C         -2.0210   -3.3330    8.4570 C.2    78  HIS78       0.2291
     46  O         -2.7940   -2.3690    8.5430 O.2    78  HIS78      -0.2864
     47  CB        -2.0750   -4.7380    6.3870 C.3    78  HIS78       0.0771
     48  CG        -1.4710   -5.1100    5.0510 C.ar   78  HIS78       0.0820
     49  ND1       -1.8600   -6.2820    4.3870 N.ar   78  HIS78      -0.2267
     50  CD2       -0.5530   -4.4730    4.2820 C.ar   78  HIS78       0.1154
     51  CE1       -1.1360   -6.3240    3.2810 C.ar   78  HIS78       0.1986
     52  NE2       -0.3340   -5.2720    3.1700 N.ar   78  HIS78      -0.2212
     53  N         -3.8330   -5.9500   -0.9620 N.3   190  THR190     -0.1203
     54  CA        -2.5330   -6.3820   -1.4760 C.3   190  THR190      0.1994
     55  C         -2.7400   -7.0820   -2.8130 C.2   190  THR190      0.2618
     56  O         -3.8540   -7.4550   -3.1730 O.2   190  THR190     -0.2717
     57  CB        -1.8410   -7.2640   -0.4570 C.3   190  THR190      0.1784
     58  OG1       -0.4800   -7.4470   -0.8720 O.3   190  THR190     -0.2211
     59  CG2       -2.5210   -8.6200   -0.2670 C.3   190  THR190      0.0376
     60  N         -1.6480   -7.2830   -3.5440 N.am  191  PHE191     -0.1961
     61  CA        -1.7510   -7.8130   -4.8870 C.3   191  PHE191      0.1771
     62  C         -0.5240   -8.5430   -5.2730 C.2   191  PHE191      0.2620
     63  O          0.5580   -8.2650   -4.7310 O.2   191  PHE191     -0.2715
     64  CB        -2.0110   -6.6520   -5.8680 C.3   191  PHE191      0.0574
     65  CG        -1.0100   -5.5330   -5.8310 C.ar  191  PHE191     -0.0200
     66  CD1       -1.2450   -4.4010   -5.0650 C.ar  191  PHE191     -0.0042
     67  CD2        0.1500   -5.5940   -6.5910 C.ar  191  PHE191     -0.0042
     68  CE1       -0.3570   -3.3280   -5.1100 C.ar  191  PHE191     -0.0003
     69  CE2        1.0540   -4.5350   -6.6080 C.ar  191  PHE191     -0.0003
     70  CZ         0.7840   -3.4070   -5.8720 C.ar  191  PHE191     -0.0000
     71  N         -0.6920   -9.4380   -6.2390 N.am  192  GLY192     -0.1940
     72  CA         0.4210  -10.1810   -6.7940 C.3   192  GLY192      0.2014
     73  C          0.2260  -10.4220   -8.2680 C.2   192  GLY192      0.2638
     74  O         -0.9050  -10.4350   -8.7760 O.2   192  GLY192     -0.2714
     75  N          1.3460  -10.6320   -8.9410 N.am  193  PHE193     -0.1973
     76  CA         1.3860  -10.9150  -10.3720 C.3   193  PHE193      0.1639
     77  C          1.8570  -12.3200  -10.6150 C.2   193  PHE193      0.2290
     78  O          2.8230  -12.7620   -9.9890 O.2   193  PHE193     -0.2864
     79  CB         2.3120   -9.9220  -11.0830 C.3   193  PHE193      0.0560
     80  CG         1.8560   -8.4890  -11.0250 C.ar  193  PHE193     -0.0200
     81  CD1        1.0750   -7.9510  -12.0390 C.ar  193  PHE193     -0.0042
     82  CD2        2.2100   -7.6710   -9.9590 C.ar  193  PHE193     -0.0042
     83  CE1        0.6650   -6.6210  -11.9980 C.ar  193  PHE193     -0.0003
     84  CE2        1.7750   -6.3430   -9.9070 C.ar  193  PHE193     -0.0003
     85  CZ         1.0250   -5.8180  -10.9350 C.ar  193  PHE193     -0.0000
     86  N          5.3870  -15.6780   -9.6520 N.3   197  ILE197     -0.1245
     87  CA         5.1770  -16.9460   -8.9410 C.3   197  ILE197      0.1561
     88  C          6.4610  -17.7790   -8.8180 C.2   197  ILE197      0.2260
     89  O          6.6970  -18.3290   -7.7350 O.2   197  ILE197     -0.2867
     90  CB         3.9550  -17.7650   -9.4820 C.3   197  ILE197      0.0252
     91  CG1        2.6180  -17.0790   -9.1120 C.3   197  ILE197      0.0019
     92  CG2        3.9420  -19.2390   -8.9820 C.3   197  ILE197      0.0019
     93  CD1        1.3740  -17.5920   -9.9260 C.3   197  ILE197      0.0001
     94  N          8.4020  -16.3090   -5.9720 N.3   200  LEU200     -0.1245
     95  CA         7.7530  -16.6170   -4.6900 C.3   200  LEU200      0.1561
     96  C          7.8690  -18.0730   -4.3020 C.2   200  LEU200      0.2260
     97  O          8.2040  -18.3790   -3.1440 O.2   200  LEU200     -0.2867
     98  CB         6.2640  -16.2070   -4.7420 C.3   200  LEU200      0.0270
     99  CG         5.9990  -14.7240   -5.0050 C.3   200  LEU200      0.0019
    100  CD1        4.5660  -14.5000   -5.4930 C.3   200  LEU200      0.0001
    101  CD2        6.2550  -13.8610   -3.7620 C.3   200  LEU200      0.0001
    102  N          4.2040  -16.3370   -0.0880 N.3   206  ALA206     -0.1245
    103  CA         2.8100  -16.2100   -0.5320 C.3   206  ALA206      0.1562
    104  C          2.0580  -17.5310   -0.4570 C.2   206  ALA206      0.2260
    105  O          1.1350  -17.7580   -1.2360 O.2   206  ALA206     -0.2867
    106  CB         2.7200  -15.5860   -1.9280 C.3   206  ALA206      0.0290
    107  N         -1.6250  -16.8500    0.1130 N.3   209  GLY209     -0.1210
    108  CA        -2.2410  -15.8840   -0.7910 C.3   209  GLY209      0.1956
    109  C         -3.0870  -16.5040   -1.8840 C.2   209  GLY209      0.2612
    110  O         -2.7600  -17.5790   -2.4170 O.2   209  GLY209     -0.2717
    111  N         -4.1910  -15.8450   -2.2130 N.am  210  SER210     -0.1952
    112  CA        -5.0760  -16.2660   -3.2920 C.3   210  SER210      0.1924
    113  C         -6.0340  -15.1380   -3.6130 C.2   210  SER210      0.2314
    114  O         -6.0040  -14.0860   -2.9410 O.2   210  SER210     -0.2863
    115  CB        -5.8770  -17.5020   -2.9010 C.3   210  SER210      0.2116
    116  OG        -6.8770  -17.1350   -1.9510 O.3   210  SER210     -0.2180
    117  N         -6.2520  -11.2950   -1.9000 N.3   214  ALA214     -0.1245
    118  CA        -5.3480  -10.5080   -2.7270 C.3   214  ALA214      0.1562
    119  C         -5.8850  -10.3310   -4.1030 C.2   214  ALA214      0.2260
    120  O         -6.6660  -11.1780   -4.5760 O.2   214  ALA214     -0.2867
    121  CB        -3.9820  -11.2090   -2.8250 C.3   214  ALA214      0.0290
    122  N         -5.1150  -10.7910   -7.7740 N.3   216  VAL216     -0.1245
    123  CA        -4.1750  -11.6460   -8.5080 C.3   216  VAL216      0.1561
    124  C         -4.2900  -11.3120   -9.9880 C.2   216  VAL216      0.2260
    125  O         -5.4040  -11.2850  -10.5370 O.2   216  VAL216     -0.2867
    126  CB        -4.4420  -13.1570   -8.2670 C.3   216  VAL216      0.0252
    127  CG1       -3.4230  -14.0230   -9.0220 C.3   216  VAL216      0.0019
    128  CG2       -4.4390  -13.4710   -6.7700 C.3   216  VAL216      0.0019
    129  N         -2.9230    0.7220   -2.3690 N.3   237  HIS237     -0.1226
    130  CA        -2.3250   -0.2450   -1.4570 C.3   237  HIS237      0.1752
    131  C         -0.8720    0.0910   -1.1490 C.2   237  HIS237      0.2595
    132  O         -0.3910   -0.1170   -0.0330 O.2   237  HIS237     -0.2718
    133  CB        -2.4090   -1.6930   -1.9840 C.3   237  HIS237      0.0759
    134  CG        -1.9710   -2.6590   -0.9310 C.ar  237  HIS237      0.0818
    135  ND1       -2.8120   -3.0220    0.1150 N.ar  237  HIS237     -0.2268
    136  CD2       -0.7490   -3.2090   -0.7010 C.ar  237  HIS237      0.1154
    137  CE1       -2.0720   -3.7830    0.9170 C.ar  237  HIS237      0.1986
    138  NE2       -0.8220   -3.9200    0.4660 N.ar  237  HIS237     -0.2212
    139  N         -0.1140    0.5640   -2.1570 N.am  238  LYS238     -0.1980
    140  CA         1.2540    0.9950   -1.8900 C.3   238  LYS238      0.1596
    141  C          1.2960    2.1120   -0.8310 C.2   238  LYS238      0.2287
    142  O          2.2080    2.1610   -0.0020 O.2   238  LYS238     -0.2864
    143  CB         1.9480    1.4400   -3.1870 C.3   238  LYS238      0.0298
    144  CG         2.1400    0.3060   -4.1920 C.3   238  LYS238      0.0038
    145  CD         3.0280   -0.8270   -3.7190 C.3   238  LYS238      0.0206
    146  CE         4.4640   -0.3790   -3.6210 C.3   238  LYS238      0.1093
    147  NZ         5.3870   -1.5100   -3.3270 N.3   238  LYS238     -0.1314
    148  N          0.6470    0.4840    2.5730 N.3   241  ASP241     -0.1239
    149  CA         1.8900   -0.1030    3.0650 C.3   241  ASP241      0.1674
    150  C          2.8320    0.9610    3.6020 C.2   241  ASP241      0.2266
    151  O          3.4440    0.7400    4.6530 O.2   241  ASP241     -0.2867
    152  CB         2.6070   -0.8670    1.9390 C.3   241  ASP241      0.1410
    153  CG         2.0530   -2.2310    1.5650 C.2   241  ASP241      0.3668
    154  OD1        1.3560   -2.8260    2.3800 O.co2 241  ASP241     -0.2456
    155  OD2        2.3310   -2.6870    0.4710 O.co2 241  ASP241     -0.2456
    156  N          9.1880    0.3040   -1.7390 N.3   263  GLY263     -0.1210
    157  CA         8.5940   -0.8150   -1.0310 C.3   263  GLY263      0.1956
    158  C          9.0980   -0.8680    0.3900 C.2   263  GLY263      0.2611
    159  O          9.7240    0.0760    0.8970 O.2   263  GLY263     -0.2717
    160  N          8.8730   -1.9920    1.0380 N.am  264  HIS264     -0.1975
    161  CA         9.2180   -2.1310    2.4490 C.3   264  HIS264      0.1656
    162  C         10.6650   -1.8550    2.7730 C.2   264  HIS264      0.2291
    163  O         10.9580   -1.2180    3.7870 O.2   264  HIS264     -0.2864
    164  CB         8.8330   -3.5300    2.9500 C.3   264  HIS264      0.0771
    165  CG         7.4260   -3.8790    2.6660 C.ar  264  HIS264      0.0820
    166  ND1        6.3850   -3.1130    3.1590 N.ar  264  HIS264     -0.2267
    167  CD2        6.9100   -4.9280    1.9790 C.ar  264  HIS264      0.1154
    168  CE1        5.2660   -3.6930    2.7310 C.ar  264  HIS264      0.1986
    169  NE2        5.5470   -4.7830    1.9950 N.ar  264  HIS264     -0.2212
@<TRIPOS>BOND
     1    81    83   ar
     2    81    80   ar
     3    83    85   ar
     4    79    80    1
     5    79    76    1
     6    80    82   ar
     7    85    84   ar
     8    77    76    1
     9    77    78    2
    10   125   124    2
    11    76    75    1
    12   124   123    1
    13    82    84   ar
    14    93    91    1
    15    86    87    1
    16    90    91    1
    17    90    92    1
    18    90    87    1
    19   127   126    1
    20    87    88    1
    21    75    73   am
    22    88    89    2
    23    74    73    2
    24   123   126    1
    25   123   122    1
    26    73    72    1
    27   126   128    1
    28    72    71    1
    29    69    67   ar
    30    69    70   ar
    31    67    65   ar
    32    71    62   am
    33    94    95    1
    34    70    68   ar
    35    64    65    1
    36    64    61    1
    37    65    66   ar
    38   100    99    1
    39    62    61    1
    40    62    63    2
    41    68    66   ar
    42    99    98    1
    43    99   101    1
    44    61    60    1
    45    98    95    1
    46    95    96    1
    47   120   119    2
    48    96    97    2
    49   144   145    1
    50   144   143    1
    51   119   118    1
    52   145   146    1
    53   146   147    1
    54   113   112    1
    55   113   114    2
    56    26    25    1
    57    60    55   am
    58   112   115    1
    59   112   111    1
    60   143   140    1
    61    56    55    2
    62   115   116    1
    63    25    24    1
    64   121   118    1
    65    55    54    1
    66   118   117    1
    67   110   109    2
    68   129   130    1
    69   111   109   am
    70   139   140    1
    71   139   131   am
    72   133   130    1
    73   133   134    1
    74   106   103    1
    75   140   141    1
    76   109   108    1
    77   156   157    1
    78    24    23    1
    79    54    53    1
    80    54    57    1
    81   130   131    1
    82   105   104    2
    83   131   132    2
    84   157   158    1
    85   134   136   ar
    86   134   135   ar
    87    58    57    1
    88   141   142    2
    89   108   107    1
    90   136   138   ar
    91   103   104    1
    92   103   102    1
    93    57    59    1
    94    23    20    1
    95   135   137   ar
    96    20    19    1
    97    20    21    1
    98   158   159    2
    99   158   160   am
   100   138   137   ar
   101   155   153   ar
   102     7     6    1
   103    17    15   ar
   104    17    18   ar
   105   160   161    1
   106    15    14   ar
   107    22    21    2
   108   153   152    1
   109   153   154   ar
   110     8     6    1
   111     6     5    1
   112    18    16   ar
   113   152   149    1
   114   167   169   ar
   115   167   165   ar
   116   169   168   ar
   117     4     3    2
   118   161   162    1
   119   161   164    1
   120   148   149    1
   121   165   164    1
   122   165   166   ar
   123   168   166   ar
   124   162   163    2
   125    14    16   ar
   126    14    13    1
   127   149   150    1
   128    12    11    2
   129    52    51   ar
   130    52    50   ar
   131     3     2    1
   132     3     9   am
   133     5     2    1
   134    51    49   ar
   135    10    13    1
   136    10     9    1
   137    10    11    1
   138   150   151    2
   139     2     1    1
   140    50    48   ar
   141    42    40   ar
   142    49    48   ar
   143    48    47    1
   144    40    39    1
   145    40    41   ar
   146    39    38    1
   147    33    31    1
   148    38    35    1
   149    32    31    1
   150    47    44    1
   151    31    28    1
   152    44    43    1
   153    44    45    1
   154    43    36   am
   155    36    35    1
   156    36    37    2
   157    35    34    1
   158    28    27    1
   159    28    29    1
   160    45    46    2
   161    29    30    2
