@<TRIPOS>MOLECULE
tmp/3ui5A00.pdb
 104 99 0 0 0
SMALL
GASTEIGER

@<TRIPOS>ATOM
      1  N         -5.0940    1.9920    3.7700 N.3    12  HIS12      -0.1241
      2  CA        -4.0090    1.0350    3.5880 C.3    12  HIS12       0.1621
      3  C         -3.5890    0.3310    4.8530 C.2    12  HIS12       0.2264
      4  O         -3.8600    0.7960    5.9660 O.2    12  HIS12      -0.2867
      5  CB        -2.7910    1.6420    2.8660 C.3    12  HIS12       0.0745
      6  CG        -1.9130    2.5040    3.6890 C.ar   12  HIS12       0.0817
      7  ND1       -0.6030    2.7190    3.3680 N.ar   12  HIS12      -0.2268
      8  CD2       -2.1780    3.2620    4.8140 C.ar   12  HIS12       0.1154
      9  CE1       -0.0650    3.5830    4.2600 C.ar   12  HIS12       0.1986
     10  NE2       -0.9940    3.9310    5.1270 N.ar   12  HIS12      -0.2212
     11  N          0.2290   -0.7560    6.0370 N.3    14  LEU14      -0.1245
     12  CA         1.6450   -0.6130    5.7020 C.3    14  LEU14       0.1561
     13  C          2.4640   -1.4660    6.6700 C.2    14  LEU14       0.2260
     14  O          2.3640   -1.3010    7.8650 O.2    14  LEU14      -0.2867
     15  CB         2.0830    0.8370    5.7880 C.3    14  LEU14       0.0270
     16  CG         3.5790    1.1150    5.6930 C.3    14  LEU14       0.0019
     17  CD1        4.1800    0.6600    4.3550 C.3    14  LEU14       0.0001
     18  CD2        3.9280    2.5510    5.9750 C.3    14  LEU14       0.0001
     19  N          1.1030    2.4860    9.8830 N.3    44  ASP44      -0.1225
     20  CA         0.6650    3.8700    9.5570 C.3    44  ASP44       0.1805
     21  C         -0.8450    3.9000    9.6010 C.2    44  ASP44       0.2597
     22  O         -1.5340    3.0180    9.0600 O.2    44  ASP44      -0.2718
     23  CB         1.1370    4.2720    8.1390 C.3    44  ASP44       0.1424
     24  CG         0.8090    5.7020    7.7580 C.2    44  ASP44       0.3668
     25  OD1        0.1940    5.9240    6.7110 O.co2  44  ASP44      -0.2456
     26  OD2        1.2440    6.6420    8.4960 O.co2  44  ASP44      -0.2456
     27  N         -1.3880    4.9570   10.2380 N.am   45  LYS45      -0.1979
     28  CA        -2.8120    5.1740   10.3590 C.3    45  LYS45       0.1596
     29  C         -3.5320    4.0380   11.0610 C.2    45  LYS45       0.2287
     30  O         -4.7220    3.8440   10.8830 O.2    45  LYS45      -0.2864
     31  CB        -3.4670    5.5010    9.0180 C.3    45  LYS45       0.0298
     32  CG        -2.9880    6.7430    8.3160 C.3    45  LYS45       0.0038
     33  CD        -3.3930    8.0220    9.1200 C.3    45  LYS45       0.0206
     34  CE        -3.0470    9.3200    8.4970 C.3    45  LYS45       0.1093
     35  NZ        -3.3690   10.3350    9.5240 N.3    45  LYS45      -0.1314
     36  N         -6.2560    6.9080    5.1760 N.3    52  LEU52      -0.1245
     37  CA        -5.4830    8.0830    4.7940 C.3    52  LEU52       0.1561
     38  C         -6.3480    9.2910    4.4430 C.2    52  LEU52       0.2260
     39  O         -5.8060   10.3840    4.3100 O.2    52  LEU52      -0.2867
     40  CB        -4.5360    7.7350    3.6480 C.3    52  LEU52       0.0270
     41  CG        -3.3460    6.8870    3.9990 C.3    52  LEU52       0.0019
     42  CD1       -2.8500    6.2000    2.7030 C.3    52  LEU52       0.0001
     43  CD2       -2.2620    7.7450    4.6800 C.3    52  LEU52       0.0001
     44  N         -6.7010   11.9320   -0.9040 N.3    55  MET55      -0.1245
     45  CA        -5.3440   12.1940   -1.3720 C.3    55  MET55       0.1570
     46  C         -5.4350   12.5980   -2.8410 C.2    55  MET55       0.2261
     47  O         -5.9710   11.8490   -3.6680 O.2    55  MET55      -0.2867
     48  CB        -4.4560   10.9320   -1.2610 C.3    55  MET55       0.0387
     49  CG        -4.3090   10.4180    0.1680 C.3    55  MET55       0.0595
     50  SD        -3.4530   11.5100    1.3020 S.3    55  MET55      -0.1393
     51  CE        -1.7590   11.2260    0.8180 C.3    55  MET55       0.0692
     52  N          0.2370   13.6180   -4.5840 N.3    59  SER59      -0.1202
     53  CA         0.5160   13.6600   -3.1520 C.3    59  SER59       0.2020
     54  C          0.9700   12.3190   -2.6060 C.2    59  SER59       0.2619
     55  O          1.3780   12.2580   -1.4380 O.2    59  SER59      -0.2717
     56  CB        -0.7410   14.1050   -2.3850 C.3    59  SER59       0.2103
     57  OG        -1.7210   13.1540   -2.3620 O.3    59  SER59      -0.2182
     58  N          0.8510   11.2530   -3.4110 N.am   60  MET60      -0.1965
     59  CA         1.1560    9.8970   -2.9480 C.3    60  MET60       0.1736
     60  C          2.4550    9.4540   -3.5960 C.2    60  MET60       0.2616
     61  O          2.7400    9.7990   -4.7730 O.2    60  MET60      -0.2715
     62  CB         0.0220    8.9430   -3.4140 C.3    60  MET60       0.0427
     63  CG        -1.2860    9.1150   -2.6350 C.3    60  MET60       0.0599
     64  SD        -2.6930    8.3750   -3.4270 S.3    60  MET60      -0.1393
     65  CE        -3.1450    9.6600   -4.6430 C.3    60  MET60       0.0692
     66  N          3.2190    8.6290   -2.9040 N.am   61  VAL61      -0.1977
     67  CA         4.4290    8.0240   -3.4730 C.3    61  VAL61       0.1596
     68  C          4.0880    7.2040   -4.7360 C.2    61  VAL61       0.2287
     69  O          3.0170    6.5980   -4.8130 O.2    61  VAL61      -0.2864
     70  CB         5.1600    7.2660   -2.3640 C.3    61  VAL61       0.0276
     71  CG1        4.4050    5.9850   -1.8800 C.3    61  VAL61       0.0022
     72  CG2        6.6320    7.0130   -2.7160 C.3    61  VAL61       0.0022
     73  N          2.4190    3.6410   -4.9940 N.3    64  PHE64      -0.1241
     74  CA         1.1610    3.6730   -4.2780 C.3    64  PHE64       0.1605
     75  C          0.1060    4.3790   -5.1420 C.2    64  PHE64       0.2264
     76  O         -1.0130    3.8870   -5.2900 O.2    64  PHE64      -0.2867
     77  CB         1.3560    4.3840   -2.9380 C.3    64  PHE64       0.0534
     78  CG         0.1720    4.4380   -2.0270 C.ar   64  PHE64      -0.0203
     79  CD1       -0.9020    5.2290   -2.3150 C.ar   64  PHE64      -0.0042
     80  CD2        0.1500    3.7300   -0.8570 C.ar   64  PHE64      -0.0042
     81  CE1       -1.9930    5.2870   -1.4600 C.ar   64  PHE64      -0.0003
     82  CE2       -0.9070    3.7730   -0.0310 C.ar   64  PHE64      -0.0003
     83  CZ        -1.9850    4.5440   -0.3100 C.ar   64  PHE64      -0.0000
     84  N          8.4050    3.1970    1.7230 N.3    90  PHE90      -0.1241
     85  CA         7.9390    3.0410    3.1200 C.3    90  PHE90       0.1605
     86  C          7.8960    1.5600    3.5410 C.2    90  PHE90       0.2264
     87  O          7.8480    1.2760    4.7250 O.2    90  PHE90      -0.2867
     88  CB         6.5780    3.6450    3.2600 C.3    90  PHE90       0.0534
     89  CG         6.5370    5.1040    2.8970 C.ar   90  PHE90      -0.0203
     90  CD1        7.1780    6.0070    3.6200 C.ar   90  PHE90      -0.0042
     91  CD2        5.8330    5.5610    1.8480 C.ar   90  PHE90      -0.0042
     92  CE1        7.0940    7.3530    3.3310 C.ar   90  PHE90      -0.0003
     93  CE2        5.7530    6.8760    1.5330 C.ar   90  PHE90      -0.0003
     94  CZ         6.3930    7.7630    2.2750 C.ar   90  PHE90      -0.0000
     95  N          2.4980   -2.1530    1.0410 N.3    93  HIS93      -0.1241
     96  CA         1.1590   -1.6550    1.2820 C.3    93  HIS93       0.1621
     97  C          0.1460   -2.6160    0.6540 C.2    93  HIS93       0.2264
     98  O          0.3100   -3.0860   -0.4760 O.2    93  HIS93      -0.2867
     99  CB         0.9070   -0.2930    0.6160 C.3    93  HIS93       0.0745
    100  CG         1.9150    0.7760    0.9080 C.ar   93  HIS93       0.0817
    101  ND1        1.6210    1.8650    1.7120 N.ar   93  HIS93      -0.2268
    102  CD2        3.1910    0.9370    0.4800 C.ar   93  HIS93       0.1154
    103  CE1        2.7280    2.6860    1.7130 C.ar   93  HIS93       0.1986
    104  NE2        3.6700    2.1210    0.9810 N.ar   93  HIS93      -0.2212
@<TRIPOS>BOND
     1    76    75    2
     2    75    74    1
     3    73    74    1
     4    69    68    2
     5    61    60    2
     6    68    67    1
     7    65    64    1
     8    52    53    1
     9    74    77    1
    10    47    46    2
    11    60    59    1
    12    60    66   am
    13    67    66    1
    14    67    70    1
    15    64    63    1
    16    62    59    1
    17    62    63    1
    18    58    59    1
    19    58    54   am
    20    53    54    1
    21    53    56    1
    22    77    78    1
    23    46    45    1
    24    72    70    1
    25    54    55    2
    26    56    57    1
    27    70    71    1
    28    79    78   ar
    29    79    81   ar
    30    78    80   ar
    31    81    83   ar
    32    45    48    1
    33    45    44    1
    34    48    49    1
    35    80    82   ar
    36    98    97    2
    37    83    82   ar
    38    49    50    1
    39   102   100   ar
    40   102   104   ar
    41    99   100    1
    42    99    96    1
    43    97    96    1
    44    51    50    1
    45   100   101   ar
    46   104   103   ar
    47    95    96    1
    48    93    91   ar
    49    93    94   ar
    50   101   103   ar
    51    84    85    1
    52    91    89   ar
    53    94    92   ar
    54    42    41    1
    55     5     2    1
    56     5     6    1
    57    89    88    1
    58    89    90   ar
    59    85    88    1
    60    85    86    1
    61    92    90   ar
    62     7     6   ar
    63     7     9   ar
    64    86    87    2
    65     2     1    1
    66     2     3    1
    67    40    41    1
    68    40    37    1
    69     6     8   ar
    70    41    43    1
    71     9    10   ar
    72    39    38    2
    73    17    16    1
    74    38    37    1
    75    37    36    1
    76     8    10   ar
    77     3     4    2
    78    16    15    1
    79    16    18    1
    80    12    15    1
    81    12    11    1
    82    12    13    1
    83    13    14    2
    84    25    24   ar
    85    24    23    1
    86    24    26   ar
    87    23    20    1
    88    32    31    1
    89    32    33    1
    90    34    33    1
    91    34    35    1
    92    31    28    1
    93    22    21    2
    94    20    21    1
    95    20    19    1
    96    21    27   am
    97    27    28    1
    98    28    29    1
    99    30    29    2
