@<TRIPOS>MOLECULE
tmp/3ui7B00.pdb
 127 122 0 0 0
SMALL
GASTEIGER

@<TRIPOS>ATOM
      1  N          5.4200   48.2780   64.3050 N.3    70  TYR70      -0.1227
      2  CA         6.4120   47.2820   64.7320 C.3    70  TYR70       0.1736
      3  C          7.8700   47.7100   64.7650 C.2    70  TYR70       0.2595
      4  O          8.5420   47.4350   65.7470 O.2    70  TYR70      -0.2718
      5  CB         6.2440   45.9710   63.9250 C.3    70  TYR70       0.0548
      6  CG         7.2820   44.9040   64.2020 C.ar   70  TYR70      -0.0200
      7  CD1        7.2840   44.1970   65.4030 C.ar   70  TYR70      -0.0009
      8  CD2        8.2160   44.5410   63.2320 C.ar   70  TYR70      -0.0009
      9  CE1        8.2050   43.1780   65.6460 C.ar   70  TYR70       0.0417
     10  CE2        9.1400   43.5170   63.4610 C.ar   70  TYR70       0.0417
     11  CZ         9.1440   42.8530   64.6810 C.ar   70  TYR70       0.1957
     12  OH        10.0290   41.8280   64.9330 O.3    70  TYR70      -0.2866
     13  N          8.3850   48.3070   63.6850 N.am   71  HIS71      -0.1975
     14  CA         9.7860   48.7130   63.6460 C.3    71  HIS71       0.1656
     15  C          9.9940   50.0250   64.4380 C.2    71  HIS71       0.2291
     16  O         10.4330   51.0440   63.8970 O.2    71  HIS71      -0.2864
     17  CB        10.2610   48.8030   62.1990 C.3    71  HIS71       0.0771
     18  CG        10.3320   47.4730   61.5250 C.ar   71  HIS71       0.0820
     19  ND1        9.2980   47.0090   60.7370 N.ar   71  HIS71      -0.2267
     20  CD2       11.2990   46.5310   61.5790 C.ar   71  HIS71       0.1154
     21  CE1        9.6770   45.8160   60.3120 C.ar   71  HIS71       0.1986
     22  NE2       10.8720   45.4800   60.7980 N.ar   71  HIS71      -0.2212
     23  N         17.1250   39.9510   56.1940 N.3   181  LEU181     -0.1245
     24  CA        16.6970   38.5430   56.1660 C.3   181  LEU181      0.1561
     25  C         17.0070   37.8250   54.8540 C.2   181  LEU181      0.2260
     26  O         17.2440   36.6110   54.8550 O.2   181  LEU181     -0.2867
     27  CB        15.2050   38.4300   56.5350 C.3   181  LEU181      0.0270
     28  CG        14.6750   37.0520   56.9380 C.3   181  LEU181      0.0019
     29  CD1       15.1550   36.6580   58.3400 C.3   181  LEU181      0.0001
     30  CD2       13.1630   37.0310   56.8760 C.3   181  LEU181      0.0001
     31  N         17.0060   39.6180   66.0660 N.3   220  ASP220     -0.1225
     32  CA        16.0150   40.3180   65.2620 C.3   220  ASP220      0.1805
     33  C         14.6450   39.6600   65.2820 C.2   220  ASP220      0.2597
     34  O         13.6450   40.3570   65.3990 O.2   220  ASP220     -0.2718
     35  CB        16.5070   40.4210   63.8260 C.3   220  ASP220      0.1424
     36  CG        15.8570   41.5300   63.0430 C.2   220  ASP220      0.3668
     37  OD1       15.0470   42.2730   63.6300 O.co2 220  ASP220     -0.2456
     38  OD2       16.1800   41.6750   61.8510 O.co2 220  ASP220     -0.2456
     39  N         14.6060   38.3200   65.2080 N.am  221  LEU221     -0.1979
     40  CA        13.3800   37.5140   65.1990 C.3   221  LEU221      0.1596
     41  C         12.8610   37.0320   66.5770 C.2   221  LEU221      0.2287
     42  O         11.8120   36.3880   66.6080 O.2   221  LEU221     -0.2864
     43  CB        13.5640   36.3150   64.2500 C.3   221  LEU221      0.0297
     44  CG        13.5440   36.5650   62.7170 C.3   221  LEU221      0.0022
     45  CD1       12.6540   37.7340   62.3190 C.3   221  LEU221      0.0001
     46  CD2       14.9190   36.8140   62.1760 C.3   221  LEU221      0.0001
     47  N         10.9080   37.8200   68.9370 N.3   223  SER223     -0.1202
     48  CA         9.4850   37.9590   69.2870 C.3   223  SER223      0.2020
     49  C          8.7530   36.6260   69.2120 C.2   223  SER223      0.2618
     50  O          7.7420   36.4560   69.8970 O.2   223  SER223     -0.2717
     51  CB         8.7940   38.9480   68.3560 C.3   223  SER223      0.2103
     52  OG         9.2940   40.2530   68.5770 O.3   223  SER223     -0.2182
     53  N          9.2650   35.6810   68.3850 N.am  224  VAL224     -0.1979
     54  CA         8.7520   34.3110   68.2050 C.3   224  VAL224      0.1595
     55  C          9.2120   33.3960   69.3610 C.2   224  VAL224      0.2287
     56  O          8.8440   32.2110   69.4010 O.2   224  VAL224     -0.2864
     57  CB         9.1810   33.6990   66.8330 C.3   224  VAL224      0.0276
     58  CG1        8.7290   34.5730   65.6560 C.3   224  VAL224      0.0022
     59  CG2       10.6820   33.4120   66.7750 C.3   224  VAL224      0.0022
     60  N          2.7040   39.7080   66.7400 N.3   235  ALA235     -0.1245
     61  CA         2.3110   39.3040   65.3820 C.3   235  ALA235      0.1562
     62  C          1.3330   40.3230   64.7470 C.2   235  ALA235      0.2260
     63  O          1.4970   40.6820   63.5760 O.2   235  ALA235     -0.2867
     64  CB         1.6810   37.9180   65.4130 C.3   235  ALA235      0.0290
     65  N          3.1840   43.3460   63.5770 N.3   238  ILE238     -0.1231
     66  CA         3.9150   42.9810   62.3510 C.3   238  ILE238      0.1692
     67  C          2.9420   43.1040   61.1740 C.2   238  ILE238      0.2592
     68  O          3.2250   43.8640   60.2360 O.2   238  ILE238     -0.2718
     69  CB         4.6060   41.5700   62.4260 C.3   238  ILE238      0.0266
     70  CG1        5.6950   41.5490   63.5190 C.3   238  ILE238      0.0019
     71  CG2        5.2180   41.1740   61.0720 C.3   238  ILE238      0.0020
     72  CD1        6.1450   40.1700   63.9810 C.3   238  ILE238      0.0001
     73  N          1.7730   42.4170   61.2590 N.am  239  TYR239     -0.1976
     74  CA         0.7610   42.4850   60.1980 C.3   239  TYR239      0.1639
     75  C          0.1680   43.8660   59.9810 C.2   239  TYR239      0.2290
     76  O         -0.0870   44.2010   58.8420 O.2   239  TYR239     -0.2864
     77  CB        -0.3170   41.3970   60.3090 C.3   239  TYR239      0.0560
     78  CG         0.1710   40.0340   59.8710 C.ar  239  TYR239     -0.0198
     79  CD1        0.6180   39.1030   60.8020 C.ar  239  TYR239     -0.0009
     80  CD2        0.2110   39.6840   58.5210 C.ar  239  TYR239     -0.0009
     81  CE1        1.0820   37.8480   60.4060 C.ar  239  TYR239      0.0417
     82  CE2        0.6830   38.4340   58.1120 C.ar  239  TYR239      0.0417
     83  CZ         1.1140   37.5180   59.0620 C.ar  239  TYR239      0.1957
     84  OH         1.5790   36.2840   58.6820 O.3   239  TYR239     -0.2866
     85  N          2.6290   45.4360   57.6980 N.3   242  PHE242     -0.1241
     86  CA         2.5620   44.7170   56.4170 C.3   242  PHE242      0.1605
     87  C          1.3200   45.2090   55.6570 C.2   242  PHE242      0.2264
     88  O          1.4190   45.5360   54.4690 O.2   242  PHE242     -0.2867
     89  CB         2.4260   43.1870   56.6230 C.3   242  PHE242      0.0534
     90  CG         3.6370   42.3290   56.9470 C.ar  242  PHE242     -0.0203
     91  CD1        4.9270   42.8590   56.9050 C.ar  242  PHE242     -0.0042
     92  CD2        3.4860   40.9850   57.2870 C.ar  242  PHE242     -0.0042
     93  CE1        6.0380   42.0650   57.2300 C.ar  242  PHE242     -0.0003
     94  CE2        4.5940   40.1960   57.6130 C.ar  242  PHE242     -0.0003
     95  CZ         5.8650   40.7290   57.5500 C.ar  242  PHE242     -0.0000
     96  N          0.2300   38.3890   52.1720 N.3   259  MET259     -0.1245
     97  CA         0.6700   38.7530   53.5250 C.3   259  MET259      0.1570
     98  C          0.5250   40.2430   53.8220 C.2   259  MET259      0.2261
     99  O          0.3500   40.6220   54.9780 O.2   259  MET259     -0.2867
    100  CB         2.0710   38.2060   53.8760 C.3   259  MET259      0.0387
    101  CG         3.2430   38.9450   53.2500 C.3   259  MET259      0.0595
    102  SD         4.7270   38.8040   54.2950 S.3   259  MET259     -0.1393
    103  CE         6.0030   39.2180   53.1130 C.3   259  MET259      0.0692
    104  N          0.3760   31.6120   57.7410 N.3   271  GLY271     -0.1210
    105  CA         1.4770   32.4980   57.3810 C.3   271  GLY271      0.1956
    106  C          2.5980   32.4340   58.4000 C.2   271  GLY271      0.2611
    107  O          3.7730   32.5940   58.0580 O.2   271  GLY271     -0.2717
    108  N          2.2320   32.1780   59.6600 N.am  272  GLN272     -0.1979
    109  CA         3.1780   32.0390   60.7520 C.3   272  GLN272      0.1601
    110  C          3.8150   30.6430   60.7880 C.2   272  GLN272      0.2287
    111  O          5.0300   30.5600   60.9480 O.2   272  GLN272     -0.2864
    112  CB         2.5510   32.4430   62.0950 C.3   272  GLN272      0.0394
    113  CG         2.1910   33.9330   62.1430 C.3   272  GLN272      0.0908
    114  CD         3.4020   34.8270   62.0440 C.2   272  GLN272      0.2608
    115  OE1        4.1910   34.9380   62.9910 O.2   272  GLN272     -0.2717
    116  NE2        3.5600   35.5110   60.9050 N.am  272  GLN272     -0.0878
    117  N          6.4920   30.5400   58.1020 N.3   275  PHE275     -0.1241
    118  CA         7.6770   31.3200   58.4720 C.3   275  PHE275      0.1605
    119  C          8.5370   30.6290   59.5410 C.2   275  PHE275      0.2264
    120  O          9.7730   30.6580   59.4420 O.2   275  PHE275     -0.2867
    121  CB         7.2960   32.7500   58.8880 C.3   275  PHE275      0.0534
    122  CG         8.4590   33.5920   59.3700 C.ar  275  PHE275     -0.0203
    123  CD1        9.2720   34.2690   58.4650 C.ar  275  PHE275     -0.0042
    124  CD2        8.7350   33.7150   60.7270 C.ar  275  PHE275     -0.0042
    125  CE1       10.3480   35.0440   58.9130 C.ar  275  PHE275     -0.0003
    126  CE2        9.8230   34.4770   61.1730 C.ar  275  PHE275     -0.0003
    127  CZ        10.6270   35.1260   60.2640 C.ar  275  PHE275     -0.0000
@<TRIPOS>BOND
     1    96    97    1
     2   103   102    1
     3   101   100    1
     4   101   102    1
     5    97    98    1
     6    97   100    1
     7    98    99    2
     8    88    87    2
     9    25    26    2
    10    25    24    1
    11    87    86    1
    12    24    23    1
    13    24    27    1
    14    86    89    1
    15    86    85    1
    16    27    28    1
    17    89    90    1
    18    30    28    1
    19    91    90   ar
    20    91    93   ar
    21    28    29    1
    22    90    92   ar
    23    93    95   ar
    24    92    94   ar
    25   105   104    1
    26   105   106    1
    27    95    94   ar
    28   107   106    2
    29   117   118    1
    30    82    80   ar
    31    82    83   ar
    32   106   108   am
    33   123   125   ar
    34   123   122   ar
    35   118   121    1
    36   118   119    1
    37    80    78   ar
    38    84    83    1
    39    76    75    2
    40   121   122    1
    41   125   127   ar
    42    83    81   ar
    43   122   124   ar
    44   120   119    2
    45   108   109    1
    46    78    77    1
    47    78    79   ar
    48    75    74    1
    49    74    77    1
    50    74    73    1
    51    68    67    2
    52   127   126   ar
    53    21    19   ar
    54    21    22   ar
    55    81    79   ar
    56   124   126   ar
    57    19    18   ar
    58   109   110    1
    59   109   112    1
    60   110   111    2
    61    22    20   ar
    62   116   114   am
    63    71    69    1
    64    67    73   am
    65    67    66    1
    66    18    20   ar
    67    18    17    1
    68    38    36   ar
    69   114   113    1
    70   114   115    2
    71   112   113    1
    72    46    44    1
    73    17    14    1
    74    45    44    1
    75    66    69    1
    76    66    65    1
    77    69    70    1
    78    44    43    1
    79    36    37   ar
    80    36    35    1
    81     8    10   ar
    82     8     6   ar
    83    10    11   ar
    84    70    72    1
    85    63    62    2
    86    14    13    1
    87    14    15    1
    88    13     3   am
    89    35    32    1
    90    16    15    2
    91     5     6    1
    92     5     2    1
    93     6     7   ar
    94    43    40    1
    95     1     2    1
    96    11    12    1
    97    11     9   ar
    98     2     3    1
    99    62    61    1
   100     3     4    2
   101    40    39    1
   102    40    41    1
   103    39    33   am
   104    32    33    1
   105    32    31    1
   106    33    34    2
   107    61    64    1
   108    61    60    1
   109     7     9   ar
   110    58    57    1
   111    41    42    2
   112    59    57    1
   113    57    54    1
   114    54    53    1
   115    54    55    1
   116    51    52    1
   117    51    48    1
   118    53    49   am
   119    47    48    1
   120    49    48    1
   121    49    50    2
   122    55    56    2
