@<TRIPOS>MOLECULE
tmp/3uibA00.pdb
 178 164 0 0 0
SMALL
GASTEIGER

@<TRIPOS>ATOM
      1  N          5.3400   30.5000   49.3960 N.3    14  TYR14      -0.1241
      2  CA         5.3980   29.2360   48.6630 C.3    14  TYR14       0.1605
      3  C          6.8250   28.7890   48.3190 C.2    14  TYR14       0.2264
      4  O          7.1070   27.5890   48.3190 O.2    14  TYR14      -0.2867
      5  CB         4.4890   29.2570   47.4120 C.3    14  TYR14       0.0534
      6  CG         4.7940   30.3460   46.4020 C.ar   14  TYR14      -0.0201
      7  CD1        5.6540   30.1110   45.3320 C.ar   14  TYR14      -0.0009
      8  CD2        4.1620   31.5850   46.4680 C.ar   14  TYR14      -0.0009
      9  CE1        5.9210   31.1010   44.3850 C.ar   14  TYR14       0.0417
     10  CE2        4.4210   32.5830   45.5280 C.ar   14  TYR14       0.0417
     11  CZ         5.3000   32.3350   44.4870 C.ar   14  TYR14       0.1957
     12  OH         5.5590   33.3150   43.5600 O.3    14  TYR14      -0.2866
     13  N         11.5830   32.0360   43.5570 N.3    17  VAL17      -0.1245
     14  CA        11.8120   31.8100   42.1280 C.3    17  VAL17       0.1561
     15  C         12.9100   32.7090   41.5580 C.2    17  VAL17       0.2260
     16  O         12.9040   33.9210   41.7920 O.2    17  VAL17      -0.2867
     17  CB        10.5030   31.9180   41.3150 C.3    17  VAL17       0.0252
     18  CG1       10.7410   31.6930   39.8260 C.3    17  VAL17       0.0019
     19  CG2        9.5290   30.8470   41.8120 C.3    17  VAL17       0.0019
     20  N         13.7170   28.2440   34.8180 N.3    29  ALA29      -0.1245
     21  CA        13.2400   28.8850   36.0430 C.3    29  ALA29       0.1562
     22  C         13.4380   27.9230   37.2160 C.2    29  ALA29       0.2260
     23  O         12.9020   26.8110   37.2030 O.2    29  ALA29      -0.2867
     24  CB        11.7710   29.2550   35.9060 C.3    29  ALA29       0.0290
     25  N         13.0550   27.2520   41.2910 N.3    31  LYS31      -0.1245
     26  CA        12.3270   27.5950   42.5150 C.3    31  LYS31       0.1561
     27  C         12.9860   26.8960   43.7050 C.2    31  LYS31       0.2260
     28  O         13.2100   25.6840   43.6610 O.2    31  LYS31      -0.2867
     29  CB        10.8460   27.1830   42.3820 C.3    31  LYS31       0.0271
     30  CG         9.9150   27.6810   43.4910 C.3    31  LYS31       0.0035
     31  CD         8.4930   27.1580   43.2870 C.3    31  LYS31       0.0206
     32  CE         7.7200   27.0180   44.5760 C.3    31  LYS31       0.1093
     33  NZ         6.3630   26.4650   44.3400 N.3    31  LYS31      -0.1314
     34  N          2.5110   19.1880   44.7650 N.3    51  GLU51      -0.1245
     35  CA         2.8760   20.0600   43.6430 C.3    51  GLU51       0.1567
     36  C          3.6890   19.2860   42.6010 C.2    51  GLU51       0.2260
     37  O          3.3410   19.3120   41.4190 O.2    51  GLU51      -0.2867
     38  CB         3.6340   21.3190   44.1190 C.3    51  GLU51       0.0388
     39  CG         3.8700   22.3440   43.0110 C.3    51  GLU51       0.1160
     40  CD         4.7970   23.5130   43.3020 C.2    51  GLU51       0.3649
     41  OE1        4.6440   24.5610   42.6340 O.co2  51  GLU51      -0.2457
     42  OE2        5.6920   23.3790   44.1690 O.co2  51  GLU51      -0.2457
     43  N          2.6270   18.4900   38.7890 N.3    55  LEU55      -0.1245
     44  CA         3.4350   18.9640   37.6590 C.3    55  LEU55       0.1561
     45  C          3.8600   17.8010   36.7640 C.2    55  LEU55       0.2260
     46  O          3.7770   17.9210   35.5410 O.2    55  LEU55      -0.2867
     47  CB         4.6690   19.7680   38.1210 C.3    55  LEU55       0.0270
     48  CG         4.4470   21.1010   38.8570 C.3    55  LEU55       0.0019
     49  CD1        5.7430   21.6060   39.4460 C.3    55  LEU55       0.0001
     50  CD2        3.8700   22.1690   37.9490 C.3    55  LEU55       0.0001
     51  N          2.0290   23.9300   32.9460 N.3    64  LEU64      -0.1245
     52  CA         3.4400   23.9670   33.3490 C.3    64  LEU64       0.1561
     53  C          3.9610   22.5910   33.7950 C.2    64  LEU64       0.2260
     54  O          3.3440   21.9180   34.6250 O.2    64  LEU64      -0.2867
     55  CB         3.6750   25.0520   34.4290 C.3    64  LEU64       0.0270
     56  CG         5.1310   25.5110   34.6590 C.3    64  LEU64       0.0019
     57  CD1        5.5370   26.5870   33.6720 C.3    64  LEU64       0.0001
     58  CD2        5.3140   26.0400   36.0680 C.3    64  LEU64       0.0001
     59  N          7.5740   20.0950   34.8050 N.3    66  LEU66      -0.1245
     60  CA         8.9360   20.0580   35.3320 C.3    66  LEU66       0.1561
     61  C          9.9450   19.6960   34.2470 C.2    66  LEU66       0.2260
     62  O          9.6540   18.8630   33.3850 O.2    66  LEU66      -0.2867
     63  CB         9.0500   19.0650   36.5020 C.3    66  LEU66       0.0270
     64  CG         8.5120   19.5200   37.8560 C.3    66  LEU66       0.0019
     65  CD1        8.4990   18.3770   38.8390 C.3    66  LEU66       0.0001
     66  CD2        9.3300   20.6660   38.4250 C.3    66  LEU66       0.0001
     67  N         13.4050   23.2170   42.3200 N.3    72  LEU72      -0.1245
     68  CA        12.5020   22.8120   41.2370 C.3    72  LEU72       0.1561
     69  C         12.8080   23.5560   39.9550 C.2    72  LEU72       0.2260
     70  O         12.9480   24.7760   39.9820 O.2    72  LEU72      -0.2867
     71  CB        11.0270   22.9970   41.6230 C.3    72  LEU72       0.0270
     72  CG        10.4060   21.9680   42.5630 C.3    72  LEU72       0.0019
     73  CD1        8.9860   22.3520   42.9200 C.3    72  LEU72       0.0001
     74  CD2       10.4380   20.5630   41.9720 C.3    72  LEU72       0.0001
     75  N         11.7260   24.2610   35.7900 N.3    74  THR74      -0.1203
     76  CA        10.7460   24.3140   34.6870 C.3    74  THR74       0.1994
     77  C         11.3140   25.2770   33.6200 C.2    74  THR74       0.2618
     78  O         12.3880   25.8440   33.8340 O.2    74  THR74      -0.2717
     79  CB         9.3570   24.8290   35.1630 C.3    74  THR74       0.1784
     80  OG1        9.4830   26.1440   35.7060 O.3    74  THR74      -0.2211
     81  CG2        8.6670   23.8960   36.1530 C.3    74  THR74       0.0376
     82  N         10.5950   25.4810   32.4940 N.am   75  GLU75      -0.1965
     83  CA        11.0040   26.4320   31.4550 C.3    75  GLU75       0.1733
     84  C         10.7710   27.8520   31.9870 C.2    75  GLU75       0.2616
     85  O          9.8380   28.0570   32.7720 O.2    75  GLU75      -0.2715
     86  CB        10.1730   26.2330   30.1780 C.3    75  GLU75       0.0429
     87  CG        10.6540   25.1240   29.2600 C.3    75  GLU75       0.1163
     88  CD         9.8240   24.9680   27.9980 C.2    75  GLU75       0.3649
     89  OE1        9.8870   25.8660   27.1270 O.co2  75  GLU75      -0.2457
     90  OE2        9.1030   23.9500   27.8830 O.co2  75  GLU75      -0.2457
     91  N         11.6010   28.8250   31.5750 N.am   76  LEU76      -0.1963
     92  CA        11.4270   30.2050   32.0230 C.3    76  LEU76       0.1728
     93  C         10.3650   30.9040   31.1880 C.2    76  LEU76       0.2616
     94  O         10.4520   30.9140   29.9570 O.2    76  LEU76      -0.2715
     95  CB        12.7490   30.9930   32.0160 C.3    76  LEU76       0.0311
     96  CG        12.6970   32.4320   32.5590 C.3    76  LEU76       0.0022
     97  CD1       12.5300   32.4600   34.0790 C.3    76  LEU76       0.0001
     98  CD2       13.9340   33.2140   32.1470 C.3    76  LEU76       0.0001
     99  N          9.3560   31.4760   31.8670 N.am   77  MET77      -0.1977
    100  CA         8.2560   32.1850   31.2180 C.3    77  MET77       0.1605
    101  C          8.5250   33.6800   31.2470 C.2    77  MET77       0.2287
    102  O          8.7260   34.2440   32.3250 O.2    77  MET77      -0.2864
    103  CB         6.9000   31.8450   31.8710 C.3    77  MET77       0.0413
    104  CG         6.6070   30.3480   31.9740 C.3    77  MET77       0.0598
    105  SD         6.7310   29.4350   30.4200 S.3    77  MET77      -0.1393
    106  CE         5.2240   29.8730   29.6840 C.3    77  MET77       0.0692
    107  N          3.7330   37.2660   32.8280 N.3    80  ASP80      -0.1239
    108  CA         2.4010   36.7440   33.1270 C.3    80  ASP80       0.1674
    109  C          1.3350   37.6410   32.4700 C.2    80  ASP80       0.2266
    110  O          1.6630   38.7330   31.9840 O.2    80  ASP80      -0.2867
    111  CB         2.1700   36.5610   34.6490 C.3    80  ASP80       0.1410
    112  CG         2.4350   37.7650   35.5410 C.2    80  ASP80       0.3668
    113  OD1        1.9710   38.8760   35.2010 O.co2  80  ASP80      -0.2456
    114  OD2        3.0190   37.5770   36.6300 O.co2  80  ASP80      -0.2456
    115  N         -7.8530   28.8580   42.1970 N.3   120  ASP120     -0.1239
    116  CA        -7.2600   30.1880   42.3380 C.3   120  ASP120      0.1674
    117  C         -6.7000   30.7280   40.9910 C.2   120  ASP120      0.2266
    118  O         -5.5430   31.1570   40.9000 O.2   120  ASP120     -0.2867
    119  CB        -6.2290   30.1830   43.4900 C.3   120  ASP120      0.1410
    120  CG        -5.6790   31.5430   43.8740 C.2   120  ASP120      0.3668
    121  OD1       -6.4850   32.4400   44.1970 O.co2 120  ASP120     -0.2456
    122  OD2       -4.4380   31.7030   43.8640 O.co2 120  ASP120     -0.2456
    123  N         -6.1960   33.3840   38.1690 N.3   122  HIS122     -0.1241
    124  CA        -6.0980   34.8360   38.0160 C.3   122  HIS122      0.1621
    125  C         -4.9470   35.1730   37.0570 C.2   122  HIS122      0.2264
    126  O         -4.0740   34.3280   36.8580 O.2   122  HIS122     -0.2867
    127  CB        -5.9500   35.5440   39.3840 C.3   122  HIS122      0.0745
    128  CG        -4.7140   35.1980   40.1520 C.ar  122  HIS122      0.0817
    129  ND1       -4.7150   34.1970   41.1020 N.ar  122  HIS122     -0.2268
    130  CD2       -3.4920   35.7730   40.1250 C.ar  122  HIS122      0.1154
    131  CE1       -3.4900   34.1760   41.6000 C.ar  122  HIS122      0.1986
    132  NE2       -2.7140   35.0950   41.0270 N.ar  122  HIS122     -0.2212
    133  N         -2.1920   36.5200   37.2570 N.3   124  GLY124     -0.1210
    134  CA        -0.8850   36.3530   37.8830 C.3   124  GLY124      0.1956
    135  C         -0.2810   34.9710   37.7230 C.2   124  GLY124      0.2611
    136  O          0.9470   34.8370   37.7360 O.2   124  GLY124     -0.2717
    137  N         -1.1310   33.9280   37.5970 N.am  125  ASN125     -0.1974
    138  CA        -0.6750   32.5460   37.4000 C.3   125  ASN125      0.1688
    139  C         -0.9670   31.9920   35.9930 C.2   125  ASN125      0.2292
    140  O         -0.8810   30.7830   35.7530 O.2   125  ASN125     -0.2864
    141  CB        -1.0970   31.6040   38.5450 C.3   125  ASN125      0.1181
    142  CG        -2.5740   31.4950   38.7870 C.2   125  ASN125      0.2629
    143  OD1       -3.4020   31.5590   37.8710 O.2   125  ASN125     -0.2716
    144  ND2       -2.9340   31.2820   40.0350 N.am  125  ASN125     -0.0877
    145  N          0.7620   32.3520   32.7800 N.3   127  LEU127     -0.1245
    146  CA         2.0750   32.7530   32.2680 C.3   127  LEU127      0.1561
    147  C          2.1390   32.7250   30.7430 C.2   127  LEU127      0.2260
    148  O          1.4750   31.9000   30.1200 O.2   127  LEU127     -0.2867
    149  CB         3.2090   31.8880   32.8810 C.3   127  LEU127      0.0270
    150  CG         3.0810   31.4330   34.3590 C.3   127  LEU127      0.0019
    151  CD1        4.1730   30.4540   34.7210 C.3   127  LEU127      0.0001
    152  CD2        3.1050   32.6100   35.3320 C.3   127  LEU127      0.0001
    153  N         -0.0450   27.5870   35.9030 N.3   137  CYS137     -0.1221
    154  CA         0.6670   27.0840   37.0800 C.3   137  CYS137      0.1808
    155  C         -0.1860   27.3740   38.3270 C.2   137  CYS137      0.2601
    156  O         -1.2750   27.9290   38.1940 O.2   137  CYS137     -0.2717
    157  CB         2.0590   27.7050   37.1880 C.3   137  CYS137      0.0970
    158  SG         2.0590   29.4770   37.5710 S.3   137  CYS137     -0.0800
    159  N          0.3090   27.0060   39.5290 N.am  138  ASP138     -0.1973
    160  CA        -0.3410   27.2340   40.8270 C.3   138  ASP138      0.1709
    161  C         -1.7300   26.5450   40.9670 C.2   138  ASP138      0.2293
    162  O         -2.6460   27.1070   41.5820 O.2   138  ASP138     -0.2864
    163  CB        -0.3720   28.7500   41.1740 C.3   138  ASP138      0.1436
    164  CG        -0.2060   29.0810   42.6440 C.2   138  ASP138      0.3671
    165  OD1        0.9410   29.0100   43.1420 O.co2 138  ASP138     -0.2456
    166  OD2       -1.2110   29.4770   43.2810 O.co2 138  ASP138     -0.2456
    167  N         -0.5660   39.6500   48.7580 N.3   142  TYR142     -0.1241
    168  CA        -1.6280   39.8380   47.7700 C.3   142  TYR142      0.1605
    169  C         -3.0230   39.7500   48.4050 C.2   142  TYR142      0.2264
    170  O         -3.2010   39.0590   49.4130 O.2   142  TYR142     -0.2867
    171  CB        -1.4830   38.8300   46.6200 C.3   142  TYR142      0.0534
    172  CG        -1.4370   37.3790   47.0290 C.ar  142  TYR142     -0.0201
    173  CD1       -2.6180   36.6550   47.1970 C.ar  142  TYR142     -0.0009
    174  CD2       -0.2320   36.7140   47.2290 C.ar  142  TYR142     -0.0009
    175  CE1       -2.5970   35.3220   47.5710 C.ar  142  TYR142      0.0417
    176  CE2       -0.1960   35.3820   47.5970 C.ar  142  TYR142      0.0417
    177  CZ        -1.3820   34.6970   47.7610 C.ar  142  TYR142      0.1957
    178  OH        -1.3630   33.3720   48.1440 O.3   142  TYR142     -0.2866
@<TRIPOS>BOND
     1    89    88   ar
     2    90    88   ar
     3    88    87    1
     4    87    86    1
     5   106   105    1
     6    94    93    2
     7   148   147    2
     8    86    83    1
     9   105   104    1
    10   147   146    1
    11    93    99   am
    12    93    92    1
    13   100   101    1
    14   100    99    1
    15   100   103    1
    16   101   102    2
    17    83    84    1
    18    83    82    1
    19    91    84   am
    20    91    92    1
    21   103   104    1
    22   110   109    2
    23    84    85    2
    24    95    92    1
    25    95    96    1
    26    98    96    1
    27   146   145    1
    28   146   149    1
    29   109   108    1
    30    82    77   am
    31    96    97    1
    32   107   108    1
    33   149   150    1
    34    51    52    1
    35   108   111    1
    36    52    53    1
    37    52    55    1
    38    62    61    2
    39    77    78    2
    40    77    76    1
    41    57    56    1
    42    53    54    2
    43    61    60    1
    44   150   151    1
    45   150   152    1
    46    55    56    1
    47   111   112    1
    48    56    58    1
    49    76    79    1
    50    76    75    1
    51    59    60    1
    52    20    21    1
    53    79    80    1
    54    79    81    1
    55   113   112   ar
    56    60    63    1
    57   112   114   ar
    58    46    45    2
    59   140   139    2
    60   153   154    1
    61    24    21    1
    62   139   138    1
    63    21    22    1
    64    63    64    1
    65    45    44    1
    66   126   125    2
    67   125   124    1
    68   154   157    1
    69   154   155    1
    70   157   158    1
    71    23    22    2
    72   133   134    1
    73   138   137    1
    74   138   141    1
    75   137   135   am
    76    44    47    1
    77    44    43    1
    78   135   136    2
    79   135   134    1
    80    64    66    1
    81    64    65    1
    82   143   142    2
    83    50    48    1
    84   124   123    1
    85   124   127    1
    86    47    48    1
    87   156   155    2
    88   155   159   am
    89   141   142    1
    90   142   144   am
    91    48    49    1
    92   127   128    1
    93   159   160    1
    94    18    17    1
    95    69    70    2
    96    69    68    1
    97   130   128   ar
    98   130   132   ar
    99   128   129   ar
   100   160   161    1
   101   160   163    1
   102   118   117    2
   103   161   162    2
   104   117   116    1
   105   132   131   ar
   106   129   131   ar
   107   163   164    1
   108    68    71    1
   109    68    67    1
   110    25    26    1
   111    17    19    1
   112    17    14    1
   113    37    36    2
   114    15    16    2
   115    15    14    1
   116    71    72    1
   117    74    72    1
   118    14    13    1
   119   115   116    1
   120   116   119    1
   121    29    26    1
   122    29    30    1
   123    26    27    1
   124    72    73    1
   125    36    35    1
   126    41    40   ar
   127   164   165   ar
   128   164   166   ar
   129    39    40    1
   130    39    38    1
   131    31    30    1
   132    31    32    1
   133    40    42   ar
   134   119   120    1
   135    12    11    1
   136    35    38    1
   137    35    34    1
   138    28    27    2
   139   122   120   ar
   140   120   121   ar
   141    33    32    1
   142     9    11   ar
   143     9     7   ar
   144    11    10   ar
   145     7     6   ar
   146    10     8   ar
   147     6     8   ar
   148     6     5    1
   149   171   172    1
   150   171   168    1
   151   172   173   ar
   152   172   174   ar
   153   173   175   ar
   154   174   176   ar
   155     5     2    1
   156   175   177   ar
   157   176   177   ar
   158   177   178    1
   159   168   169    1
   160   168   167    1
   161     4     3    2
   162     3     2    1
   163   169   170    2
   164     2     1    1
