@<TRIPOS>MOLECULE
tmp/3uicL01.pdb
 154 148 0 0 0
SMALL
GASTEIGER

@<TRIPOS>ATOM
      1  N         19.8520  -24.3620   98.6700 N.3    91  ALA91      -0.1231
      2  CA        18.6610  -23.5680   98.4450 C.3    91  ALA91       0.1694
      3  C         17.6790  -24.3210   97.5190 C.2    91  ALA91       0.2592
      4  O         18.0820  -25.1820   96.7730 O.2    91  ALA91      -0.2718
      5  CB        19.0660  -22.1940   97.8570 C.3    91  ALA91       0.0304
      6  N         16.4080  -23.9680   97.5540 N.am   92  PHE92      -0.1962
      7  CA        15.4470  -24.5040   96.6000 C.3    92  PHE92       0.1771
      8  C         14.1250  -23.7240   96.6570 C.2    92  PHE92       0.2619
      9  O         13.6680  -23.3560   97.7140 O.2    92  PHE92      -0.2715
     10  CB        15.1610  -26.0160   96.8360 C.3    92  PHE92       0.0574
     11  CG        14.0970  -26.5720   95.9280 C.ar   92  PHE92      -0.0200
     12  CD1       14.3950  -26.8730   94.5980 C.ar   92  PHE92      -0.0042
     13  CD2       12.7790  -26.7510   96.3840 C.ar   92  PHE92      -0.0042
     14  CE1       13.4180  -27.3630   93.7320 C.ar   92  PHE92      -0.0003
     15  CE2       11.7760  -27.2380   95.5240 C.ar   92  PHE92      -0.0003
     16  CZ        12.1140  -27.5420   94.1980 C.ar   92  PHE92      -0.0000
     17  N         13.5000  -23.5310   95.5070 N.am   93  ALA93      -0.1977
     18  CA        12.1040  -23.1370   95.4570 C.3    93  ALA93       0.1597
     19  C         11.5630  -23.8290   94.2110 C.2    93  ALA93       0.2287
     20  O         12.3310  -24.0480   93.3020 O.2    93  ALA93      -0.2864
     21  CB        11.9850  -21.5990   95.3350 C.3    93  ALA93       0.0319
     22  N         10.0080  -18.6740   90.3120 N.3    98  LEU98      -0.1245
     23  CA        11.2840  -18.0780   89.9960 C.3    98  LEU98       0.1561
     24  C         11.4020  -17.3800   88.6760 C.2    98  LEU98       0.2260
     25  O         12.5090  -17.1230   88.2310 O.2    98  LEU98      -0.2867
     26  CB        12.3950  -19.1040   90.0830 C.3    98  LEU98       0.0270
     27  CG        13.0980  -19.2550   91.4250 C.3    98  LEU98       0.0019
     28  CD1       13.5810  -20.6900   91.5080 C.3    98  LEU98       0.0001
     29  CD2       14.2580  -18.2840   91.6080 C.3    98  LEU98       0.0001
     30  N         22.2010  -14.3790   98.9670 N.3   145  TYR145     -0.1241
     31  CA        22.2930  -13.5620   97.7610 C.3   145  TYR145      0.1605
     32  C         21.5980  -12.2280   97.9780 C.2   145  TYR145      0.2264
     33  O         20.6010  -12.1480   98.7040 O.2   145  TYR145     -0.2867
     34  CB        21.6480  -14.3010   96.5900 C.3   145  TYR145      0.0534
     35  CG        21.6840  -13.5570   95.2820 C.ar  145  TYR145     -0.0201
     36  CD1       22.8980  -13.2950   94.6510 C.ar  145  TYR145     -0.0009
     37  CD2       20.5030  -13.0900   94.6750 C.ar  145  TYR145     -0.0009
     38  CE1       22.9450  -12.6100   93.4420 C.ar  145  TYR145      0.0417
     39  CE2       20.5570  -12.4090   93.4660 C.ar  145  TYR145      0.0417
     40  CZ        21.7830  -12.1740   92.8640 C.ar  145  TYR145      0.1957
     41  OH        21.8560  -11.4790   91.6890 O.3   145  TYR145     -0.2866
     42  N         14.6270   -7.8690   93.0630 N.3   152  MET152     -0.1231
     43  CA        15.2460   -8.0900   91.7610 C.3   152  MET152      0.1687
     44  C         14.2350   -8.7610   90.8370 C.2   152  MET152      0.2434
     45  O         13.2560   -9.3040   91.3080 O.2   152  MET152     -0.2733
     46  CB        16.4460   -8.9750   91.9270 C.3   152  MET152      0.0400
     47  CG        17.3980   -8.4530   92.9560 C.3   152  MET152      0.0596
     48  SD        18.8590   -9.4630   92.8610 S.3   152  MET152     -0.1393
     49  CE        19.9130   -8.4350   91.7980 C.3   152  MET152      0.0692
     50  N         14.4530   -8.6830   89.5100 N.am  153  PRO153     -0.2718
     51  CA        13.5500   -9.4490   88.6560 C.3   153  PRO153      0.1535
     52  C         13.9300  -10.9110   88.8100 C.2   153  PRO153      0.2599
     53  O         15.1140  -11.2340   89.1340 O.2   153  PRO153     -0.2715
     54  CB        13.8920   -8.9550   87.2530 C.3   153  PRO153      0.0310
     55  CG        15.3760   -8.5980   87.3380 C.3   153  PRO153      0.0237
     56  CD        15.5570   -8.0590   88.7430 C.3   153  PRO153      0.0939
     57  N         12.9220  -11.7700   88.6150 N.am  154  SER154     -0.1936
     58  CA        13.0810  -13.2560   88.6480 C.3   154  SER154      0.2055
     59  C         13.2400  -13.9180   90.0130 C.2   154  SER154      0.2643
     60  O         12.5450  -14.8700   90.2920 O.2   154  SER154     -0.2714
     61  CB        14.2020  -13.7410   87.7030 C.3   154  SER154      0.2130
     62  OG        13.8000  -13.6230   86.3460 O.3   154  SER154     -0.2179
     63  N         14.1410  -13.4260   90.8510 N.am  155  TYR155     -0.1973
     64  CA        14.5170  -14.1310   92.0940 C.3   155  TYR155      0.1639
     65  C         13.3360  -14.3620   93.0380 C.2   155  TYR155      0.2290
     66  O         13.2440  -15.4060   93.6770 O.2   155  TYR155     -0.2864
     67  CB        15.6380  -13.4100   92.7970 C.3   155  TYR155      0.0560
     68  CG        16.4730  -14.3010   93.6360 C.ar  155  TYR155     -0.0198
     69  CD1       17.1200  -15.3990   93.0890 C.ar  155  TYR155     -0.0009
     70  CD2       16.6460  -14.0410   94.9920 C.ar  155  TYR155     -0.0009
     71  CE1       17.9350  -16.2150   93.8790 C.ar  155  TYR155      0.0417
     72  CE2       17.4300  -14.8500   95.7980 C.ar  155  TYR155      0.0417
     73  CZ        18.0870  -15.9210   95.2520 C.ar  155  TYR155      0.1957
     74  OH        18.9050  -16.6890   96.0550 O.3   155  TYR155     -0.2866
     75  N         12.6610  -16.6580   96.1250 N.3   158  MET158     -0.1245
     76  CA        13.9320  -16.9940   96.7430 C.3   158  MET158      0.1570
     77  C         14.4940  -15.7960   97.4610 C.2   158  MET158      0.2261
     78  O         15.2840  -15.9180   98.4480 O.2   158  MET158     -0.2867
     79  CB        14.9490  -17.4840   95.7370 C.3   158  MET158      0.0387
     80  CG        14.9890  -18.9950   95.5680 C.3   158  MET158      0.0595
     81  SD        15.2620  -19.9990   97.0740 S.3   158  MET158     -0.1393
     82  CE        16.7280  -19.2360   97.7260 C.3   158  MET158      0.0692
     83  N         15.6360  -15.8170  101.0820 N.3   162  LYS162     -0.1245
     84  CA        17.0150  -15.5040  101.5060 C.3   162  LYS162      0.1561
     85  C         16.9860  -14.5000  102.6410 C.2   162  LYS162      0.2260
     86  O         17.9000  -14.4690  103.4730 O.2   162  LYS162     -0.2867
     87  CB        17.8750  -14.9430  100.3740 C.3   162  LYS162      0.0271
     88  CG        18.2900  -16.0080   99.3790 C.3   162  LYS162      0.0035
     89  CD        19.1120  -17.0740  100.0950 C.3   162  LYS162      0.0206
     90  CE        19.8670  -17.9100   99.0900 C.3   162  LYS162      0.1093
     91  NZ        20.6960  -18.9740   99.7340 N.3   162  LYS162     -0.1314
     92  N         26.5640  -13.5850   91.4470 N.3   190  PRO190     -0.2102
     93  CA        26.0450  -14.7170   90.6550 C.3   190  PRO190      0.1504
     94  C         27.1950  -15.5160   90.0400 C.2   190  PRO190      0.2575
     95  O         28.2240  -14.9420   89.7220 O.2   190  PRO190     -0.2718
     96  CB        25.1420  -14.0580   89.5880 C.3   190  PRO190      0.0282
     97  CG        25.5470  -12.6020   89.5430 C.3   190  PRO190      0.0208
     98  CD        26.3300  -12.2710   90.7810 C.3   190  PRO190      0.0893
     99  N         27.0260  -16.8310   89.9750 N.am  191  ILE191     -0.1980
    100  CA        28.0400  -17.8170   89.5050 C.3   191  ILE191      0.1595
    101  C         27.3080  -18.9430   88.7760 C.2   191  ILE191      0.2287
    102  O         26.3060  -19.4600   89.2850 O.2   191  ILE191     -0.2864
    103  CB        28.8280  -18.4780   90.6550 C.3   191  ILE191      0.0276
    104  CG1       29.5330  -17.4320   91.5230 C.3   191  ILE191      0.0022
    105  CG2       29.9110  -19.3860   90.0980 C.3   191  ILE191      0.0022
    106  CD1       29.8460  -17.9500   92.8900 C.3   191  ILE191      0.0001
    107  N         26.1360  -22.0790   88.0600 N.3   193  THR193     -0.1218
    108  CA        26.1660  -23.3690   88.7760 C.3   193  THR193      0.1862
    109  C         24.9370  -24.0930   88.3450 C.2   193  THR193      0.2287
    110  O         24.1460  -23.5080   87.6320 O.2   193  THR193     -0.2866
    111  CB        26.1390  -23.1770   90.3340 C.3   193  THR193      0.1770
    112  OG1       24.8490  -22.7040   90.7510 O.3   193  THR193     -0.2211
    113  CG2       27.2630  -22.2220   90.8130 C.3   193  THR193      0.0375
    114  N         22.1680  -24.6750   90.0760 N.3   195  ALA195     -0.1231
    115  CA        21.0080  -23.8550   90.4710 C.3   195  ALA195      0.1694
    116  C         20.7360  -22.7220   89.4590 C.2   195  ALA195      0.2591
    117  O         19.5900  -22.3710   89.1560 O.2   195  ALA195     -0.2718
    118  CB        21.2000  -23.3010   91.8780 C.3   195  ALA195      0.0304
    119  N         21.8150  -22.1950   88.9120 N.am  196  ALA196     -0.1980
    120  CA        21.7350  -21.1180   87.9510 C.3   196  ALA196      0.1597
    121  C         21.0720  -21.5120   86.6420 C.2   196  ALA196      0.2287
    122  O         20.4620  -20.6770   85.9600 O.2   196  ALA196     -0.2864
    123  CB        23.1140  -20.5520   87.6860 C.3   196  ALA196      0.0319
    124  N         18.4510  -23.0590   86.0720 N.3   198  GLY198     -0.1210
    125  CA        16.9990  -22.8530   86.0600 C.3   198  GLY198      0.1956
    126  C         16.6130  -21.5290   85.4000 C.2   198  GLY198      0.2611
    127  O         15.5690  -21.4370   84.7590 O.2   198  GLY198     -0.2717
    128  N         17.4800  -20.5180   85.5350 N.am  199  ILE199     -0.1979
    129  CA        17.1710  -19.1080   85.1570 C.3   199  ILE199      0.1595
    130  C         17.5290  -18.8290   83.6890 C.2   199  ILE199      0.2287
    131  O         18.7000  -18.9580   83.2960 O.2   199  ILE199     -0.2864
    132  CB        17.9220  -18.1130   86.0750 C.3   199  ILE199      0.0276
    133  CG1       17.9030  -18.5820   87.5460 C.3   199  ILE199      0.0022
    134  CG2       17.4260  -16.6880   85.8630 C.3   199  ILE199      0.0022
    135  CD1       16.5400  -18.9460   88.1370 C.3   199  ILE199      0.0001
    136  N         20.4960  -16.1090   82.4260 N.3   202  PHE202     -0.1241
    137  CA        21.5200  -16.0270   83.4500 C.3   202  PHE202      0.1605
    138  C         22.8180  -15.3800   82.9560 C.2   202  PHE202      0.2264
    139  O         23.4540  -14.5940   83.6860 O.2   202  PHE202     -0.2867
    140  CB        21.7850  -17.4010   84.0860 C.3   202  PHE202      0.0534
    141  CG        22.5190  -17.3160   85.3830 C.ar  202  PHE202     -0.0203
    142  CD1       21.8350  -16.9940   86.5690 C.ar  202  PHE202     -0.0042
    143  CD2       23.9090  -17.5100   85.4320 C.ar  202  PHE202     -0.0042
    144  CE1       22.5410  -16.8890   87.7700 C.ar  202  PHE202     -0.0003
    145  CE2       24.6180  -17.4200   86.6360 C.ar  202  PHE202     -0.0003
    146  CZ        23.9350  -17.1110   87.8040 C.ar  202  PHE202     -0.0000
    147  N         22.5490  -11.6420   83.3590 N.3   205  MET205     -0.1245
    148  CA        22.7880  -11.2480   84.7510 C.3   205  MET205      0.1570
    149  C         24.2730  -11.2260   85.0620 C.2   205  MET205      0.2261
    150  O         24.7520  -10.2310   85.5960 O.2   205  MET205     -0.2867
    151  CB        22.0500  -12.1570   85.7070 C.3   205  MET205      0.0387
    152  CG        20.5680  -12.1120   85.4190 C.3   205  MET205      0.0595
    153  SD        19.6450  -13.2810   86.3740 S.3   205  MET205     -0.1393
    154  CE        17.9540  -12.9540   85.8010 C.3   205  MET205      0.0692
@<TRIPOS>BOND
     1   136   137    1
     2   138   137    1
     3   138   139    2
     4   131   130    2
     5   147   148    1
     6   137   140    1
     7   130   129    1
     8   140   141    1
     9   148   149    1
    10   148   151    1
    11   127   126    2
    12   149   150    2
    13   129   128    1
    14   129   132    1
    15   141   143   ar
    16   141   142   ar
    17   126   128   am
    18   126   125    1
    19   152   151    1
    20   152   153    1
    21   143   145   ar
    22   154   153    1
    23   134   132    1
    24   122   121    2
    25   125   124    1
    26   132   133    1
    27    62    61    1
    28   142   144   ar
    29   145   146   ar
    30   121   120    1
    31    54    55    1
    32    54    51    1
    33    55    56    1
    34   133   135    1
    35   110   109    2
    36   123   120    1
    37    61    58    1
    38   144   146   ar
    39   120   119    1
    40   107   108    1
    41    25    24    2
    42   109   108    1
    43    57    58    1
    44    57    52   am
    45    58    59    1
    46    51    52    1
    47    51    50    1
    48    24    23    1
    49    56    50    1
    50   101   102    2
    51   101   100    1
    52   108   111    1
    53    52    53    2
    54   119   116   am
    55   117   116    2
    56   116   115    1
    57   100    99    1
    58   100   103    1
    59    50    44   am
    60    97    96    1
    61    97    98    1
    62    96    93    1
    63    95    94    2
    64    99    94   am
    65    23    26    1
    66    23    22    1
    67    59    60    2
    68    59    63   am
    69    94    93    1
    70   114   115    1
    71    26    27    1
    72   105   103    1
    73   111   112    1
    74   111   113    1
    75   115   118    1
    76    93    92    1
    77   103   104    1
    78    98    92    1
    79    44    45    2
    80    44    43    1
    81    63    64    1
    82    27    28    1
    83    27    29    1
    84   104   106    1
    85    41    40    1
    86    43    46    1
    87    43    42    1
    88    49    48    1
    89    46    47    1
    90    64    67    1
    91    64    65    1
    92    67    68    1
    93    48    47    1
    94    40    38   ar
    95    40    39   ar
    96    65    66    2
    97    69    68   ar
    98    69    71   ar
    99    20    19    2
   100    38    36   ar
   101    39    37   ar
   102    68    70   ar
   103    14    16   ar
   104    14    12   ar
   105    71    73   ar
   106    16    15   ar
   107    19    18    1
   108    12    11   ar
   109    36    35   ar
   110    37    35   ar
   111    70    72   ar
   112    73    72   ar
   113    73    74    1
   114    35    34    1
   115    21    18    1
   116    18    17    1
   117    17     8   am
   118    15    13   ar
   119    80    79    1
   120    80    81    1
   121    79    76    1
   122    11    13   ar
   123    11    10    1
   124    75    76    1
   125    34    31    1
   126     7     8    1
   127     7    10    1
   128     7     6    1
   129     8     9    2
   130    76    77    1
   131     4     3    2
   132    81    82    1
   133    77    78    2
   134     3     6   am
   135     3     2    1
   136    31    32    1
   137    31    30    1
   138     5     2    1
   139    32    33    2
   140     2     1    1
   141    90    91    1
   142    90    89    1
   143    88    89    1
   144    88    87    1
   145    87    84    1
   146    83    84    1
   147    84    85    1
   148    85    86    2
