@<TRIPOS>MOLECULE
tmp/3uieA01.pdb
 133 126 0 0 0
SMALL
GASTEIGER

@<TRIPOS>ATOM
      1  N         14.1880   -7.7640  -17.4630 N.3    25  SER25      -0.1202
      2  CA        15.2780   -7.3780  -16.5870 C.3    25  SER25       0.2020
      3  C         16.2960   -6.5690  -17.3910 C.2    25  SER25       0.2619
      4  O         16.6850   -6.9630  -18.4970 O.2    25  SER25      -0.2717
      5  CB        15.9550   -8.6240  -16.0040 C.3    25  SER25       0.2103
      6  OG        16.8820   -8.2680  -14.9980 O.3    25  SER25      -0.2182
      7  N         16.7230   -5.4370  -16.8440 N.am   26  GLY26      -0.1942
      8  CA        17.7320   -4.6090  -17.4840 C.3    26  GLY26       0.2014
      9  C         17.1840   -3.6220  -18.5010 C.2    26  GLY26       0.2640
     10  O         17.9480   -2.8860  -19.1160 O.2    26  GLY26      -0.2714
     11  N         15.8620   -3.5950  -18.6720 N.am   27  SER27      -0.1935
     12  CA        15.2420   -2.7320  -19.6850 C.3    27  SER27       0.2055
     13  C         15.1850   -1.2740  -19.2420 C.2    27  SER27       0.2644
     14  O         14.9060   -0.3840  -20.0430 O.2    27  SER27      -0.2714
     15  CB        13.8380   -3.2290  -20.0550 C.3    27  SER27       0.2130
     16  OG        12.9870   -3.2980  -18.9280 O.3    27  SER27      -0.2179
     17  N         15.4450   -1.0400  -17.9590 N.am   28  GLY28      -0.1939
     18  CA        15.5000    0.3050  -17.4060 C.3    28  GLY28       0.2014
     19  C         14.2390    0.7680  -16.6730 C.2    28  GLY28       0.2639
     20  O         13.9960    1.9720  -16.5630 O.2    28  GLY28      -0.2714
     21  N         13.4480   -0.1720  -16.1580 N.am   29  LYS29      -0.1963
     22  CA        12.2180    0.1670  -15.4440 C.3    29  LYS29       0.1728
     23  C         12.4770    1.0210  -14.1880 C.2    29  LYS29       0.2617
     24  O         11.8300    2.0520  -13.9790 O.2    29  LYS29      -0.2715
     25  CB        11.4510   -1.1060  -15.0580 C.3    29  LYS29       0.0311
     26  CG        11.0170   -1.9840  -16.2360 C.3    29  LYS29       0.0038
     27  CD        10.3550   -3.2640  -15.7040 C.3    29  LYS29       0.0206
     28  CE        11.2660   -4.0490  -14.7530 C.3    29  LYS29       0.1093
     29  NZ        12.4100   -4.7150  -15.4750 N.3    29  LYS29      -0.1314
     30  N         13.4230    0.5940  -13.3590 N.am   30  SER30      -0.1936
     31  CA        13.6970    1.2950  -12.1000 C.3    30  SER30       0.2055
     32  C         14.3140    2.6660  -12.3550 C.2    30  SER30       0.2643
     33  O         14.0300    3.6470  -11.6460 O.2    30  SER30      -0.2714
     34  CB        14.6050    0.4480  -11.1900 C.3    30  SER30       0.2130
     35  OG        13.9030   -0.7170  -10.7910 O.3    30  SER30      -0.2179
     36  N         15.1570    2.7330  -13.3730 N.am   31  THR31      -0.1950
     37  CA        15.8030    3.9840  -13.7220 C.3    31  THR31       0.1897
     38  C         14.7640    5.0120  -14.1760 C.2    31  THR31       0.2313
     39  O         14.8050    6.1860  -13.7820 O.2    31  THR31      -0.2863
     40  CB        16.8480    3.7640  -14.8000 C.3    31  THR31       0.1794
     41  OG1       17.8700    2.9030  -14.2780 O.3    31  THR31      -0.2208
     42  CG2       17.4480    5.0840  -15.2030 C.3    31  THR31       0.0378
     43  N          8.6500   -1.1010   -6.2950 N.3    51  ASP51      -0.1239
     44  CA         9.6040   -1.8020   -7.1410 C.3    51  ASP51       0.1674
     45  C          9.6400   -3.2850   -6.8090 C.2    51  ASP51       0.2266
     46  O          9.7020   -3.6810   -5.6340 O.2    51  ASP51      -0.2867
     47  CB        10.9870   -1.1890   -6.9840 C.3    51  ASP51       0.1410
     48  CG        11.9880   -1.7730   -7.9630 C.2    51  ASP51       0.3668
     49  OD1       12.0070   -1.3130   -9.1190 O.co2  51  ASP51      -0.2456
     50  OD2       12.7310   -2.6910   -7.5760 O.co2  51  ASP51      -0.2456
     51  N         11.8340   -5.6130   -6.8830 N.3    53  ASP53      -0.1239
     52  CA        12.8910   -6.0600   -5.9830 C.3    53  ASP53       0.1674
     53  C         12.5770   -5.6690   -4.5280 C.2    53  ASP53       0.2266
     54  O         12.5850   -6.5200   -3.6280 O.2    53  ASP53      -0.2867
     55  CB        14.2520   -5.5120   -6.4210 C.3    53  ASP53       0.1410
     56  CG        15.4110   -6.1640   -5.6820 C.2    53  ASP53       0.3668
     57  OD1       15.3540   -7.3910   -5.4420 O.co2  53  ASP53      -0.2456
     58  OD2       16.3760   -5.4480   -5.3380 O.co2  53  ASP53      -0.2456
     59  N          9.0680   -6.6450  -13.4980 N.3    96  ILE96      -0.1245
     60  CA         9.1500   -7.3140  -14.8000 C.3    96  ILE96       0.1561
     61  C          7.7500   -7.6490  -15.3020 C.2    96  ILE96       0.2260
     62  O          7.4210   -7.4050  -16.4620 O.2    96  ILE96      -0.2867
     63  CB        10.0260   -8.5900  -14.7500 C.3    96  ILE96       0.0252
     64  CG1       11.4700   -8.2220  -14.4090 C.3    96  ILE96       0.0019
     65  CG2        9.9690   -9.3380  -16.0940 C.3    96  ILE96       0.0019
     66  CD1       12.3990   -9.4270  -14.2510 C.3    96  ILE96       0.0001
     67  N         23.6710   -4.8960  -21.2870 N.3   130  ARG130     -0.1245
     68  CA        23.7190   -4.1370  -20.0430 C.3   130  ARG130      0.1563
     69  C         24.0100   -5.0800  -18.8740 C.2   130  ARG130      0.2260
     70  O         25.0300   -4.9460  -18.2000 O.2   130  ARG130     -0.2867
     71  CB        22.4030   -3.3900  -19.8050 C.3   130  ARG130      0.0307
     72  CG        22.1240   -2.2780  -20.8210 C.3   130  ARG130      0.0489
     73  CD        20.7070   -1.7470  -20.6620 C.3   130  ARG130      0.2205
     74  NE        20.3980   -0.6590  -21.5910 N.pl3 130  ARG130     -0.0865
     75  CZ        19.2410   -0.0030  -21.5950 C.cat 130  ARG130      0.5346
     76  NH1       18.2920   -0.3400  -20.7330 N.pl3 130  ARG130      0.1354
     77  NH2       19.0270    0.9760  -22.4600 N.pl3 130  ARG130      0.1354
     78  N         23.3720   -5.4480  -15.7760 N.3   132  PRO132     -0.2102
     79  CA        23.9890   -4.7060  -14.6690 C.3   132  PRO132      0.1504
     80  C         24.3000   -5.5950  -13.4700 C.2   132  PRO132      0.2575
     81  O         25.2880   -5.3630  -12.7750 O.2   132  PRO132     -0.2718
     82  CB        22.9090   -3.6910  -14.2750 C.3   132  PRO132      0.0282
     83  CG        21.9460   -3.6690  -15.3940 C.3   132  PRO132      0.0208
     84  CD        21.9890   -5.0120  -16.0300 C.3   132  PRO132      0.0893
     85  N         23.4590   -6.5970  -13.2340 N.am  133  LYS133     -0.1980
     86  CA        23.5800   -7.4400  -12.0500 C.3   133  LYS133      0.1596
     87  C         24.1790   -8.8080  -12.3570 C.2   133  LYS133      0.2287
     88  O         24.3270   -9.6370  -11.4600 O.2   133  LYS133     -0.2864
     89  CB        22.2130   -7.6120  -11.3760 C.3   133  LYS133      0.0298
     90  CG        21.4980   -6.3030  -11.0780 C.3   133  LYS133      0.0038
     91  CD        20.0500   -6.5390  -10.6620 C.3   133  LYS133      0.0206
     92  CE        19.2460   -5.2440  -10.6870 C.3   133  LYS133      0.1093
     93  NZ        17.8220   -5.4440  -10.2890 N.3   133  LYS133     -0.1314
     94  N         22.8170  -11.1370  -14.1050 N.3   135  LEU135     -0.1245
     95  CA        21.7810  -12.1610  -14.0430 C.3   135  LEU135      0.1561
     96  C         21.6450  -12.9630  -15.3270 C.2   135  LEU135      0.2260
     97  O         21.4140  -14.1720  -15.2810 O.2   135  LEU135     -0.2867
     98  CB        20.4280  -11.5380  -13.6940 C.3   135  LEU135      0.0270
     99  CG        20.3320  -10.9660  -12.2820 C.3   135  LEU135      0.0019
    100  CD1       19.0180  -10.2350  -12.1260 C.3   135  LEU135      0.0001
    101  CD2       20.4700  -12.0740  -11.2590 C.3   135  LEU135      0.0001
    102  N         19.8200    5.7910  -27.3690 N.3   169  GLY169     -0.1210
    103  CA        20.1820    6.9750  -26.6130 C.3   169  GLY169      0.1956
    104  C         19.0290    7.8900  -26.2430 C.2   169  GLY169      0.2613
    105  O         19.1620    9.1140  -26.3150 O.2   169  GLY169     -0.2717
    106  N         17.8920    7.3130  -25.8620 N.am  170  THR170     -0.1938
    107  CA        16.8510    8.1200  -25.2360 C.3   170  THR170      0.2028
    108  C         17.0680    8.0460  -23.7220 C.2   170  THR170      0.2643
    109  O         17.0750    6.9800  -23.1100 O.2   170  THR170     -0.2714
    110  CB        15.4300    7.7110  -25.6430 C.3   170  THR170      0.1808
    111  OG1       14.5340    8.8050  -25.4090 O.3   170  THR170     -0.2208
    112  CG2       14.9700    6.4970  -24.8650 C.3   170  THR170      0.0379
    113  N         17.2910    9.2030  -23.1330 N.am  171  SER171     -0.1936
    114  CA        17.7670    9.2580  -21.7580 C.3   171  SER171      0.2040
    115  C         16.6180    9.0340  -20.7820 C.2   171  SER171      0.2485
    116  O         15.4480    9.2500  -21.1130 O.2   171  SER171     -0.2729
    117  CB        18.4160   10.6140  -21.5390 C.3   171  SER171      0.2129
    118  OG        17.4200   11.6170  -21.5090 O.3   171  SER171     -0.2179
    119  N         16.9410    8.5800  -19.5630 N.am  172  PRO172     -0.2726
    120  CA        15.8800    8.4270  -18.5620 C.3   172  PRO172      0.1402
    121  C         15.1300    9.7420  -18.3470 C.2   172  PRO172      0.2269
    122  O         13.9180    9.7370  -18.1760 O.2   172  PRO172     -0.2865
    123  CB        16.6510    8.0320  -17.3110 C.3   172  PRO172      0.0296
    124  CG        17.8760    7.3340  -17.8280 C.3   172  PRO172      0.0237
    125  CD        18.2420    8.0840  -19.0820 C.3   172  PRO172      0.0939
    126  N         12.8100   10.3200  -21.2180 N.3   175  MET175     -0.1245
    127  CA        11.6810    9.3920  -21.0970 C.3   175  MET175      0.1570
    128  C         10.6930    9.8070  -20.0120 C.2   175  MET175      0.2261
    129  O          9.4820    9.6940  -20.2050 O.2   175  MET175     -0.2867
    130  CB        12.1550    7.9610  -20.8790 C.3   175  MET175      0.0387
    131  CG        12.7930    7.3600  -22.1210 C.3   175  MET175      0.0595
    132  SD        13.2000    5.6210  -21.8990 S.3   175  MET175     -0.1393
    133  CE        14.2110    5.6720  -20.4690 C.3   175  MET175      0.0692
@<TRIPOS>BOND
     1   102   103    1
     2   103   104    1
     3   105   104    2
     4   104   106   am
     5   106   107    1
     6   110   111    1
     7   110   107    1
     8   110   112    1
     9   107   108    1
    10   108   113   am
    11   108   109    2
    12   113   114    1
    13    77    75    1
    14   131   132    1
    15   131   130    1
    16   132   133    1
    17   114   117    1
    18   114   115    1
    19    75    74    2
    20    75    76    1
    21    74    73    1
    22   117   118    1
    23    67    68    1
    24   126   127    1
    25   116   115    2
    26   127   130    1
    27   127   128    1
    28    72    73    1
    29    72    71    1
    30   115   119   am
    31   129   128    2
    32    15    12    1
    33    15    16    1
    34    14    13    2
    35    68    71    1
    36    68    69    1
    37    12    13    1
    38    12    11    1
    39   119   125    1
    40   119   120    1
    41    13    17   am
    42    10     9    2
    43   125   124    1
    44    69    70    2
    45    11     9   am
    46   120   121    1
    47   120   123    1
    48     9     8    1
    49     4     3    2
    50   121   122    2
    51    17    18    1
    52   124   123    1
    53     8     7    1
    54     1     2    1
    55    18    19    1
    56     3     7   am
    57     3     2    1
    58    19    20    2
    59    19    21   am
    60     2     5    1
    61    62    61    2
    62    26    27    1
    63    26    25    1
    64    21    22    1
    65    65    63    1
    66    84    78    1
    67    84    83    1
    68     5     6    1
    69    78    79    1
    70    27    28    1
    71    29    28    1
    72    22    25    1
    73    22    23    1
    74    83    82    1
    75    96    97    2
    76    96    95    1
    77    61    60    1
    78    42    40    1
    79    40    41    1
    80    40    37    1
    81    60    63    1
    82    60    59    1
    83    63    64    1
    84    79    82    1
    85    79    80    1
    86    64    66    1
    87    23    24    2
    88    23    30   am
    89    38    39    2
    90    38    37    1
    91    94    95    1
    92    95    98    1
    93    37    36    1
    94    98    99    1
    95    80    85   am
    96    80    81    2
    97    36    32   am
    98    30    31    1
    99    85    86    1
   100    87    86    1
   101    87    88    2
   102    32    31    1
   103    32    33    2
   104    99   100    1
   105    99   101    1
   106    31    34    1
   107    86    89    1
   108    89    90    1
   109    34    35    1
   110    90    91    1
   111    92    91    1
   112    92    93    1
   113    49    48   ar
   114    48    50   ar
   115    48    47    1
   116    44    47    1
   117    44    45    1
   118    44    43    1
   119    51    52    1
   120    45    46    2
   121    55    52    1
   122    55    56    1
   123    52    53    1
   124    56    57   ar
   125    56    58   ar
   126    53    54    2
