@<TRIPOS>MOLECULE
tmp/3uigB00.pdb
 106 104 0 0 0
SMALL
GASTEIGER

@<TRIPOS>ATOM
      1  N          2.7610   30.2210   28.2670 N.3    50  LEU50      -0.1245
      2  CA         2.6640   28.8070   28.5960 C.3    50  LEU50       0.1561
      3  C          4.0050   28.1070   28.3630 C.2    50  LEU50       0.2260
      4  O          4.5400   28.1100   27.2450 O.2    50  LEU50      -0.2867
      5  CB         1.5910   28.1420   27.7380 C.3    50  LEU50       0.0270
      6  CG         0.6760   27.1710   28.4820 C.3    50  LEU50       0.0019
      7  CD1        0.6280   25.8110   27.7840 C.3    50  LEU50       0.0001
      8  CD2        1.0920   27.0370   29.9540 C.3    50  LEU50       0.0001
      9  N          5.0170   18.7120   33.2380 N.3    58  LYS58      -0.1231
     10  CA         4.4780   19.6980   34.1490 C.3    58  LYS58       0.1693
     11  C          4.3000   20.9860   33.3530 C.2    58  LYS58       0.2592
     12  O          5.1550   21.3390   32.5400 O.2    58  LYS58      -0.2718
     13  CB         5.4340   19.9160   35.3210 C.3    58  LYS58       0.0285
     14  CG         4.8290   20.7020   36.4810 C.3    58  LYS58       0.0035
     15  CD         3.6800   19.9440   37.1180 C.3    58  LYS58       0.0206
     16  CE         3.2010   20.6320   38.3890 C.3    58  LYS58       0.1093
     17  NZ         2.2900   19.7520   39.1750 N.3    58  LYS58      -0.1314
     18  N          3.1800   21.6710   33.5680 N.am   59  GLU59      -0.1966
     19  CA         2.8660   22.8830   32.8220 C.3    59  GLU59       0.1733
     20  C          2.7370   24.0780   33.7540 C.2    59  GLU59       0.2616
     21  O          2.1990   23.9630   34.8520 O.2    59  GLU59      -0.2715
     22  CB         1.5760   22.7020   32.0250 C.3    59  GLU59       0.0429
     23  CG         1.7710   22.1700   30.6180 C.3    59  GLU59       0.1163
     24  CD         0.4980   21.5720   30.0570 C.2    59  GLU59       0.3649
     25  OE1        0.1610   21.8540   28.8850 O.co2  59  GLU59      -0.2457
     26  OE2       -0.1640   20.8160   30.7990 O.co2  59  GLU59      -0.2457
     27  N          3.2240   25.2270   33.3010 N.am   60  LEU60      -0.1963
     28  CA         3.3280   26.4100   34.1360 C.3    60  LEU60       0.1728
     29  C          3.1970   27.6550   33.2770 C.2    60  LEU60       0.2616
     30  O          3.9200   27.8150   32.2880 O.2    60  LEU60      -0.2715
     31  CB         4.6880   26.4510   34.8300 C.3    60  LEU60       0.0311
     32  CG         4.9820   25.8420   36.2050 C.3    60  LEU60       0.0022
     33  CD1        4.3870   24.4690   36.4270 C.3    60  LEU60       0.0001
     34  CD2        6.4940   25.7960   36.4240 C.3    60  LEU60       0.0001
     35  N          2.2680   28.5330   33.6540 N.am   61  GLU61      -0.1963
     36  CA         2.1880   29.8750   33.0870 C.3    61  GLU61       0.1733
     37  C          2.1940   30.8370   34.2570 C.2    61  GLU61       0.2617
     38  O          2.3270   30.4050   35.4050 O.2    61  GLU61      -0.2715
     39  CB         0.9310   30.0620   32.2230 C.3    61  GLU61       0.0429
     40  CG        -0.3120   30.6130   32.9440 C.3    61  GLU61       0.1163
     41  CD        -1.0540   29.5590   33.7440 C.2    61  GLU61       0.3649
     42  OE1       -0.3960   28.8540   34.5380 O.co2  61  GLU61      -0.2457
     43  OE2       -2.2900   29.4330   33.5750 O.co2  61  GLU61      -0.2457
     44  N          2.0590   32.1310   33.9780 N.am   62  GLY62      -0.1940
     45  CA         2.0500   33.1200   35.0370 C.3    62  GLY62       0.2014
     46  C          3.4270   33.2840   35.6410 C.2    62  GLY62       0.2639
     47  O          3.6120   33.2510   36.8610 O.2    62  GLY62      -0.2714
     48  N          4.4020   33.4710   34.7660 N.am   63  TRP63      -0.1959
     49  CA         5.7860   33.5500   35.1880 C.3    63  TRP63       0.1771
     50  C          6.1100   34.9310   35.7190 C.2    63  TRP63       0.2619
     51  O          5.5350   35.9160   35.2670 O.2    63  TRP63      -0.2715
     52  CB         6.7040   33.1680   34.0240 C.3    63  TRP63       0.0590
     53  CG         6.7330   31.6770   33.8240 C.ar   63  TRP63       0.0006
     54  CD1        5.9100   30.9320   33.0220 C.ar   63  TRP63       0.0946
     55  CD2        7.6050   30.7500   34.4800 C.ar   63  TRP63       0.0152
     56  NE1        6.2290   29.6010   33.1310 N.ar   63  TRP63      -0.2442
     57  CE2        7.2660   29.4620   34.0190 C.ar   63  TRP63       0.0810
     58  CE3        8.6450   30.8850   35.4080 C.ar   63  TRP63       0.0012
     59  CZ2        7.9340   28.3120   34.4550 C.ar   63  TRP63       0.0191
     60  CZ3        9.3090   29.7520   35.8350 C.ar   63  TRP63       0.0001
     61  CH2        8.9510   28.4770   35.3600 C.ar   63  TRP63       0.0015
     62  N          7.0200   34.9870   36.6900 N.am   64  GLU64      -0.1977
     63  CA         7.4970   36.2510   37.2440 C.3    64  GLU64       0.1602
     64  C          8.9930   36.4270   36.9800 C.2    64  GLU64       0.2287
     65  O          9.7680   35.4820   37.1170 O.2    64  GLU64      -0.2864
     66  CB         7.1870   36.3340   38.7380 C.3    64  GLU64       0.0415
     67  CG         5.7020   36.2450   39.0450 C.3    64  GLU64       0.1163
     68  CD         5.3970   36.4450   40.5110 C.2    64  GLU64       0.3649
     69  OE1        6.1860   37.1360   41.1900 O.co2  64  GLU64      -0.2457
     70  OE2        4.3720   35.9080   40.9820 O.co2  64  GLU64      -0.2457
     71  N         11.4550   34.9180   39.0880 N.3    67  ASP67      -0.1239
     72  CA        11.3410   33.4620   39.1500 C.3    67  ASP67       0.1674
     73  C         12.5760   32.7960   38.5620 C.2    67  ASP67       0.2266
     74  O         13.0140   33.1180   37.4500 O.2    67  ASP67      -0.2867
     75  CB        10.1180   32.9650   38.3810 C.3    67  ASP67       0.1410
     76  CG         8.8510   33.0080   39.2020 C.2    67  ASP67       0.3668
     77  OD1        8.9520   33.0970   40.4430 O.co2  67  ASP67      -0.2456
     78  OD2        7.7560   32.9290   38.6010 O.co2  67  ASP67      -0.2456
     79  N         11.7060   27.1550   40.3060 N.3    72  GLU72      -0.1245
     80  CA        10.2890   26.9200   40.0190 C.3    72  GLU72       0.1567
     81  C          9.9980   25.4960   39.5700 C.2    72  GLU72       0.2260
     82  O          8.8990   24.9870   39.7900 O.2    72  GLU72      -0.2867
     83  CB         9.7730   27.9160   38.9800 C.3    72  GLU72       0.0388
     84  CG         9.9960   29.3850   39.3700 C.3    72  GLU72       0.1160
     85  CD         9.4270   29.7630   40.7530 C.2    72  GLU72       0.3649
     86  OE1        8.1930   29.6520   40.9510 O.co2  72  GLU72      -0.2457
     87  OE2       10.2220   30.1830   41.6330 O.co2  72  GLU72      -0.2457
     88  N         10.3760   23.0210   42.7100 N.3    75  LYS75      -0.1231
     89  CA         9.2610   23.1510   43.6200 C.3    75  LYS75       0.1693
     90  C          8.0310   22.4640   43.0800 C.2    75  LYS75       0.2592
     91  O          7.3720   21.7130   43.7810 O.2    75  LYS75      -0.2718
     92  CB         8.9660   24.6350   43.8370 C.3    75  LYS75       0.0285
     93  CG         7.8310   24.9290   44.7840 C.3    75  LYS75       0.0035
     94  CD         8.1650   26.0810   45.7240 C.3    75  LYS75       0.0206
     95  CE         8.1000   27.4190   45.0150 C.3    75  LYS75       0.1093
     96  NZ         6.7310   27.7400   44.5510 N.3    75  LYS75      -0.1314
     97  N          7.7260   22.7190   41.8230 N.am   76  HIS76      -0.1976
     98  CA         6.5790   22.0990   41.1860 C.3    76  HIS76       0.1656
     99  C          6.6080   20.6130   40.8490 C.2    76  HIS76       0.2291
    100  O          5.6060   19.9330   40.9900 O.2    76  HIS76      -0.2864
    101  CB         6.0980   22.9530   40.0440 C.3    76  HIS76       0.0771
    102  CG         5.5360   24.2470   40.5060 C.ar   76  HIS76       0.0820
    103  ND1        4.4550   24.8490   39.9100 N.ar   76  HIS76      -0.2267
    104  CD2        5.8840   25.0350   41.5450 C.ar   76  HIS76       0.1154
    105  CE1        4.1730   25.9670   40.5490 C.ar   76  HIS76       0.1986
    106  NE2        5.0240   26.1010   41.5480 N.ar   76  HIS76      -0.2212
@<TRIPOS>BOND
     1     4     3    2
     2     5     6    1
     3     5     2    1
     4     7     6    1
     5     1     2    1
     6     3     2    1
     7     6     8    1
     8    25    24   ar
     9    24    23    1
    10    24    26   ar
    11    23    22    1
    12    22    19    1
    13    39    40    1
    14    39    36    1
    15    30    29    2
    16    12    11    2
    17    19    18    1
    18    19    20    1
    19    40    41    1
    20    54    56   ar
    21    54    53   ar
    22    36    35    1
    23    36    37    1
    24    56    57   ar
    25     9    10    1
    26    29    35   am
    27    29    28    1
    28    27    20   am
    29    27    28    1
    30    11    18   am
    31    11    10    1
    32    43    41   ar
    33    41    42   ar
    34    20    21    2
    35    53    52    1
    36    53    55   ar
    37    44    37   am
    38    44    45    1
    39    57    59   ar
    40    57    55   ar
    41    52    49    1
    42    28    31    1
    43    10    13    1
    44    37    38    2
    45    59    61   ar
    46    55    58   ar
    47    48    49    1
    48    48    46   am
    49    31    32    1
    50    45    46    1
    51    49    50    1
    52    51    50    2
    53    13    14    1
    54    61    60   ar
    55    58    60   ar
    56    46    47    2
    57    50    62   am
    58    32    34    1
    59    32    33    1
    60    14    15    1
    61    62    63    1
    62    64    65    2
    63    64    63    1
    64    15    16    1
    65    63    66    1
    66    74    73    2
    67    75    72    1
    68    75    76    1
    69    16    17    1
    70    73    72    1
    71    78    76   ar
    72    66    67    1
    73    83    84    1
    74    83    80    1
    75    67    68    1
    76    71    72    1
    77    76    77   ar
    78    84    85    1
    79    81    82    2
    80    81    80    1
    81   103   102   ar
    82   103   105   ar
    83    80    79    1
    84   101   102    1
    85   101    98    1
    86   102   104   ar
    87    68    70   ar
    88    68    69   ar
    89   105   106   ar
    90    85    86   ar
    91    85    87   ar
    92    99   100    2
    93    99    98    1
    94    98    97    1
    95   104   106   ar
    96    97    90   am
    97    88    89    1
    98    90    89    1
    99    90    91    2
   100    89    92    1
   101    92    93    1
   102    96    95    1
   103    93    94    1
   104    95    94    1
