@<TRIPOS>MOLECULE
tmp/3uihB00.pdb
 106 103 0 0 0
SMALL
GASTEIGER

@<TRIPOS>ATOM
      1  N          2.8910   31.8330  -28.6180 N.3    46  GLU46      -0.1245
      2  CA         1.6340   32.0180  -29.3260 C.3    46  GLU46       0.1567
      3  C          0.4300   31.8840  -28.3920 C.2    46  GLU46       0.2260
      4  O         -0.1500   30.8010  -28.2680 O.2    46  GLU46      -0.2867
      5  CB         1.5370   31.0190  -30.4870 C.3    46  GLU46       0.0388
      6  CG         1.7870   29.5640  -30.0820 C.3    46  GLU46       0.1160
      7  CD         2.8770   28.8790  -30.8990 C.2    46  GLU46       0.3649
      8  OE1        3.1830   29.3530  -32.0130 O.co2  46  GLU46      -0.2457
      9  OE2        3.4260   27.8600  -30.4220 O.co2  46  GLU46      -0.2457
     10  N         -2.9780   30.2100  -29.6580 N.3    49  LEU49      -0.1245
     11  CA        -3.0820   28.7830  -29.9630 C.3    49  LEU49       0.1561
     12  C         -4.4220   28.1620  -29.5620 C.2    49  LEU49       0.2260
     13  O         -4.8050   28.1850  -28.3910 O.2    49  LEU49      -0.2867
     14  CB        -1.9390   28.0200  -29.2890 C.3    49  LEU49       0.0270
     15  CG        -1.6230   26.6170  -29.8050 C.3    49  LEU49       0.0019
     16  CD1       -1.3630   26.6530  -31.3030 C.3    49  LEU49       0.0001
     17  CD2       -0.4310   26.0230  -29.0620 C.3    49  LEU49       0.0001
     18  N         -5.9170   18.7750  -33.4090 N.3    57  LYS57      -0.1231
     19  CA        -5.3070   19.6690  -34.3850 C.3    57  LYS57       0.1693
     20  C         -5.0980   21.0390  -33.7570 C.2    57  LYS57       0.2592
     21  O         -6.0380   21.6410  -33.2320 O.2    57  LYS57      -0.2718
     22  CB        -6.2080   19.8080  -35.6130 C.3    57  LYS57       0.0285
     23  CG        -5.6360   20.6660  -36.7310 C.3    57  LYS57       0.0035
     24  CD        -4.5190   19.9440  -37.4680 C.3    57  LYS57       0.0206
     25  CE        -4.5710   20.2370  -38.9620 C.3    57  LYS57       0.1093
     26  NZ        -3.5140   19.5160  -39.7260 N.3    57  LYS57      -0.1314
     27  N         -3.8640   21.5250  -33.8120 N.am   58  GLU58      -0.1966
     28  CA        -3.5230   22.8330  -33.2680 C.3    58  GLU58       0.1733
     29  C         -3.4670   23.8980  -34.3540 C.2    58  GLU58       0.2616
     30  O         -2.8060   23.7190  -35.3750 O.2    58  GLU58      -0.2715
     31  CB        -2.1870   22.7720  -32.5360 C.3    58  GLU58       0.0429
     32  CG        -2.2330   22.0020  -31.2330 C.3    58  GLU58       0.1163
     33  CD        -0.8530   21.5990  -30.7650 C.2    58  GLU58       0.3649
     34  OE1       -0.5210   21.8500  -29.5870 O.co2  58  GLU58      -0.2457
     35  OE2       -0.1000   21.0250  -31.5790 O.co2  58  GLU58      -0.2457
     36  N         -4.1670   25.0050  -34.1290 N.am   59  LEU59      -0.1963
     37  CA        -4.1860   26.0990  -35.0930 C.3    59  LEU59       0.1728
     38  C         -3.8400   27.4090  -34.4030 C.2    59  LEU59       0.2616
     39  O         -4.2570   27.6420  -33.2670 O.2    59  LEU59      -0.2715
     40  CB        -5.5500   26.1990  -35.7840 C.3    59  LEU59       0.0311
     41  CG        -5.7220   25.6420  -37.2010 C.3    59  LEU59       0.0022
     42  CD1       -4.7810   24.5020  -37.4850 C.3    59  LEU59       0.0001
     43  CD2       -7.1480   25.1810  -37.4160 C.3    59  LEU59       0.0001
     44  N         -3.0450   28.2360  -35.0830 N.am   60  GLU60      -0.1963
     45  CA        -2.7330   29.5870  -34.6260 C.3    60  GLU60       0.1733
     46  C         -2.8320   30.5520  -35.8070 C.2    60  GLU60       0.2617
     47  O         -3.3240   30.1770  -36.8710 O.2    60  GLU60      -0.2715
     48  CB        -1.3410   29.6500  -33.9970 C.3    60  GLU60       0.0429
     49  CG        -0.2030   29.2470  -34.9230 C.3    60  GLU60       0.1163
     50  CD         1.1490   29.6100  -34.3440 C.2    60  GLU60       0.3649
     51  OE1        1.1850   30.4570  -33.4250 O.co2  60  GLU60      -0.2457
     52  OE2        2.1690   29.0530  -34.8030 O.co2  60  GLU60      -0.2457
     53  N         -2.3540   31.7820  -35.6240 N.am   61  GLY61      -0.1940
     54  CA        -2.4730   32.8160  -36.6380 C.3    61  GLY61       0.2014
     55  C         -3.9200   33.1210  -36.9850 C.2    61  GLY61       0.2639
     56  O         -4.2390   33.4140  -38.1370 O.2    61  GLY61      -0.2714
     57  N         -4.7990   33.0500  -35.9900 N.am   62  TRP62      -0.1959
     58  CA        -6.2310   33.2510  -36.2170 C.3    62  TRP62       0.1771
     59  C         -6.5590   34.6450  -36.7500 C.2    62  TRP62       0.2619
     60  O         -6.0660   35.6480  -36.2360 O.2    62  TRP62      -0.2715
     61  CB        -7.0340   32.9610  -34.9440 C.3    62  TRP62       0.0590
     62  CG        -7.2060   31.4940  -34.7000 C.ar   62  TRP62       0.0006
     63  CD1       -6.4400   30.7000  -33.8950 C.ar   62  TRP62       0.0946
     64  CD2       -8.1910   30.6370  -35.2900 C.ar   62  TRP62       0.0152
     65  NE1       -6.8920   29.4080  -33.9430 N.ar   62  TRP62      -0.2442
     66  CE2       -7.9660   29.3410  -34.7930 C.ar   62  TRP62       0.0810
     67  CE3       -9.2410   30.8420  -36.1910 C.ar   62  TRP62       0.0012
     68  CZ2       -8.7550   28.2510  -35.1640 C.ar   62  TRP62       0.0191
     69  CZ3      -10.0240   29.7620  -36.5590 C.ar   62  TRP62       0.0001
     70  CH2       -9.7760   28.4820  -36.0480 C.ar   62  TRP62       0.0015
     71  N         -7.3910   34.6810  -37.7890 N.am   63  GLU63      -0.1977
     72  CA        -7.8610   35.9210  -38.3970 C.3    63  GLU63       0.1602
     73  C         -9.3120   36.1790  -38.0020 C.2    63  GLU63       0.2287
     74  O        -10.1180   35.2530  -37.9600 O.2    63  GLU63      -0.2864
     75  CB        -7.7380   35.8490  -39.9220 C.3    63  GLU63       0.0415
     76  CG        -6.3130   35.9170  -40.4440 C.3    63  GLU63       0.1163
     77  CD        -5.6400   37.2470  -40.1460 C.2    63  GLU63       0.3649
     78  OE1       -6.0790   38.2810  -40.6980 O.co2  63  GLU63      -0.2457
     79  OE2       -4.6710   37.2570  -39.3550 O.co2  63  GLU63      -0.2457
     80  N        -12.0140   34.6500  -39.9230 N.3    66  ASP66      -0.1239
     81  CA       -12.0050   33.1920  -39.9970 C.3    66  ASP66       0.1674
     82  C        -13.2460   32.5900  -39.3690 C.2    66  ASP66       0.2266
     83  O        -13.6060   32.9090  -38.2340 O.2    66  ASP66      -0.2867
     84  CB       -10.7730   32.6050  -39.3080 C.3    66  ASP66       0.1410
     85  CG        -9.5060   32.7960  -40.1130 C.2    66  ASP66       0.3668
     86  OD1       -9.6010   33.0070  -41.3420 O.co2  66  ASP66      -0.2456
     87  OD2       -8.4140   32.7290  -39.5120 O.co2  66  ASP66      -0.2456
     88  N        -12.2440   26.8440  -40.8390 N.3    71  GLU71      -0.1245
     89  CA       -10.8220   26.6040  -40.5870 C.3    71  GLU71       0.1567
     90  C        -10.6020   25.1710  -40.1300 C.2    71  GLU71       0.2260
     91  O         -9.5130   24.6150  -40.2830 O.2    71  GLU71      -0.2867
     92  CB       -10.3010   27.5440  -39.5070 C.3    71  GLU71       0.0388
     93  CG       -10.3250   29.0080  -39.9110 C.3    71  GLU71       0.1160
     94  CD        -9.6740   29.2500  -41.2610 C.2    71  GLU71       0.3649
     95  OE1       -8.5550   28.7390  -41.4920 O.co2  71  GLU71      -0.2457
     96  OE2      -10.2950   29.9430  -42.0950 O.co2  71  GLU71      -0.2457
     97  N         -8.4130   22.1740  -42.3340 N.3    75  HIS75      -0.1241
     98  CA        -7.1480   21.6740  -41.8100 C.3    75  HIS75       0.1621
     99  C         -7.2190   20.2470  -41.2510 C.2    75  HIS75       0.2264
    100  O         -6.2810   19.4700  -41.4190 O.2    75  HIS75      -0.2867
    101  CB        -6.5680   22.6560  -40.7910 C.3    75  HIS75       0.0745
    102  CG        -6.2550   23.9990  -41.3730 C.ar   75  HIS75       0.0817
    103  ND1       -5.2270   24.7920  -40.9120 N.ar   75  HIS75      -0.2268
    104  CD2       -6.8300   24.6840  -42.3910 C.ar   75  HIS75       0.1154
    105  CE1       -5.1840   25.9080  -41.6170 C.ar   75  HIS75       0.1986
    106  NE2       -6.1460   25.8690  -42.5200 N.ar   75  HIS75      -0.2212
@<TRIPOS>BOND
     1   106   104   ar
     2   106   105   ar
     3   104   102   ar
     4    97    98    1
     5    96    94   ar
     6    98    99    1
     7    98   101    1
     8   105   103   ar
     9    95    94   ar
    10   100    99    2
    11   102   103   ar
    12   102   101    1
    13    86    85   ar
    14    94    93    1
    15    88    89    1
    16    78    77   ar
    17    89    90    1
    18    89    92    1
    19    76    77    1
    20    76    75    1
    21    91    90    2
    22    77    79   ar
    23    85    87   ar
    24    85    84    1
    25    81    80    1
    26    81    82    1
    27    81    84    1
    28    75    72    1
    29    93    92    1
    30    26    25    1
    31    82    83    2
    32    25    24    1
    33    72    73    1
    34    72    71    1
    35    56    55    2
    36    73    74    2
    37    71    59   am
    38    42    41    1
    39    24    23    1
    40    43    41    1
    41    41    40    1
    42    55    54    1
    43    55    57   am
    44    47    46    2
    45    59    60    2
    46    59    58    1
    47    23    22    1
    48    54    53    1
    49    69    67   ar
    50    69    70   ar
    51    58    57    1
    52    58    61    1
    53    67    64   ar
    54    70    68   ar
    55    46    53   am
    56    46    45    1
    57    40    37    1
    58    22    19    1
    59    30    29    2
    60    64    66   ar
    61    64    62   ar
    62    68    66   ar
    63    37    38    1
    64    37    36    1
    65    44    45    1
    66    44    38   am
    67    61    62    1
    68    49    50    1
    69    49    48    1
    70    52    50   ar
    71    66    65   ar
    72    62    63   ar
    73    45    48    1
    74    38    39    2
    75    19    20    1
    76    19    18    1
    77    29    36   am
    78    29    28    1
    79    50    51   ar
    80    65    63   ar
    81    27    20   am
    82    27    28    1
    83    20    21    2
    84    28    31    1
    85    31    32    1
    86     8     7   ar
    87    35    33   ar
    88    16    15    1
    89    32    33    1
    90     7     9   ar
    91     7     6    1
    92    33    34   ar
    93     5     6    1
    94     5     2    1
    95    11    10    1
    96    11    12    1
    97    11    14    1
    98    15    14    1
    99    15    17    1
   100    12    13    2
   101     2     1    1
   102     2     3    1
   103     3     4    2
