@<TRIPOS>MOLECULE
tmp/3uiiA00.pdb
 115 112 0 0 0
SMALL
GASTEIGER

@<TRIPOS>ATOM
      1  N         23.2070  -12.2000   -6.6180 N.3    47  GLU47      -0.1245
      2  CA        24.0770  -12.2280   -5.4550 C.3    47  GLU47       0.1567
      3  C         23.2240  -12.4000   -4.1870 C.2    47  GLU47       0.2260
      4  O         22.9380  -11.4340   -3.4850 O.2    47  GLU47      -0.2867
      5  CB        24.9380  -10.9510   -5.4360 C.3    47  GLU47       0.0388
      6  CG        24.2960   -9.7690   -6.1960 C.3    47  GLU47       0.1160
      7  CD        25.2880   -8.7250   -6.7040 C.2    47  GLU47       0.3649
      8  OE1       26.3690   -9.1010   -7.2090 O.co2  47  GLU47      -0.2457
      9  OE2       24.9650   -7.5180   -6.6160 O.co2  47  GLU47      -0.2457
     10  N         24.7720  -11.1330   -0.5280 N.3    50  LEU50      -0.1245
     11  CA        25.3600   -9.7930   -0.4980 C.3    50  LEU50       0.1561
     12  C         25.2940   -9.2570    0.9110 C.2    50  LEU50       0.2260
     13  O         24.2190   -9.2730    1.5260 O.2    50  LEU50      -0.2867
     14  CB        24.5930   -8.8340   -1.4190 C.3    50  LEU50       0.0270
     15  CG        25.3460   -8.0440   -2.5070 C.3    50  LEU50       0.0019
     16  CD1       24.5690   -6.8040   -2.8700 C.3    50  LEU50       0.0001
     17  CD2       26.7630   -7.6540   -2.1360 C.3    50  LEU50       0.0001
     18  N         30.7980   -0.6930    2.0240 N.3    58  LYS58      -0.1231
     19  CA        31.4590   -1.6840    1.2150 C.3    58  LYS58       0.1693
     20  C         30.6780   -2.9650    1.2070 C.2    58  LYS58       0.2592
     21  O         30.1420   -3.3560    2.2100 O.2    58  LYS58      -0.2718
     22  CB        32.8500   -1.9550    1.7330 C.3    58  LYS58       0.0285
     23  CG        33.5910   -2.9710    0.9100 C.3    58  LYS58       0.0035
     24  CD        34.5800   -2.3450   -0.0510 C.3    58  LYS58       0.0206
     25  CE        33.9080   -1.9110   -1.3400 C.3    58  LYS58       0.1093
     26  NZ        34.7670   -1.0390   -2.1850 N.3    58  LYS58      -0.1314
     27  N         30.6120   -3.6110    0.0540 N.am   59  GLU59      -0.1966
     28  CA        29.7910   -4.7870   -0.1280 C.3    59  GLU59       0.1733
     29  C         30.6290   -6.0110   -0.4340 C.2    59  GLU59       0.2616
     30  O         31.5330   -5.9570   -1.2250 O.2    59  GLU59      -0.2715
     31  CB        28.7980   -4.5340   -1.2450 C.3    59  GLU59       0.0429
     32  CG        27.7860   -3.4690   -0.9210 C.3    59  GLU59       0.1163
     33  CD        27.1980   -2.8200   -2.1420 C.2    59  GLU59       0.3649
     34  OE1       25.9920   -2.9340   -2.3770 O.co2  59  GLU59      -0.2457
     35  OE2       27.9420   -2.1790   -2.8780 O.co2  59  GLU59      -0.2457
     36  N         30.3330   -7.1150    0.2230 N.am   60  LEU60      -0.1963
     37  CA        31.0960   -8.3170    0.0230 C.3    60  LEU60       0.1728
     38  C         30.1830   -9.5080   -0.1390 C.2    60  LEU60       0.2616
     39  O         29.1670   -9.6350    0.5650 O.2    60  LEU60      -0.2715
     40  CB        32.0760   -8.5420    1.1630 C.3    60  LEU60       0.0311
     41  CG        33.0120   -7.4010    1.5090 C.3    60  LEU60       0.0022
     42  CD1       33.7200   -7.7340    2.7850 C.3    60  LEU60       0.0001
     43  CD2       34.0080   -7.1590    0.4190 C.3    60  LEU60       0.0001
     44  N         30.5680  -10.3510   -1.1000 N.am   61  GLU61      -0.1963
     45  CA        29.8390  -11.5340   -1.5490 C.3    61  GLU61       0.1733
     46  C         30.8470  -12.6800   -1.6100 C.2    61  GLU61       0.2617
     47  O         32.0280  -12.4730   -1.3060 O.2    61  GLU61      -0.2715
     48  CB        29.2470  -11.2640   -2.9280 C.3    61  GLU61       0.0429
     49  CG        30.2940  -10.9350   -4.0090 C.3    61  GLU61       0.1163
     50  CD        29.6890  -10.5970   -5.3850 C.2    61  GLU61       0.3649
     51  OE1       28.4360  -10.6640   -5.5560 O.co2  61  GLU61      -0.2457
     52  OE2       30.4860  -10.2670   -6.3040 O.co2  61  GLU61      -0.2457
     53  N         30.4060  -13.8800   -1.9880 N.am   62  GLY62      -0.1940
     54  CA        31.3190  -15.0250   -2.0810 C.3    62  GLY62       0.2014
     55  C         31.7830  -15.4600   -0.6970 C.2    62  GLY62       0.2639
     56  O         32.9410  -15.8830   -0.4920 O.2    62  GLY62      -0.2714
     57  N         30.8590  -15.3250    0.2520 N.am   63  TRP63      -0.1959
     58  CA        31.0660  -15.7220    1.6130 C.3    63  TRP63       0.1771
     59  C         31.2360  -17.2210    1.7130 C.2    63  TRP63       0.2619
     60  O         30.5190  -17.9670    1.0560 O.2    63  TRP63      -0.2715
     61  CB        29.8830  -15.2560    2.4550 C.3    63  TRP63       0.0590
     62  CG        29.9370  -13.8060    2.6490 C.ar   63  TRP63       0.0006
     63  CD1       29.2010  -12.8470    1.9950 C.ar   63  TRP63       0.0946
     64  CD2       30.8130  -13.1160    3.5210 C.ar   63  TRP63       0.0152
     65  NE1       29.5680  -11.6070    2.4180 N.ar   63  TRP63      -0.2442
     66  CE2       30.5560  -11.7370    3.3600 C.ar   63  TRP63       0.0810
     67  CE3       31.7930  -13.5280    4.4390 C.ar   63  TRP63       0.0012
     68  CZ2       31.2340  -10.7640    4.0850 C.ar   63  TRP63       0.0191
     69  CZ3       32.4760  -12.5680    5.1500 C.ar   63  TRP63       0.0001
     70  CH2       32.1850  -11.1940    4.9760 C.ar   63  TRP63       0.0015
     71  N         32.1810  -17.6440    2.5560 N.am   64  GLU64      -0.1977
     72  CA        32.4950  -19.0540    2.7890 C.3    64  GLU64       0.1602
     73  C         32.4590  -19.3700    4.2760 C.2    64  GLU64       0.2287
     74  O         32.8480  -18.5350    5.0930 O.2    64  GLU64      -0.2864
     75  CB        33.8800  -19.3580    2.2410 C.3    64  GLU64       0.0415
     76  CG        33.8710  -19.5770    0.7210 C.3    64  GLU64       0.1163
     77  CD        35.2620  -19.5090    0.1000 C.2    64  GLU64       0.3649
     78  OE1       36.2720  -19.6210    0.8390 O.co2  64  GLU64      -0.2457
     79  OE2       35.3420  -19.3370   -1.1320 O.co2  64  GLU64      -0.2457
     80  N         35.1570  -17.9110    6.7250 N.3    67  ASP67      -0.1239
     81  CA        35.4530  -16.4670    6.6900 C.3    67  ASP67       0.1674
     82  C         35.1960  -15.7560    8.0240 C.2    67  ASP67       0.2266
     83  O         34.1030  -15.8210    8.5730 O.2    67  ASP67      -0.2867
     84  CB        34.6610  -15.7760    5.5830 C.3    67  ASP67       0.1410
     85  CG        35.0850  -16.2010    4.1890 C.2    67  ASP67       0.3668
     86  OD1       36.2310  -16.6660    4.0290 O.co2  67  ASP67      -0.2456
     87  OD2       34.2670  -16.0620    3.2450 O.co2  67  ASP67      -0.2456
     88  N         37.6850  -10.0110    6.9660 N.3    72  GLU72      -0.1245
     89  CA        37.2690   -9.6340    5.6320 C.3    72  GLU72       0.1567
     90  C         37.0150   -8.1290    5.5860 C.2    72  GLU72       0.2260
     91  O         37.4150   -7.4600    4.6400 O.2    72  GLU72      -0.2867
     92  CB        36.0260  -10.4170    5.2040 C.3    72  GLU72       0.0388
     93  CG        36.2030  -11.9210    5.2520 C.3    72  GLU72       0.1160
     94  CD        37.2290  -12.4570    4.2270 C.2    72  GLU72       0.3649
     95  OE1       38.2990  -12.9650    4.6390 O.co2  72  GLU72      -0.2457
     96  OE2       36.9630  -12.3730    3.0070 O.co2  72  GLU72      -0.2457
     97  N         40.0610   -6.3340    5.5690 N.3    75  LYS75      -0.1231
     98  CA        40.7700   -6.6630    4.3480 C.3    75  LYS75       0.1693
     99  C         40.2950   -5.8320    3.1580 C.2    75  LYS75       0.2592
    100  O         41.1010   -5.3990    2.3440 O.2    75  LYS75      -0.2718
    101  CB        40.5980   -8.1590    4.0580 C.3    75  LYS75       0.0285
    102  CG        41.5130   -8.7590    3.0160 C.3    75  LYS75       0.0035
    103  CD        41.5670  -10.2940    3.1540 C.3    75  LYS75       0.0206
    104  CE        41.9970  -10.9660    1.8460 C.3    75  LYS75       0.1093
    105  NZ        40.9980  -10.7270    0.7520 N.3    75  LYS75      -0.1314
    106  N         38.9950   -5.6000    3.0500 N.am   76  HIS76      -0.1976
    107  CA        38.4510   -5.0250    1.8290 C.3    76  HIS76       0.1656
    108  C         38.0590   -3.5540    1.9780 C.2    76  HIS76       0.2291
    109  O         37.7060   -2.8940    0.9990 O.2    76  HIS76      -0.2864
    110  CB        37.2700   -5.8650    1.3490 C.3    76  HIS76       0.0771
    111  CG        37.6640   -7.2050    0.8040 C.ar   76  HIS76       0.0820
    112  ND1       37.4060   -7.5890   -0.4950 N.ar   76  HIS76      -0.2267
    113  CD2       38.2990   -8.2520    1.3840 C.ar   76  HIS76       0.1154
    114  CE1       37.8640   -8.8110   -0.6920 C.ar   76  HIS76       0.1986
    115  NE2       38.4090   -9.2380    0.4340 N.ar   76  HIS76      -0.2212
@<TRIPOS>BOND
     1     8     7   ar
     2     7     9   ar
     3     7     6    1
     4     1     2    1
     5    52    50   ar
     6     6     5    1
     7    51    50   ar
     8     2     5    1
     9     2     3    1
    10    50    49    1
    11     3     4    2
    12    49    48    1
    13    48    45    1
    14    35    33   ar
    15    16    15    1
    16    15    17    1
    17    15    14    1
    18    34    33   ar
    19    26    25    1
    20    33    32    1
    21    54    53    1
    22    54    55    1
    23    53    46   am
    24    46    45    1
    25    46    47    2
    26    45    44    1
    27    14    11    1
    28    25    24    1
    29    31    32    1
    30    31    28    1
    31    30    29    2
    32    79    77   ar
    33    44    38   am
    34    55    56    2
    35    55    57   am
    36   114   112   ar
    37   114   115   ar
    38    10    11    1
    39    11    12    1
    40   112   111   ar
    41    29    28    1
    42    29    36   am
    43    38    37    1
    44    38    39    2
    45    28    27    1
    46    24    23    1
    47    37    36    1
    48    37    40    1
    49    27    20   am
    50    77    76    1
    51    77    78   ar
    52    57    58    1
    53    43    41    1
    54   115   113   ar
    55    76    75    1
    56   105   104    1
    57   111   110    1
    58   111   113   ar
    59    23    22    1
    60    12    13    2
    61   109   108    2
    62    60    59    2
    63    40    41    1
    64    20    19    1
    65    20    21    2
    66    19    22    1
    67    19    18    1
    68   110   107    1
    69    41    42    1
    70    58    59    1
    71    58    61    1
    72    59    71   am
    73   107   108    1
    74   107   106    1
    75   104   103    1
    76    63    65   ar
    77    63    62   ar
    78    75    72    1
    79   100    99    2
    80    65    66   ar
    81    61    62    1
    82    71    72    1
    83    62    64   ar
    84    72    73    1
    85    96    94   ar
    86   102   103    1
    87   102   101    1
    88   106    99   am
    89    99    98    1
    90    87    85   ar
    91    66    64   ar
    92    66    68   ar
    93    64    67   ar
    94    86    85   ar
    95   101    98    1
    96    68    70   ar
    97    85    84    1
    98    94    95   ar
    99    94    93    1
   100    73    74    2
   101    98    97    1
   102    67    69   ar
   103    91    90    2
   104    70    69   ar
   105    92    93    1
   106    92    89    1
   107    84    81    1
   108    90    89    1
   109    89    88    1
   110    81    80    1
   111    81    82    1
   112    82    83    2
