@<TRIPOS>MOLECULE
tmp/3uijB00.pdb
 104 104 0 0 0
SMALL
GASTEIGER

@<TRIPOS>ATOM
      1  N         -1.5460   29.9640  -28.7890 N.3    50  LEU50      -0.1245
      2  CA        -1.6920   28.5520  -29.1220 C.3    50  LEU50       0.1561
      3  C         -3.0250   27.9320  -28.7010 C.2    50  LEU50       0.2260
      4  O         -3.4010   27.9620  -27.5290 O.2    50  LEU50      -0.2867
      5  CB        -0.5320   27.7530  -28.5250 C.3    50  LEU50       0.0270
      6  CG        -0.3270   26.3540  -29.1030 C.3    50  LEU50       0.0019
      7  CD1       -0.1930   26.4300  -30.6160 C.3    50  LEU50       0.0001
      8  CD2        0.8920   25.6870  -28.4810 C.3    50  LEU50       0.0001
      9  N         -4.6170   18.6310  -33.3490 N.3    58  TYR58      -0.1227
     10  CA        -3.9900   19.5600  -34.2710 C.3    58  TYR58       0.1736
     11  C         -3.7970   20.8790  -33.5440 C.2    58  TYR58       0.2595
     12  O         -4.6220   21.2640  -32.7170 O.2    58  TYR58      -0.2718
     13  CB        -4.8780   19.7620  -35.4970 C.3    58  TYR58       0.0548
     14  CG        -4.1720   20.3420  -36.7000 C.ar   58  TYR58      -0.0200
     15  CD1       -3.4450   21.5200  -36.6110 C.ar   58  TYR58      -0.0009
     16  CD2       -4.2310   19.7030  -37.9260 C.ar   58  TYR58      -0.0009
     17  CE1       -2.8030   22.0460  -37.7170 C.ar   58  TYR58       0.0417
     18  CE2       -3.6000   20.2170  -39.0350 C.ar   58  TYR58       0.0417
     19  CZ        -2.8840   21.3880  -38.9260 C.ar   58  TYR58       0.1957
     20  OH        -2.2500   21.9000  -40.0330 O.3    58  TYR58      -0.2866
     21  N         -2.7060   21.5690  -33.8540 N.am   59  GLU59      -0.1965
     22  CA        -2.3980   22.8410  -33.2120 C.3    59  GLU59       0.1733
     23  C         -2.3300   24.0010  -34.2030 C.2    59  GLU59       0.2616
     24  O         -1.7290   23.8840  -35.2710 O.2    59  GLU59      -0.2715
     25  CB        -1.0890   22.7340  -32.4320 C.3    59  GLU59       0.0429
     26  CG        -1.2480   22.0700  -31.0780 C.3    59  GLU59       0.1163
     27  CD         0.0770   21.6650  -30.4760 C.2    59  GLU59       0.3649
     28  OE1        0.2740   21.8900  -29.2620 O.co2  59  GLU59      -0.2457
     29  OE2        0.9200   21.1130  -31.2160 O.co2  59  GLU59      -0.2457
     30  N         -2.9550   25.1190  -33.8400 N.am   60  LEU60      -0.1963
     31  CA        -2.9320   26.3180  -34.6730 C.3    60  LEU60       0.1728
     32  C         -2.5780   27.5740  -33.8770 C.2    60  LEU60       0.2616
     33  O         -2.9180   27.7020  -32.6990 O.2    60  LEU60      -0.2715
     34  CB        -4.2620   26.5110  -35.4100 C.3    60  LEU60       0.0311
     35  CG        -4.6080   25.4960  -36.5010 C.3    60  LEU60       0.0022
     36  CD1       -5.2050   24.2470  -35.8860 C.3    60  LEU60       0.0001
     37  CD2       -5.5790   26.0920  -37.4980 C.3    60  LEU60       0.0001
     38  N         -1.8940   28.4980  -34.5450 N.am   61  GLU61      -0.1963
     39  CA        -1.3910   29.7160  -33.9260 C.3    61  GLU61       0.1733
     40  C         -1.5910   30.8610  -34.9140 C.2    61  GLU61       0.2617
     41  O         -2.1450   30.6570  -35.9940 O.2    61  GLU61      -0.2715
     42  CB         0.0960   29.5470  -33.5950 C.3    61  GLU61       0.0429
     43  CG         0.6940   30.6310  -32.7080 C.3    61  GLU61       0.1163
     44  CD         2.2060   30.5170  -32.5880 C.2    61  GLU61       0.3649
     45  OE1        2.7410   29.4030  -32.7820 O.co2  61  GLU61      -0.2457
     46  OE2        2.8600   31.5440  -32.3070 O.co2  61  GLU61      -0.2457
     47  N         -1.1470   32.0600  -34.5480 N.am   62  GLY62      -0.1940
     48  CA        -1.2410   33.2120  -35.4300 C.3    62  GLY62       0.2014
     49  C         -2.6680   33.5390  -35.8190 C.2    62  GLY62       0.2639
     50  O         -2.9380   33.9500  -36.9480 O.2    62  GLY62      -0.2714
     51  N         -3.5840   33.3600  -34.8740 N.am   63  TRP63      -0.1959
     52  CA        -5.0060   33.5520  -35.1350 C.3    63  TRP63       0.1771
     53  C         -5.3470   34.9570  -35.6210 C.2    63  TRP63       0.2619
     54  O         -4.8530   35.9520  -35.0890 O.2    63  TRP63      -0.2715
     55  CB        -5.8340   33.1860  -33.8990 C.3    63  TRP63       0.0590
     56  CG        -5.9480   31.7090  -33.7250 C.ar   63  TRP63       0.0006
     57  CD1       -5.1600   30.9070  -32.9490 C.ar   63  TRP63       0.0946
     58  CD2       -6.8870   30.8450  -34.3740 C.ar   63  TRP63       0.0152
     59  NE1       -5.5590   29.5980  -33.0690 N.ar   63  TRP63      -0.2442
     60  CE2       -6.6190   29.5330  -33.9370 C.ar   63  TRP63       0.0810
     61  CE3       -7.9350   31.0550  -35.2770 C.ar   63  TRP63       0.0012
     62  CZ2       -7.3620   28.4360  -34.3710 C.ar   63  TRP63       0.0191
     63  CZ3       -8.6670   29.9690  -35.7090 C.ar   63  TRP63       0.0001
     64  CH2       -8.3790   28.6740  -35.2570 C.ar   63  TRP63       0.0015
     65  N         -6.1830   35.0210  -36.6520 N.am   64  GLU64      -0.1977
     66  CA        -6.6740   36.2870  -37.1810 C.3    64  GLU64       0.1602
     67  C         -8.0860   36.5490  -36.6700 C.2    64  GLU64       0.2287
     68  O         -8.8840   35.6220  -36.5380 O.2    64  GLU64      -0.2864
     69  CB        -6.6610   36.2720  -38.7120 C.3    64  GLU64       0.0415
     70  CG        -5.2740   36.3060  -39.3290 C.3    64  GLU64       0.1163
     71  CD        -4.6470   37.6820  -39.2550 C.2    64  GLU64       0.3649
     72  OE1       -5.1390   38.5960  -39.9510 O.co2  64  GLU64      -0.2457
     73  OE2       -3.6670   37.8530  -38.4990 O.co2  64  GLU64      -0.2457
     74  N        -10.7760   35.1050  -38.6660 N.3    67  ASP67      -0.1239
     75  CA       -10.6830   33.6640  -38.8840 C.3    67  ASP67       0.1674
     76  C        -11.9040   32.9300  -38.3450 C.2    67  ASP67       0.2266
     77  O        -12.3410   33.1740  -37.2210 O.2    67  ASP67      -0.2867
     78  CB        -9.4320   33.0880  -38.2180 C.3    67  ASP67       0.1410
     79  CG        -8.1550   33.4630  -38.9380 C.2    67  ASP67       0.3668
     80  OD1       -8.2270   33.9860  -40.0740 O.co2  67  ASP67      -0.2456
     81  OD2       -7.0720   33.2190  -38.3620 O.co2  67  ASP67      -0.2456
     82  N        -10.9730   27.1280  -40.6320 N.3    72  GLU72      -0.1245
     83  CA        -9.5410   26.9330  -40.4230 C.3    72  GLU72       0.1567
     84  C         -9.2340   25.4650  -40.2020 C.2    72  GLU72       0.2260
     85  O         -8.2360   24.9410  -40.7060 O.2    72  GLU72      -0.2867
     86  CB        -9.0840   27.7220  -39.2070 C.3    72  GLU72       0.0388
     87  CG        -9.2120   29.2230  -39.3790 C.3    72  GLU72       0.1160
     88  CD        -8.3330   29.7680  -40.5000 C.2    72  GLU72       0.3649
     89  OE1       -7.0890   29.6720  -40.3960 O.co2  72  GLU72      -0.2457
     90  OE2       -8.8890   30.3110  -41.4790 O.co2  72  GLU72      -0.2457
     91  N         -7.0460   22.4810  -42.7180 N.3    76  TRP76      -0.1241
     92  CA        -5.7460   22.0200  -42.2290 C.3    76  TRP76       0.1605
     93  C         -5.7540   20.5310  -41.8290 C.2    76  TRP76       0.2264
     94  O         -4.9810   19.7360  -42.3700 O.2    76  TRP76      -0.2867
     95  CB        -5.2360   22.9460  -41.1080 C.3    76  TRP76       0.0550
     96  CG        -4.9680   24.3650  -41.6050 C.ar   76  TRP76       0.0003
     97  CD1       -5.9010   25.3050  -41.9460 C.ar   76  TRP76       0.0946
     98  CD2       -3.6850   24.9820  -41.8290 C.ar   76  TRP76       0.0152
     99  NE1       -5.2810   26.4630  -42.3640 N.ar   76  TRP76      -0.2442
    100  CE2       -3.9230   26.2900  -42.3010 C.ar   76  TRP76       0.0810
    101  CE3       -2.3600   24.5550  -41.6760 C.ar   76  TRP76       0.0012
    102  CZ2       -2.8900   27.1710  -42.6160 C.ar   76  TRP76       0.0191
    103  CZ3       -1.3370   25.4380  -41.9890 C.ar   76  TRP76       0.0001
    104  CH2       -1.6090   26.7260  -42.4530 C.ar   76  TRP76       0.0015
@<TRIPOS>BOND
     1    91    92    1
     2   102   104   ar
     3   102   100   ar
     4   104   103   ar
     5    94    93    2
     6    99   100   ar
     7    99    97   ar
     8   100    98   ar
     9    92    93    1
    10    92    95    1
    11   103   101   ar
    12    97    96   ar
    13    98   101   ar
    14    98    96   ar
    15    96    95    1
    16    90    88   ar
    17    85    84    2
    18    82    83    1
    19    88    89   ar
    20    88    87    1
    21    83    84    1
    22    83    86    1
    23    80    79   ar
    24    20    19    1
    25    72    71   ar
    26    87    86    1
    27    70    71    1
    28    70    69    1
    29    71    73   ar
    30    18    19   ar
    31    18    16   ar
    32    79    81   ar
    33    79    78    1
    34    19    17   ar
    35    75    74    1
    36    75    76    1
    37    75    78    1
    38    69    66    1
    39    76    77    2
    40    16    14   ar
    41    17    15   ar
    42    37    35    1
    43    66    67    1
    44    66    65    1
    45    50    49    2
    46    14    15   ar
    47    14    13    1
    48    67    68    2
    49    65    53   am
    50    35    36    1
    51    35    34    1
    52    41    40    2
    53    49    48    1
    54    49    51   am
    55    63    61   ar
    56    63    64   ar
    57    53    52    1
    58    53    54    2
    59    13    10    1
    60    48    47    1
    61    34    31    1
    62    61    58   ar
    63    24    23    2
    64    64    62   ar
    65    52    51    1
    66    52    55    1
    67    40    47   am
    68    40    39    1
    69    31    32    1
    70    31    30    1
    71    38    39    1
    72    38    32   am
    73    58    60   ar
    74    58    56   ar
    75    62    60   ar
    76    10    11    1
    77    10     9    1
    78    23    30   am
    79    23    22    1
    80    60    59   ar
    81    39    42    1
    82    55    56    1
    83    32    33    2
    84    21    11   am
    85    21    22    1
    86    56    57   ar
    87    42    43    1
    88    11    12    2
    89    22    25    1
    90    59    57   ar
    91    45    44   ar
    92    43    44    1
    93    44    46   ar
    94    25    26    1
    95    29    27   ar
    96    26    27    1
    97     7     6    1
    98    27    28   ar
    99     2     1    1
   100     2     3    1
   101     2     5    1
   102     6     5    1
   103     6     8    1
   104     3     4    2
