@<TRIPOS>MOLECULE
tmp/3uimA00.pdb
 161 151 0 0 0
SMALL
GASTEIGER

@<TRIPOS>ATOM
      1  N         15.5040   -3.6460  -12.5610 N.3    23  LEU23      -0.1231
      2  CA        15.6340   -2.2170  -12.8080 C.3    23  LEU23       0.1693
      3  C         14.7030   -1.4620  -11.8700 C.2    23  LEU23       0.2593
      4  O         14.8600   -0.2620  -11.6500 O.2    23  LEU23      -0.2718
      5  CB        15.2810   -1.8970  -14.2580 C.3    23  LEU23       0.0284
      6  CG        16.0630   -2.6840  -15.3030 C.3    23  LEU23       0.0019
      7  CD1       15.3100   -2.7120  -16.6190 C.3    23  LEU23       0.0001
      8  CD2       17.4620   -2.1060  -15.4750 C.3    23  LEU23       0.0001
      9  N         13.7280   -2.1800  -11.3210 N.am   24  GLY24      -0.1942
     10  CA        12.7840   -1.6030  -10.3840 C.3    24  GLY24       0.2014
     11  C         11.4990   -2.4020  -10.2910 C.2    24  GLY24       0.2639
     12  O         11.2010   -3.2230  -11.1580 O.2    24  GLY24      -0.2714
     13  N         10.7400   -2.1680   -9.2250 N.am   25  ARG25      -0.1963
     14  CA         9.4330   -2.7920   -9.0670 C.3    25  ARG25       0.1729
     15  C          8.4200   -2.0170   -9.8960 C.2    25  ARG25       0.2617
     16  O          8.1170   -0.8580   -9.5990 O.2    25  ARG25      -0.2715
     17  CB         9.0130   -2.8220   -7.5950 C.3    25  ARG25       0.0348
     18  CG         9.7580   -3.8440   -6.7440 C.3    25  ARG25       0.0492
     19  CD        11.2400   -3.5110   -6.5970 C.3    25  ARG25       0.2205
     20  NE        11.8930   -4.3800   -5.6220 N.pl3  25  ARG25      -0.0865
     21  CZ        13.0940   -4.1540   -5.0970 C.cat  25  ARG25       0.5346
     22  NH1       13.7880   -3.0810   -5.4540 N.pl3  25  ARG25       0.1354
     23  NH2       13.6030   -5.0020   -4.2130 N.pl3  25  ARG25       0.1354
     24  N          7.9040   -2.6660  -10.9370 N.am   26  GLY26      -0.1940
     25  CA         7.0540   -2.0150  -11.9200 C.3    26  GLY26       0.2014
     26  C          5.6520   -1.6620  -11.4590 C.2    26  GLY26       0.2639
     27  O          5.4160   -1.3960  -10.2780 O.2    26  GLY26      -0.2714
     28  N          4.7220   -1.6460  -12.4100 N.am   27  GLY27      -0.1954
     29  CA         3.3360   -1.3260  -12.1340 C.3    27  GLY27       0.1869
     30  C          2.4920   -2.5790  -12.0280 C.2    27  GLY27       0.2309
     31  O          1.4810   -2.6010  -11.3250 O.2    27  GLY27      -0.2863
     32  N         10.3580   -4.9480  -13.4490 N.3    31  VAL31      -0.1245
     33  CA        11.0440   -4.7720  -14.7220 C.3    31  VAL31       0.1561
     34  C         12.4380   -5.3950  -14.6500 C.2    31  VAL31       0.2260
     35  O         13.1940   -5.1320  -13.7170 O.2    31  VAL31      -0.2867
     36  CB        11.1330   -3.2790  -15.1090 C.3    31  VAL31       0.0252
     37  CG1        9.7430   -2.6660  -15.1500 C.3    31  VAL31       0.0019
     38  CG2       12.0050   -2.5190  -14.1240 C.3    31  VAL31       0.0019
     39  N         14.3170   -4.7460  -21.7310 N.3    42  ALA42      -0.1245
     40  CA        13.7280   -4.6840  -20.4030 C.3    42  ALA42       0.1562
     41  C         12.4100   -5.4300  -20.5010 C.2    42  ALA42       0.2260
     42  O         11.6940   -5.3010  -21.4970 O.2    42  ALA42      -0.2867
     43  CB        13.5040   -3.2510  -19.9820 C.3    42  ALA42       0.0290
     44  N          8.7050   -6.7660  -18.5760 N.3    44  LYS44      -0.1245
     45  CA         7.7100   -6.6060  -17.5190 C.3    44  LYS44       0.1561
     46  C          7.1350   -7.9600  -17.1240 C.2    44  LYS44       0.2260
     47  O          6.6310   -8.7000  -17.9670 O.2    44  LYS44      -0.2867
     48  CB         6.5740   -5.6870  -17.9810 C.3    44  LYS44       0.0271
     49  CG         6.8200   -4.2050  -17.7560 C.3    44  LYS44       0.0035
     50  CD         5.6970   -3.3620  -18.3480 C.3    44  LYS44       0.0206
     51  CE         5.9320   -1.8780  -18.1120 C.3    44  LYS44       0.1093
     52  NZ         5.9430   -1.5480  -16.6540 N.3    44  LYS44      -0.1314
     53  N          7.7340    4.2330  -26.8340 N.3    69  LEU69      -0.1245
     54  CA         8.4290    2.9730  -26.6380 C.3    69  LEU69       0.1561
     55  C          7.7660    1.9050  -27.4740 C.2    69  LEU69       0.2260
     56  O          6.5710    1.6410  -27.3210 O.2    69  LEU69      -0.2867
     57  CB         8.3860    2.5700  -25.1680 C.3    69  LEU69       0.0270
     58  CG         9.4740    1.6200  -24.6720 C.3    69  LEU69       0.0019
     59  CD1        9.0980    1.0660  -23.2920 C.3    69  LEU69       0.0001
     60  CD2        9.7060    0.4960  -25.6730 C.3    69  LEU69       0.0001
     61  N         10.2020   -4.7630  -23.9040 N.3    85  TYR85      -0.1228
     62  CA        10.5160   -3.5190  -24.5950 C.3    85  TYR85       0.1721
     63  C         12.0430   -3.3950  -24.7440 C.2    85  TYR85       0.2437
     64  O         12.7940   -4.0140  -23.9910 O.2    85  TYR85      -0.2733
     65  CB        10.0210   -2.3360  -23.7600 C.3    85  TYR85       0.0547
     66  CG         8.5200   -2.2000  -23.6080 C.ar   85  TYR85      -0.0200
     67  CD1        7.7630   -1.5800  -24.5860 C.ar   85  TYR85      -0.0009
     68  CD2        7.8650   -2.6480  -22.4620 C.ar   85  TYR85      -0.0009
     69  CE1        6.3950   -1.4240  -24.4530 C.ar   85  TYR85       0.0417
     70  CE2        6.4860   -2.4990  -22.3200 C.ar   85  TYR85       0.0417
     71  CZ         5.7600   -1.8830  -23.3260 C.ar   85  TYR85       0.1957
     72  OH         4.3960   -1.7150  -23.2240 O.3    85  TYR85      -0.2866
     73  N         12.5140   -2.5810  -25.7010 N.am   86  PRO86      -0.2718
     74  CA        13.9610   -2.3610  -25.7590 C.3    86  PRO86       0.1535
     75  C         14.4820   -1.7930  -24.4450 C.2    86  PRO86       0.2599
     76  O         13.8520   -0.9260  -23.8510 O.2    86  PRO86      -0.2715
     77  CB        14.1020   -1.3060  -26.8520 C.3    86  PRO86       0.0310
     78  CG        12.9030   -1.5000  -27.7200 C.3    86  PRO86       0.0237
     79  CD        11.8020   -1.8700  -26.7760 C.3    86  PRO86       0.0939
     80  N         15.6280   -2.2780  -23.9900 N.am   87  TYR87      -0.1960
     81  CA        16.2950   -1.6390  -22.8760 C.3    87  TYR87       0.1771
     82  C         16.6380   -0.2420  -23.3460 C.2    87  TYR87       0.2619
     83  O         16.9840   -0.0480  -24.5030 O.2    87  TYR87      -0.2715
     84  CB        17.5630   -2.4010  -22.5090 C.3    87  TYR87       0.0574
     85  CG        18.3690   -1.7710  -21.3980 C.ar   87  TYR87      -0.0198
     86  CD1       19.5440   -1.0820  -21.6710 C.ar   87  TYR87      -0.0009
     87  CD2       17.9620   -1.8750  -20.0780 C.ar   87  TYR87      -0.0009
     88  CE1       20.2870   -0.5050  -20.6550 C.ar   87  TYR87       0.0417
     89  CE2       18.6940   -1.3020  -19.0560 C.ar   87  TYR87       0.0417
     90  CZ        19.8570   -0.6240  -19.3460 C.ar   87  TYR87       0.1957
     91  OH        20.5880   -0.0610  -18.3220 O.3    87  TYR87      -0.2866
     92  N         16.5290    0.7380  -22.4600 N.am   88  MET88      -0.1977
     93  CA        16.7940    2.1080  -22.8630 C.3    88  MET88       0.1605
     94  C         18.0870    2.6190  -22.2710 C.2    88  MET88       0.2287
     95  O         18.1970    2.8660  -21.0580 O.2    88  MET88      -0.2864
     96  CB        15.6200    3.0290  -22.5390 C.3    88  MET88       0.0413
     97  CG        14.4840    2.8950  -23.5370 C.3    88  MET88       0.0598
     98  SD        14.9030    3.5290  -25.1720 S.3    88  MET88      -0.1393
     99  CE        14.1720    2.2700  -26.2190 C.3    88  MET88       0.0692
    100  N         18.1020    5.1130  -19.3810 N.3    91  GLY91      -0.1210
    101  CA        17.0600    5.0460  -18.3600 C.3    91  GLY91       0.1956
    102  C         16.0420    6.1840  -18.3730 C.2    91  GLY91       0.2612
    103  O         15.9290    6.9250  -19.3540 O.2    91  GLY91      -0.2717
    104  N         15.2990    6.3270  -17.2780 N.am   92  SER92      -0.1952
    105  CA        14.2230    7.3070  -17.2110 C.3    92  SER92       0.1924
    106  C         14.7790    8.7000  -17.0350 C.2    92  SER92       0.2314
    107  O         15.9350    8.8770  -16.6560 O.2    92  SER92      -0.2863
    108  CB        13.2780    7.0090  -16.0340 C.3    92  SER92       0.2116
    109  OG        13.9090    7.3150  -14.7970 O.3    92  SER92      -0.2180
    110  N         15.3190    8.8650  -13.1870 N.3    95  SER95      -0.1217
    111  CA        16.6430    8.4110  -12.7830 C.3    95  SER95       0.1889
    112  C         17.7010    9.4770  -13.0290 C.2    95  SER95       0.2288
    113  O         18.4260    9.8600  -12.1100 O.2    95  SER95      -0.2866
    114  CB        17.0210    7.1300  -13.5190 C.3    95  SER95       0.2089
    115  OG        17.4240    7.4160  -14.8370 O.3    95  SER95      -0.2183
    116  N         -0.2690    7.7050  -17.4300 N.3   138  ASP138     -0.1239
    117  CA         0.8710    7.6100  -16.5340 C.3   138  ASP138      0.1674
    118  C          2.0040    8.5090  -16.9840 C.2   138  ASP138      0.2266
    119  O          3.1600    8.1160  -16.9540 O.2   138  ASP138     -0.2867
    120  CB         1.3640    6.1690  -16.4370 C.3   138  ASP138      0.1410
    121  CG         1.7510    5.7820  -15.0000 C.2   138  ASP138      0.3668
    122  OD1        1.6140    6.6320  -14.0900 O.co2 138  ASP138     -0.2456
    123  OD2        2.1640    4.6250  -14.7830 O.co2 138  ASP138     -0.2456
    124  N          4.7770   10.9260  -16.5800 N.3   140  LYS140     -0.1245
    125  CA         5.6560   11.4120  -15.5220 C.3   140  LYS140      0.1561
    126  C          7.0920   11.1030  -15.8950 C.2   140  LYS140      0.2260
    127  O          7.3210   10.2740  -16.7640 O.2   140  LYS140     -0.2867
    128  CB         5.3110   10.7370  -14.1840 C.3   140  LYS140      0.0271
    129  CG         5.3410    9.2360  -14.2200 C.3   140  LYS140      0.0035
    130  CD         4.8580    8.6360  -12.8700 C.3   140  LYS140      0.0206
    131  CE         4.6860    7.1300  -12.9850 C.3   140  LYS140      0.1093
    132  NZ         3.9460    6.5440  -11.8260 N.3   140  LYS140     -0.1314
    133  N          9.3720    9.3590  -14.6510 N.3   142  ALA142     -0.1231
    134  CA         9.7640    7.9720  -14.4930 C.3   142  ALA142      0.1694
    135  C          9.3470    7.1890  -15.7070 C.2   142  ALA142      0.2592
    136  O          9.9110    6.1470  -16.0250 O.2   142  ALA142     -0.2718
    137  CB         9.1140    7.3820  -13.2230 C.3   142  ALA142      0.0304
    138  N          8.3280    7.6950  -16.3850 N.am  143  ASN143     -0.1974
    139  CA         7.7440    6.9890  -17.5000 C.3   143  ASN143      0.1688
    140  C          8.1720    7.5270  -18.8720 C.2   143  ASN143      0.2292
    141  O          7.7240    7.0230  -19.8800 O.2   143  ASN143     -0.2864
    142  CB         6.2210    6.9660  -17.3580 C.3   143  ASN143      0.1181
    143  CG         5.7530    5.9130  -16.3850 C.2   143  ASN143      0.2629
    144  OD1        6.4900    4.9810  -16.0560 O.2   143  ASN143     -0.2716
    145  ND2        4.5380    6.0450  -15.9220 N.am  143  ASN143     -0.0877
    146  N         11.4210    7.5380  -21.1090 N.3   145  LEU145     -0.1245
    147  CA        12.7390    6.9090  -21.2110 C.3   145  LEU145      0.1561
    148  C         13.6370    7.5630  -22.2750 C.2   145  LEU145      0.2260
    149  O         13.1580    8.1080  -23.2840 O.2   145  LEU145     -0.2867
    150  CB        12.5960    5.4180  -21.5350 C.3   145  LEU145      0.0270
    151  CG        11.6740    4.5290  -20.6940 C.3   145  LEU145      0.0019
    152  CD1       10.2170    4.8780  -20.9170 C.3   145  LEU145      0.0001
    153  CD2       11.9040    3.0780  -21.0540 C.3   145  LEU145      0.0001
    154  N          5.9630    2.5100  -20.6330 N.3   156  ASP156     -0.1239
    155  CA         4.9730    1.9420  -19.7010 C.3   156  ASP156      0.1674
    156  C          3.5240    2.2890  -20.0230 C.2   156  ASP156      0.2266
    157  O          2.9770    3.2640  -19.5030 O.2   156  ASP156     -0.2867
    158  CB         5.2870    2.3070  -18.2420 C.3   156  ASP156      0.1410
    159  CG         4.3950    1.5590  -17.2470 C.2   156  ASP156      0.3668
    160  OD1        4.4160    1.8970  -16.0360 O.co2 156  ASP156     -0.2456
    161  OD2        3.6700    0.6300  -17.6830 O.co2 156  ASP156     -0.2456
@<TRIPOS>BOND
     1    78    77    1
     2    78    79    1
     3    55    56    2
     4    55    54    1
     5    77    74    1
     6    53    54    1
     7    79    73    1
     8    54    57    1
     9    99    98    1
    10    74    73    1
    11    74    75    1
    12    73    63   am
    13    60    58    1
    14    98    97    1
    15    57    58    1
    16    63    62    1
    17    63    64    2
    18    58    59    1
    19    62    61    1
    20    62    65    1
    21    67    69   ar
    22    67    66   ar
    23    83    82    2
    24    69    71   ar
    25    75    80   am
    26    75    76    2
    27    80    81    1
    28    65    66    1
    29    66    68   ar
    30    97    96    1
    31    82    81    1
    32    82    92   am
    33    71    72    1
    34    71    70   ar
    35   149   148    2
    36    81    84    1
    37    93    96    1
    38    93    92    1
    39    93    94    1
    40    84    85    1
    41    68    70   ar
    42   148   147    1
    43    94    95    2
    44    39    40    1
    45    86    85   ar
    46    86    88   ar
    47   150   147    1
    48   150   151    1
    49    42    41    2
    50    85    87   ar
    51   147   146    1
    52   153   151    1
    53   152   151    1
    54    88    90   ar
    55   154   155    1
    56    41    40    1
    57    40    43    1
    58    87    89   ar
    59   156   155    1
    60   156   157    2
    61   141   140    2
    62   155   158    1
    63   100   101    1
    64   103   102    2
    65    90    89   ar
    66    90    91    1
    67   140   139    1
    68    44    45    1
    69   102   101    1
    70   102   104   am
    71    50    51    1
    72    50    49    1
    73   158   159    1
    74    51    52    1
    75    48    49    1
    76    48    45    1
    77    47    46    2
    78   161   159   ar
    79    45    46    1
    80   139   142    1
    81   139   138    1
    82   116   117    1
    83   142   143    1
    84   104   105    1
    85   159   160   ar
    86   105   106    1
    87   105   108    1
    88   106   107    2
    89   118   119    2
    90   118   117    1
    91   127   126    2
    92     7     6    1
    93   124   125    1
    94   117   120    1
    95   120   121    1
    96   143   144    2
    97   143   145   am
    98   138   135   am
    99   108   109    1
   100   136   135    2
   101   126   125    1
   102   135   134    1
   103   125   128    1
   104     8     6    1
   105     6     5    1
   106    37    36    1
   107    36    33    1
   108    36    38    1
   109   121   123   ar
   110   121   122   ar
   111   115   114    1
   112    33    34    1
   113    33    32    1
   114   133   134    1
   115    34    35    2
   116   134   137    1
   117     5     2    1
   118   129   128    1
   119   129   130    1
   120   114   111    1
   121   110   111    1
   122   112   111    1
   123   112   113    2
   124   131   130    1
   125   131   132    1
   126     2     1    1
   127     2     3    1
   128    28    29    1
   129    28    26   am
   130    29    30    1
   131    30    31    2
   132    25    26    1
   133    25    24    1
   134     3     4    2
   135     3     9   am
   136    26    27    2
   137     9    10    1
   138    12    11    2
   139    24    15   am
   140    10    11    1
   141    11    13   am
   142    15    16    2
   143    15    14    1
   144    13    14    1
   145    14    17    1
   146    17    18    1
   147    18    19    1
   148    19    20    1
   149    20    21    2
   150    22    21    1
   151    21    23    1
