@<TRIPOS>MOLECULE
tmp/3uivB07.pdb
 97 89 0 0 0
SMALL
GASTEIGER

@<TRIPOS>ATOM
      1  N         24.1590   39.8340   22.4270 N.3   217  LEU217     -0.1245
      2  CA        25.1910   38.8920   22.0060 C.3   217  LEU217      0.1561
      3  C         26.1510   39.5100   21.0080 C.2   217  LEU217      0.2260
      4  O         27.3210   39.1190   20.9390 O.2   217  LEU217     -0.2867
      5  CB        24.5860   37.6230   21.4270 C.3   217  LEU217      0.0270
      6  CG        23.7260   36.8210   22.3870 C.3   217  LEU217      0.0019
      7  CD1       23.1400   35.6180   21.6470 C.3   217  LEU217      0.0001
      8  CD2       24.5600   36.3920   23.6010 C.3   217  LEU217      0.0001
      9  N         28.7100   41.2960   22.9220 N.3   220  ARG220     -0.1231
     10  CA        29.5110   40.3060   23.6080 C.3   220  ARG220      0.1694
     11  C         30.4480   39.6290   22.6300 C.2   220  ARG220      0.2592
     12  O         31.6410   39.4640   22.8970 O.2   220  ARG220     -0.2718
     13  CB        28.5790   39.2660   24.2560 C.3   220  ARG220      0.0321
     14  CG        29.0480   38.7030   25.5810 C.3   220  ARG220      0.0489
     15  CD        27.8730   38.0860   26.3370 C.3   220  ARG220      0.2205
     16  NE        28.2280   37.7250   27.7040 N.pl3 220  ARG220     -0.0865
     17  CZ        28.1960   38.5710   28.7270 C.cat 220  ARG220      0.5346
     18  NH1       27.8290   39.8280   28.5280 N.pl3 220  ARG220      0.1354
     19  NH2       28.5380   38.1620   29.9420 N.pl3 220  ARG220      0.1354
     20  N         29.9110   39.2560   21.4780 N.am  221  PHE221     -0.1976
     21  CA        30.6780   38.4990   20.5110 C.3   221  PHE221      0.1639
     22  C         30.8380   39.2830   19.2050 C.2   221  PHE221      0.2290
     23  O         30.4730   38.8060   18.1490 O.2   221  PHE221     -0.2864
     24  CB        30.0050   37.1440   20.2610 C.3   221  PHE221      0.0560
     25  CG        29.6900   36.3620   21.5300 C.ar  221  PHE221     -0.0200
     26  CD1       30.6480   36.2140   22.5370 C.ar  221  PHE221     -0.0042
     27  CD2       28.4550   35.7310   21.6890 C.ar  221  PHE221     -0.0042
     28  CE1       30.3830   35.4860   23.6580 C.ar  221  PHE221     -0.0003
     29  CE2       28.1790   34.9900   22.8400 C.ar  221  PHE221     -0.0003
     30  CZ        29.1420   34.8730   23.8230 C.ar  221  PHE221     -0.0000
     31  N         22.7000   31.4060   17.7410 N.3   232  LEU232     -0.1245
     32  CA        22.7650   31.4970   19.1990 C.3   232  LEU232      0.1561
     33  C         21.5650   32.1750   19.8270 C.2   232  LEU232      0.2260
     34  O         21.1580   31.8190   20.9210 O.2   232  LEU232     -0.2867
     35  CB        24.0140   32.2510   19.6460 C.3   232  LEU232      0.0270
     36  CG        25.3120   31.5260   19.3430 C.3   232  LEU232      0.0019
     37  CD1       26.4910   32.4420   19.6590 C.3   232  LEU232      0.0001
     38  CD2       25.3700   30.2020   20.1400 C.3   232  LEU232      0.0001
     39  N         19.2280   30.3210   22.4710 N.3   236  LEU236     -0.1245
     40  CA        19.0920   31.0160   23.7470 C.3   236  LEU236      0.1561
     41  C         17.6120   31.2870   24.0780 C.2   236  LEU236      0.2260
     42  O         17.1780   31.2080   25.2290 O.2   236  LEU236     -0.2867
     43  CB        19.8640   32.3330   23.6950 C.3   236  LEU236      0.0270
     44  CG        20.6840   32.7770   24.9130 C.3   236  LEU236      0.0019
     45  CD1       20.8060   34.3000   24.9420 C.3   236  LEU236      0.0001
     46  CD2       20.1330   32.2600   26.2220 C.3   236  LEU236      0.0001
     47  N         20.7230   24.4670   28.9410 N.3   255  ARG255     -0.1245
     48  CA        21.8570   25.3510   29.1790 C.3   255  ARG255      0.1563
     49  C         23.1700   24.6620   28.8570 C.2   255  ARG255      0.2260
     50  O         24.0120   25.2350   28.1800 O.2   255  ARG255     -0.2867
     51  CB        21.8730   25.9110   30.6140 C.3   255  ARG255      0.0307
     52  CG        20.7630   26.9220   30.9040 C.3   255  ARG255      0.0489
     53  CD        20.7360   27.2570   32.3930 C.3   255  ARG255      0.2205
     54  NE        22.0840   27.5590   32.8480 N.pl3 255  ARG255     -0.0865
     55  CZ        22.5150   28.7880   33.1300 C.cat 255  ARG255      0.5346
     56  NH1       21.6930   29.8220   33.0320 N.pl3 255  ARG255      0.1354
     57  NH2       23.7640   28.9850   33.5290 N.pl3 255  ARG255      0.1354
     58  N         23.7180   24.2520   25.1890 N.3   258  LEU258     -0.1231
     59  CA        24.1210   25.4750   24.4770 C.3   258  LEU258      0.1693
     60  C         25.5850   25.8330   24.8010 C.2   258  LEU258      0.2591
     61  O         26.3390   26.2050   23.9110 O.2   258  LEU258     -0.2718
     62  CB        23.1550   26.6430   24.7500 C.3   258  LEU258      0.0284
     63  CG        23.4370   28.0070   24.0810 C.3   258  LEU258      0.0019
     64  CD1       23.4950   27.9130   22.5400 C.3   258  LEU258      0.0001
     65  CD2       22.4320   29.0430   24.5330 C.3   258  LEU258      0.0001
     66  N         25.9940   25.6550   26.0570 N.am  259  ALA259     -0.1980
     67  CA        27.4040   25.8410   26.4390 C.3   259  ALA259      0.1597
     68  C         28.3690   24.9820   25.6340 C.2   259  ALA259      0.2287
     69  O         29.4030   25.4840   25.1510 O.2   259  ALA259     -0.2864
     70  CB        27.6110   25.5890   27.9360 C.3   259  ALA259      0.0319
     71  N         28.6390   26.2050   22.2110 N.3   262  ILE262     -0.1245
     72  CA        29.4620   27.4080   22.1730 C.3   262  ILE262      0.1561
     73  C         30.9380   27.0570   22.3300 C.2   262  ILE262      0.2260
     74  O         31.7850   27.5420   21.5810 O.2   262  ILE262     -0.2867
     75  CB        29.0310   28.4440   23.2230 C.3   262  ILE262      0.0252
     76  CG1       27.7260   29.1030   22.7920 C.3   262  ILE262      0.0019
     77  CG2       30.1250   29.5300   23.4000 C.3   262  ILE262      0.0019
     78  CD1       27.0220   29.8580   23.8930 C.3   262  ILE262      0.0001
     79  N         28.0900   26.9380   31.5830 N.3   285  SER285     -0.1217
     80  CA        27.1290   27.8700   31.0290 C.3   285  SER285      0.1889
     81  C         27.1470   29.1920   31.8130 C.2   285  SER285      0.2288
     82  O         27.1090   30.2740   31.2310 O.2   285  SER285     -0.2866
     83  CB        25.7350   27.2500   30.9920 C.3   285  SER285      0.2089
     84  OG        25.2590   27.0720   32.3010 O.3   285  SER285     -0.2183
     85  N         30.1600   31.3180   30.9380 N.3   288  ILE288     -0.1231
     86  CA        29.9620   31.8760   29.6150 C.3   288  ILE288      0.1692
     87  C         28.9740   33.0520   29.6720 C.2   288  ILE288      0.2591
     88  O         29.1440   34.0380   28.9700 O.2   288  ILE288     -0.2718
     89  CB        29.5040   30.8290   28.5910 C.3   288  ILE288      0.0266
     90  CG1       30.5600   29.7420   28.4110 C.3   288  ILE288      0.0019
     91  CG2       29.3060   31.4770   27.2310 C.3   288  ILE288      0.0020
     92  CD1       30.1170   28.6020   27.4910 C.3   288  ILE288      0.0001
     93  N         27.9670   32.9460   30.5330 N.am  289  ALA289     -0.1980
     94  CA        26.9430   33.9810   30.6520 C.3   289  ALA289      0.1597
     95  C         27.5180   35.3200   31.1250 C.2   289  ALA289      0.2287
     96  O         26.9720   36.3800   30.8060 O.2   289  ALA289     -0.2864
     97  CB        25.8140   33.5220   31.5830 C.3   289  ALA289      0.0319
@<TRIPOS>BOND
     1    31    32    1
     2    23    22    2
     3    32    35    1
     4    32    33    1
     5    22    21    1
     6    36    35    1
     7    36    37    1
     8    36    38    1
     9    33    34    2
    10    24    21    1
    11    24    25    1
    12    21    20    1
    13     4     3    2
    14     3     2    1
    15     5     2    1
    16     5     6    1
    17    20    11   am
    18    25    27   ar
    19    25    26   ar
    20    74    73    2
    21     7     6    1
    22    27    29   ar
    23     2     1    1
    24    72    71    1
    25    72    73    1
    26    72    75    1
    27     6     8    1
    28    39    40    1
    29    26    28   ar
    30    64    63    1
    31    11    12    2
    32    11    10    1
    33    76    75    1
    34    76    78    1
    35    29    30   ar
    36     9    10    1
    37    75    77    1
    38    10    13    1
    39    28    30   ar
    40    43    40    1
    41    43    44    1
    42    40    41    1
    43    61    60    2
    44    41    42    2
    45    63    65    1
    46    63    62    1
    47    13    14    1
    48    59    62    1
    49    59    60    1
    50    59    58    1
    51    60    66   am
    52    44    45    1
    53    44    46    1
    54    69    68    2
    55    14    15    1
    56    68    67    1
    57    66    67    1
    58    15    16    1
    59    67    70    1
    60    91    89    1
    61    92    90    1
    62    16    17    2
    63    50    49    2
    64    90    89    1
    65    18    17    1
    66    89    86    1
    67    17    19    1
    68    49    48    1
    69    47    48    1
    70    88    87    2
    71    48    51    1
    72    86    87    1
    73    86    85    1
    74    87    93   am
    75    93    94    1
    76    51    52    1
    77    94    95    1
    78    94    97    1
    79    96    95    2
    80    52    53    1
    81    83    80    1
    82    83    84    1
    83    80    79    1
    84    80    81    1
    85    82    81    2
    86    53    54    1
    87    54    55    2
    88    56    55    1
    89    55    57    1
