@<TRIPOS>MOLECULE
tmp/3uivB05.pdb
 135 127 0 0 0
SMALL
GASTEIGER

@<TRIPOS>ATOM
      1  N         16.1690   39.5020   38.1680 N.3   193  LYS193     -0.1245
      2  CA        16.4790   39.3210   36.7480 C.3   193  LYS193      0.1561
      3  C         15.8570   38.0500   36.1780 C.2   193  LYS193      0.2260
      4  O         15.2210   38.0960   35.1320 O.2   193  LYS193     -0.2867
      5  CB        17.9850   39.2960   36.4790 C.3   193  LYS193      0.0271
      6  CG        18.6970   40.5930   36.7450 C.3   193  LYS193      0.0035
      7  CD        20.1820   40.4500   36.5060 C.3   193  LYS193      0.0206
      8  CE        20.9190   41.7020   36.9460 C.3   193  LYS193      0.1093
      9  NZ        22.3610   41.6540   36.5750 N.3   193  LYS193     -0.1314
     10  N         12.3320   38.5300   35.7130 N.3   196  LEU196     -0.1231
     11  CA        12.0780   39.5880   34.7400 C.3   196  LEU196      0.1693
     12  C         12.1680   39.0420   33.3260 C.2   196  LEU196      0.2591
     13  O         11.3660   39.4030   32.4740 O.2   196  LEU196     -0.2718
     14  CB        13.0540   40.7520   34.9350 C.3   196  LEU196      0.0284
     15  CG        13.0280   41.9180   33.9460 C.3   196  LEU196      0.0019
     16  CD1       11.6250   42.4790   33.7690 C.3   196  LEU196      0.0001
     17  CD2       13.9920   43.0150   34.3920 C.3   196  LEU196      0.0001
     18  N         13.1370   38.1580   33.0900 N.am  197  LYS197     -0.1980
     19  CA        13.2810   37.4980   31.7940 C.3   197  LYS197      0.1596
     20  C         11.9940   36.7760   31.4220 C.2   197  LYS197      0.2287
     21  O         11.4610   36.9480   30.3260 O.2   197  LYS197     -0.2864
     22  CB        14.4270   36.4850   31.8270 C.3   197  LYS197      0.0298
     23  CG        15.7860   37.0880   32.1580 C.3   197  LYS197      0.0038
     24  CD        16.3700   37.8170   30.9590 C.3   197  LYS197      0.0206
     25  CE        17.6720   38.5380   31.3240 C.3   197  LYS197      0.1093
     26  NZ        18.6070   37.6490   32.0730 N.3   197  LYS197     -0.1314
     27  N          8.9770   39.2430   30.9730 N.3   200  SER200     -0.1217
     28  CA         9.0930   39.9800   29.7120 C.3   200  SER200      0.1889
     29  C          8.7200   39.1180   28.5020 C.2   200  SER200      0.2288
     30  O          7.9410   39.5290   27.6450 O.2   200  SER200     -0.2866
     31  CB        10.5110   40.5340   29.5510 C.3   200  SER200      0.2089
     32  OG        10.8790   41.3190   30.6790 O.3   200  SER200     -0.2183
     33  N         11.9570   39.5390   22.6100 N.3   209  PHE209     -0.1241
     34  CA        12.9440   38.8180   23.4020 C.3   209  PHE209      0.1605
     35  C         14.1840   38.6000   22.5530 C.2   209  PHE209      0.2264
     36  O         15.2970   38.8860   22.9960 O.2   209  PHE209     -0.2867
     37  CB        12.3760   37.4840   23.8720 C.3   209  PHE209      0.0534
     38  CG        13.1730   36.8230   24.9670 C.ar  209  PHE209     -0.0203
     39  CD1       12.8250   37.0060   26.2960 C.ar  209  PHE209     -0.0042
     40  CD2       14.2420   36.0050   24.6660 C.ar  209  PHE209     -0.0042
     41  CE1       13.5340   36.3960   27.3090 C.ar  209  PHE209     -0.0003
     42  CE2       14.9580   35.3810   25.6660 C.ar  209  PHE209     -0.0003
     43  CZ        14.6000   35.5780   27.0020 C.ar  209  PHE209     -0.0000
     44  N         16.3230   41.7090   21.9110 N.3   212  TRP212     -0.1227
     45  CA        17.1760   42.0330   23.0380 C.3   212  TRP212      0.1737
     46  C         18.4180   41.1350   23.0010 C.2   212  TRP212      0.2595
     47  O         19.5410   41.6000   23.2110 O.2   212  TRP212     -0.2718
     48  CB        16.3990   41.8260   24.3340 C.3   212  TRP212      0.0564
     49  CG        16.9600   42.5180   25.5330 C.ar  212  TRP212      0.0003
     50  CD1       16.5280   43.6940   26.0610 C.ar  212  TRP212      0.0946
     51  CD2       18.0420   42.0730   26.3580 C.ar  212  TRP212      0.0152
     52  NE1       17.2710   44.0130   27.1700 N.ar  212  TRP212     -0.2442
     53  CE2       18.2130   43.0400   27.3740 C.ar  212  TRP212      0.0810
     54  CE3       18.8910   40.9610   26.3520 C.ar  212  TRP212      0.0012
     55  CZ2       19.1980   42.9250   28.3630 C.ar  212  TRP212      0.0191
     56  CZ3       19.8720   40.8480   27.3290 C.ar  212  TRP212      0.0001
     57  CH2       20.0160   41.8250   28.3220 C.ar  212  TRP212      0.0015
     58  N         18.2200   39.8490   22.7070 N.am  213  ALA213     -0.1980
     59  CA        19.3490   38.9180   22.6520 C.3   213  ALA213      0.1597
     60  C         20.3170   39.2560   21.5110 C.2   213  ALA213      0.2287
     61  O         21.5440   39.1880   21.6740 O.2   213  ALA213     -0.2864
     62  CB        18.8600   37.4680   22.5500 C.3   213  ALA213      0.0319
     63  N         22.4300   42.1240   22.7130 N.3   216  ARG216     -0.1231
     64  CA        23.3660   41.7330   23.7550 C.3   216  ARG216      0.1694
     65  C         24.4830   40.8080   23.2630 C.2   216  ARG216      0.2591
     66  O         25.6470   40.9840   23.6280 O.2   216  ARG216     -0.2718
     67  CB        22.6430   41.1270   24.9630 C.3   216  ARG216      0.0321
     68  CG        23.5610   40.9620   26.1940 C.3   216  ARG216      0.0489
     69  CD        24.2830   42.2880   26.4760 C.3   216  ARG216      0.2205
     70  NE        25.3270   42.2070   27.5050 N.pl3 216  ARG216     -0.0865
     71  CZ        26.6350   42.3250   27.2660 C.cat 216  ARG216      0.5346
     72  NH1       27.0700   42.5180   26.0320 N.pl3 216  ARG216      0.1354
     73  NH2       27.5110   42.2650   28.2590 N.pl3 216  ARG216      0.1354
     74  N         24.1590   39.8340   22.4270 N.am  217  LEU217     -0.1980
     75  CA        25.1910   38.8920   22.0060 C.3   217  LEU217      0.1596
     76  C         26.1510   39.5100   21.0080 C.2   217  LEU217      0.2287
     77  O         27.3210   39.1190   20.9390 O.2   217  LEU217     -0.2864
     78  CB        24.5860   37.6230   21.4270 C.3   217  LEU217      0.0297
     79  CG        23.7260   36.8210   22.3870 C.3   217  LEU217      0.0022
     80  CD1       23.1400   35.6180   21.6470 C.3   217  LEU217      0.0001
     81  CD2       24.5600   36.3920   23.6010 C.3   217  LEU217      0.0001
     82  N         19.2280   30.3210   22.4710 N.3   236  LEU236     -0.1245
     83  CA        19.0920   31.0160   23.7470 C.3   236  LEU236      0.1561
     84  C         17.6120   31.2870   24.0780 C.2   236  LEU236      0.2260
     85  O         17.1780   31.2080   25.2290 O.2   236  LEU236     -0.2867
     86  CB        19.8640   32.3330   23.6950 C.3   236  LEU236      0.0270
     87  CG        20.6840   32.7770   24.9130 C.3   236  LEU236      0.0019
     88  CD1       20.8060   34.3000   24.9420 C.3   236  LEU236      0.0001
     89  CD2       20.1330   32.2600   26.2220 C.3   236  LEU236      0.0001
     90  N         15.6490   29.9010   27.3350 N.3   240  HIS240     -0.1241
     91  CA        14.8330   30.6900   28.2690 C.3   240  HIS240      0.1621
     92  C         13.3460   30.2270   28.3300 C.2   240  HIS240      0.2264
     93  O         12.7170   30.2180   29.4030 O.2   240  HIS240     -0.2867
     94  CB        14.8950   32.1960   27.9590 C.3   240  HIS240      0.0745
     95  CG        16.1610   32.8590   28.3930 C.ar  240  HIS240      0.0817
     96  ND1       16.3120   33.4440   29.6280 N.ar  240  HIS240     -0.2268
     97  CD2       17.3380   33.0480   27.7440 C.ar  240  HIS240      0.1154
     98  CE1       17.5310   33.9430   29.7360 C.ar  240  HIS240      0.1986
     99  NE2       18.1710   33.7120   28.6050 N.ar  240  HIS240     -0.2212
    100  N         27.9670   32.9460   30.5330 N.3   289  ALA289     -0.1245
    101  CA        26.9430   33.9810   30.6520 C.3   289  ALA289      0.1562
    102  C         27.5180   35.3200   31.1250 C.2   289  ALA289      0.2260
    103  O         26.9720   36.3800   30.8060 O.2   289  ALA289     -0.2867
    104  CB        25.8140   33.5220   31.5830 C.3   289  ALA289      0.0290
    105  N         22.0040   50.6710   33.0080 N.3   448  GLU448     -0.1231
    106  CA        20.8370   49.9260   32.5390 C.3   448  GLU448      0.1699
    107  C         20.6060   48.6950   33.3960 C.2   448  GLU448      0.2592
    108  O         19.4970   48.4460   33.8610 O.2   448  GLU448     -0.2718
    109  CB        20.9960   49.5010   31.0720 C.3   448  GLU448      0.0402
    110  CG        20.2030   48.2490   30.6930 C.3   448  GLU448      0.1161
    111  CD        20.2680   47.9190   29.2000 C.2   448  GLU448      0.3649
    112  OE1       21.3890   47.7740   28.6660 O.co2 448  GLU448     -0.2457
    113  OE2       19.1930   47.8000   28.5590 O.co2 448  GLU448     -0.2457
    114  N         21.6640   47.9260   33.5920 N.am  449  ASP449     -0.1974
    115  CA        21.5550   46.6490   34.2710 C.3   449  ASP449      0.1709
    116  C         21.0020   46.8520   35.6740 C.2   449  ASP449      0.2293
    117  O         20.0660   46.1710   36.0970 O.2   449  ASP449     -0.2864
    118  CB        22.9300   45.9840   34.3310 C.3   449  ASP449      0.1436
    119  CG        22.8430   44.5060   34.5490 C.2   449  ASP449      0.3671
    120  OD1       22.7740   44.0840   35.7200 O.co2 449  ASP449     -0.2456
    121  OD2       22.8340   43.7670   33.5450 O.co2 449  ASP449     -0.2456
    122  N         17.2710   48.2630   35.7770 N.3   452  SER452     -0.1217
    123  CA        16.2130   47.3040   35.5110 C.3   452  SER452      0.1889
    124  C         15.8230   46.5830   36.7940 C.2   452  SER452      0.2288
    125  O         14.6540   46.2470   36.9780 O.2   452  SER452     -0.2866
    126  CB        16.5830   46.3160   34.3960 C.3   452  SER452      0.2089
    127  OG        17.4790   45.3210   34.8530 O.3   452  SER452     -0.2183
    128  N          9.6890   47.4080   27.8160 N.3   479  LEU479     -0.1245
    129  CA        10.9350   47.4790   28.5690 C.3   479  LEU479      0.1561
    130  C         11.8440   48.5480   27.9850 C.2   479  LEU479      0.2260
    131  O         12.6740   49.1210   28.6770 O.2   479  LEU479     -0.2867
    132  CB        11.6580   46.1250   28.5240 C.3   479  LEU479      0.0270
    133  CG        12.9380   45.9710   29.3320 C.3   479  LEU479      0.0019
    134  CD1       12.6390   45.9230   30.8260 C.3   479  LEU479      0.0001
    135  CD2       13.6930   44.7150   28.9060 C.3   479  LEU479      0.0001
@<TRIPOS>BOND
     1    77    76    2
     2    76    75    1
     3    78    75    1
     4    78    79    1
     5    60    61    2
     6    60    59    1
     7    80    79    1
     8    44    45    1
     9    75    74    1
    10    79    81    1
    11    74    65   am
    12    82    83    1
    13    62    59    1
    14    35    36    2
    15    35    34    1
    16    33    34    1
    17    59    58    1
    18    58    46   am
    19    63    64    1
    20    46    45    1
    21    46    47    2
    22    45    48    1
    23    65    66    2
    24    65    64    1
    25    34    37    1
    26    86    83    1
    27    86    87    1
    28    83    84    1
    29    64    67    1
    30    37    38    1
    31    84    85    2
    32    48    49    1
    33    40    38   ar
    34    40    42   ar
    35    87    88    1
    36    87    89    1
    37    67    68    1
    38    38    39   ar
    39    49    50   ar
    40    49    51   ar
    41    42    43   ar
    42    72    71    1
    43    50    52   ar
    44    68    69    1
    45    39    41   ar
    46    54    51   ar
    47    54    56   ar
    48    51    53   ar
    49    69    70    1
    50    43    41   ar
    51    52    53   ar
    52    71    70    2
    53    71    73    1
    54    56    57   ar
    55    90    91    1
    56    53    55   ar
    57    30    29    2
    58    97    95   ar
    59    97    99   ar
    60   128   129    1
    61    94    91    1
    62    94    95    1
    63   130   129    1
    64   130   131    2
    65    91    92    1
    66    57    55   ar
    67    92    93    2
    68    95    96   ar
    69    29    28    1
    70   132   129    1
    71   132   133    1
    72   113   111   ar
    73    99    98   ar
    74   112   111   ar
    75   135   133    1
    76   111   110    1
    77   133   134    1
    78    31    28    1
    79    31    32    1
    80    96    98   ar
    81    28    27    1
    82    21    20    2
    83   100   101    1
    84   101   102    1
    85   101   104    1
    86   110   109    1
    87   103   102    2
    88    24    25    1
    89    24    23    1
    90   109   106    1
    91    25    26    1
    92    20    19    1
    93    19    22    1
    94    19    18    1
    95    22    23    1
    96    13    12    2
    97   106   105    1
    98   106   107    1
    99    18    12   am
   100    12    11    1
   101   107   114   am
   102   107   108    2
   103   121   119   ar
   104   114   115    1
   105    16    15    1
   106    15    17    1
   107    15    14    1
   108   115   118    1
   109   115   116    1
   110   118   119    1
   111   126   127    1
   112   126   123    1
   113   119   120   ar
   114    11    14    1
   115    11    10    1
   116     4     3    2
   117   123   122    1
   118   123   124    1
   119   116   117    2
   120     3     2    1
   121     5     6    1
   122     5     2    1
   123     7     6    1
   124     7     8    1
   125     9     8    1
   126     2     1    1
   127   124   125    2
