@<TRIPOS>MOLECULE
tmp/3uiwB00.pdb
 108 104 0 0 0
SMALL
GASTEIGER

@<TRIPOS>ATOM
      1  N        -28.6480   16.1770   18.9080 N.3    25  LYS25      -0.1245
      2  CA       -29.6770   16.8930   19.6570 C.3    25  LYS25       0.1561
      3  C        -29.0100   18.0000   20.4690 C.2    25  LYS25       0.2260
      4  O        -27.8700   17.8590   20.9100 O.2    25  LYS25      -0.2867
      5  CB       -30.4170   15.9460   20.5950 C.3    25  LYS25       0.0271
      6  CG       -31.2220   14.8710   19.9000 C.3    25  LYS25       0.0035
      7  CD       -32.7100   15.1240   20.0480 C.3    25  LYS25       0.0206
      8  CE       -33.5340   13.9090   19.6380 C.3    25  LYS25       0.1093
      9  NZ       -33.1680   12.6720   20.3820 N.3    25  LYS25      -0.1314
     10  N        -29.9220   18.8810   23.2990 N.3    27  THR27      -0.1203
     11  CA       -29.9900   18.4360   24.6800 C.3    27  THR27       0.1994
     12  C        -28.9170   17.3930   25.0010 C.2    27  THR27       0.2618
     13  O        -28.3790   17.3560   26.1100 O.2    27  THR27      -0.2717
     14  CB       -31.3700   17.8210   24.9930 C.3    27  THR27       0.1784
     15  OG1      -31.3890   16.4430   24.5960 O.3    27  THR27      -0.2211
     16  CG2      -32.4910   18.5910   24.2810 C.3    27  THR27       0.0376
     17  N        -28.6070   16.5520   24.0240 N.am   28  CYS28      -0.1956
     18  CA       -27.7160   15.4170   24.2350 C.3    28  CYS28       0.1828
     19  C        -26.2540   15.8250   24.4330 C.2    28  CYS28       0.2467
     20  O        -25.6960   16.5630   23.6150 O.2    28  CYS28      -0.2730
     21  CB       -27.8050   14.4720   23.0450 C.3    28  CYS28       0.0996
     22  SG       -26.8180   12.9990   23.2270 S.3    28  CYS28      -0.0797
     23  N        -25.6330   15.3460   25.5280 N.am   29  PRO29      -0.2715
     24  CA       -24.2290   15.5660   25.8990 C.3    29  PRO29       0.1536
     25  C        -23.2370   14.7760   25.0470 C.2    29  PRO29       0.2598
     26  O        -22.0890   15.2010   24.8430 O.2    29  PRO29      -0.2715
     27  CB       -24.1800   15.0730   27.3440 C.3    29  PRO29       0.0310
     28  CG       -25.1910   13.9970   27.3930 C.3    29  PRO29       0.0237
     29  CD       -26.3050   14.4390   26.4750 C.3    29  PRO29       0.0939
     30  N        -23.6720   13.6210   24.5600 N.am   30  TYR30      -0.1974
     31  CA       -22.8450   12.8380   23.6550 C.3    30  TYR30       0.1639
     32  C        -22.5820   13.6100   22.3530 C.2    30  TYR30       0.2290
     33  O        -21.4600   13.6200   21.8240 O.2    30  TYR30      -0.2864
     34  CB       -23.5180   11.5010   23.3640 C.3    30  TYR30       0.0560
     35  CG       -23.5580   10.5580   24.5500 C.ar   30  TYR30      -0.0198
     36  CD1      -22.4170    9.8690   24.9570 C.ar   30  TYR30      -0.0009
     37  CD2      -24.7380   10.3430   25.2520 C.ar   30  TYR30      -0.0009
     38  CE1      -22.4480    8.9970   26.0360 C.ar   30  TYR30       0.0417
     39  CE2      -24.7810    9.4730   26.3330 C.ar   30  TYR30       0.0417
     40  CZ       -23.6320    8.8020   26.7220 C.ar   30  TYR30       0.1957
     41  OH       -23.6710    7.9320   27.7920 O.3    30  TYR30      -0.2866
     42  N        -38.3860   12.8130   14.2560 N.3    57  ARG57      -0.1245
     43  CA       -38.7050   11.4410   14.6340 C.3    57  ARG57       0.1563
     44  C        -38.5660   10.5050   13.4360 C.2    57  ARG57       0.2260
     45  O        -37.8850    9.4680   13.5110 O.2    57  ARG57      -0.2867
     46  CB       -40.1180   11.3500   15.2190 C.3    57  ARG57       0.0307
     47  CG       -40.4120   12.3080   16.3750 C.3    57  ARG57       0.0489
     48  CD       -40.1530   11.6700   17.7340 C.3    57  ARG57       0.2205
     49  NE       -38.7370   11.4030   17.9660 N.pl3  57  ARG57      -0.0865
     50  CZ       -37.8480   12.3230   18.3070 C.cat  57  ARG57       0.5346
     51  NH1      -38.2230   13.5830   18.4650 N.pl3  57  ARG57       0.1354
     52  NH2      -36.5850   11.9850   18.5200 N.pl3  57  ARG57       0.1354
     53  N        -35.0680   10.0230   12.6030 N.3    60  GLN60      -0.1245
     54  CA       -34.4400    9.0510   13.4970 C.3    60  GLN60       0.1566
     55  C        -34.7760    7.6230   13.0610 C.2    60  GLN60       0.2260
     56  O        -33.8950    6.7690   12.9480 O.2    60  GLN60      -0.2867
     57  CB       -34.8840    9.2970   14.9390 C.3    60  GLN60       0.0367
     58  CG       -33.9720    8.6820   15.9830 C.3    60  GLN60       0.0905
     59  CD       -34.0280    9.4100   17.3230 C.2    60  GLN60       0.2608
     60  OE1      -35.0930    9.8440   17.7770 O.2    60  GLN60      -0.2717
     61  NE2      -32.8700    9.5540   17.9580 N.am   60  GLN60      -0.0878
     62  N        -30.5620    3.7800   16.7600 N.3    70  ARG70      -0.1231
     63  CA       -31.3500    5.0200   16.7140 C.3    70  ARG70       0.1694
     64  C        -30.8240    6.1860   17.5760 C.2    70  ARG70       0.2593
     65  O        -31.4400    7.2510   17.6150 O.2    70  ARG70      -0.2718
     66  CB       -32.8290    4.7440   17.0400 C.3    70  ARG70       0.0321
     67  CG       -33.0630    3.9950   18.3490 C.3    70  ARG70       0.0489
     68  CD       -32.8870    4.8910   19.5840 C.3    70  ARG70       0.2205
     69  NE       -33.0470    4.0660   20.7750 N.pl3  70  ARG70      -0.0865
     70  CZ       -32.9070    4.5530   21.9980 C.cat  70  ARG70       0.5346
     71  NH1      -32.7590    5.8470   22.1750 N.pl3  70  ARG70       0.1354
     72  NH2      -32.9670    3.7290   23.0370 N.pl3  70  ARG70       0.1354
     73  N        -29.7030    5.9890   18.2650 N.am   71  THR71      -0.1939
     74  CA       -29.1990    6.9940   19.2110 C.3    71  THR71       0.2028
     75  C        -28.5050    8.1720   18.5140 C.2    71  THR71       0.2642
     76  O        -28.0600    8.0530   17.3770 O.2    71  THR71      -0.2714
     77  CB       -28.2090    6.3780   20.2340 C.3    71  THR71       0.1808
     78  OG1      -26.8940    6.3190   19.6670 O.3    71  THR71      -0.2208
     79  CG2      -28.6520    4.9810   20.6610 C.3    71  THR71       0.0379
     80  N        -28.4080    9.3060   19.2050 N.am   72  VAL72      -0.1977
     81  CA       -27.6460   10.4460   18.6990 C.3    72  VAL72       0.1596
     82  C        -26.4270   10.6460   19.5650 C.2    72  VAL72       0.2287
     83  O        -26.4240   10.2520   20.7300 O.2    72  VAL72      -0.2864
     84  CB       -28.4400   11.7600   18.7350 C.3    72  VAL72       0.0276
     85  CG1      -29.5560   11.7490   17.7050 C.3    72  VAL72       0.0022
     86  CG2      -28.9800   12.0210   20.1330 C.3    72  VAL72       0.0022
     87  N        -21.8990    6.5590   17.1260 N.3    84  GLY84      -0.1210
     88  CA       -22.1770    7.6920   17.9980 C.3    84  GLY84       0.1956
     89  C        -20.9440    8.4500   18.4760 C.2    84  GLY84       0.2612
     90  O        -19.8650    8.3540   17.8840 O.2    84  GLY84      -0.2717
     91  N        -21.1120    9.2020   19.5650 N.am   85  GLY85      -0.1942
     92  CA       -20.0800   10.0950   20.0700 C.3    85  GLY85       0.2014
     93  C        -18.8990    9.4280   20.7550 C.2    85  GLY85       0.2640
     94  O        -17.7390    9.7900   20.5010 O.2    85  GLY85      -0.2714
     95  N        -19.1780    8.4750   21.6430 N.am   86  SER86      -0.1935
     96  CA       -18.1120    7.7220   22.3010 C.3    86  SER86       0.2055
     97  C        -17.2330    7.0960   21.2210 C.2    86  SER86       0.2643
     98  O        -16.0030    7.1300   21.3250 O.2    86  SER86      -0.2714
     99  CB       -18.6850    6.6450   23.2270 C.3    86  SER86       0.2130
    100  OG       -19.4760    5.6890   22.5540 O.3    86  SER86      -0.2179
    101  N        -17.8840    6.5490   20.1870 N.am   87  ASP87      -0.1971
    102  CA       -17.2130    6.0120   18.9950 C.3    87  ASP87       0.1709
    103  C        -16.2350    7.0200   18.3960 C.2    87  ASP87       0.2293
    104  O        -15.0800    6.6970   18.1040 O.2    87  ASP87      -0.2864
    105  CB       -18.2440    5.6570   17.9170 C.3    87  ASP87       0.1436
    106  CG       -19.0720    4.4430   18.2660 C.2    87  ASP87       0.3671
    107  OD1      -18.8060    3.3720   17.6860 O.co2  87  ASP87      -0.2456
    108  OD2      -19.9980    4.5640   19.1000 O.co2  87  ASP87      -0.2456
@<TRIPOS>BOND
     1    53    54    1
     2    56    55    2
     3    55    54    1
     4    44    45    2
     5    44    43    1
     6    54    57    1
     7    42    43    1
     8    43    46    1
     9    57    58    1
    10    46    47    1
    11    58    59    1
    12    47    48    1
    13    63    62    1
    14    63    66    1
    15    63    64    1
    16    66    67    1
    17    87    88    1
    18    59    60    2
    19    59    61   am
    20    76    75    2
    21    64    65    2
    22    64    73   am
    23   107   106   ar
    24    85    84    1
    25    48    49    1
    26    90    89    2
    27   105   106    1
    28   105   102    1
    29    49    50    2
    30    88    89    1
    31   104   103    2
    32    73    74    1
    33   106   108   ar
    34    50    51    1
    35    50    52    1
    36    67    68    1
    37   103   102    1
    38    89    91   am
    39    75    80   am
    40    75    74    1
    41    81    84    1
    42    81    80    1
    43    81    82    1
    44    84    86    1
    45     1     2    1
    46   102   101    1
    47    74    77    1
    48    91    92    1
    49    82    83    2
    50    68    69    1
    51     8     7    1
    52     8     9    1
    53     2     3    1
    54     2     5    1
    55    78    77    1
    56     6     7    1
    57     6     5    1
    58    92    93    1
    59   101    97   am
    60    77    79    1
    61     3     4    2
    62    94    93    2
    63    93    95   am
    64    69    70    2
    65    97    98    2
    66    97    96    1
    67    95    96    1
    68    33    32    2
    69    70    71    1
    70    70    72    1
    71    96    99    1
    72    32    31    1
    73   100    99    1
    74    21    22    1
    75    21    18    1
    76    10    11    1
    77    34    31    1
    78    34    35    1
    79    20    19    2
    80    31    30    1
    81    17    18    1
    82    17    12   am
    83    18    19    1
    84    16    14    1
    85    19    23   am
    86    35    36   ar
    87    35    37   ar
    88    30    25   am
    89    15    14    1
    90    11    14    1
    91    11    12    1
    92    26    25    2
    93    36    38   ar
    94    12    13    2
    95    25    24    1
    96    37    39   ar
    97    23    24    1
    98    23    29    1
    99    24    27    1
   100    38    40   ar
   101    39    40   ar
   102    29    28    1
   103    40    41    1
   104    27    28    1
