@<TRIPOS>MOLECULE
tmp/3uixA00.pdb
 160 148 0 0 0
SMALL
GASTEIGER

@<TRIPOS>ATOM
      1  N        -41.9250    4.5500    5.6550 N.3     8  LEU8       -0.1231
      2  CA       -42.4660    3.2310    5.9910 C.3     8  LEU8        0.1693
      3  C        -41.4350    2.3320    6.6850 C.2     8  LEU8        0.2592
      4  O        -41.7980    1.5420    7.5390 O.2     8  LEU8       -0.2718
      5  CB       -43.0780    2.5350    4.7530 C.3     8  LEU8        0.0284
      6  CG       -44.3050    3.2160    4.1200 C.3     8  LEU8        0.0019
      7  CD1      -44.7660    2.4980    2.8310 C.3     8  LEU8        0.0001
      8  CD2      -45.4820    3.3640    5.1060 C.3     8  LEU8        0.0001
      9  N        -40.1590    2.4570    6.3310 N.am    9  GLY9       -0.1957
     10  CA       -39.0810    1.7060    6.9960 C.3     9  GLY9        0.1869
     11  C        -37.7220    2.1240    6.4800 C.2     9  GLY9        0.2309
     12  O        -37.6160    2.8000    5.4420 O.2     9  GLY9       -0.2863
     13  N        -31.5930   -2.0090    3.1510 N.3    13  PHE13      -0.1241
     14  CA       -32.1600   -1.7000    1.8320 C.3    13  PHE13       0.1605
     15  C        -32.3100   -0.1970    1.4990 C.2    13  PHE13       0.2264
     16  O        -32.6530    0.1460    0.3510 O.2    13  PHE13      -0.2867
     17  CB       -33.5470   -2.3150    1.7550 C.3    13  PHE13       0.0534
     18  CG       -34.4290   -1.9440    2.9140 C.ar   13  PHE13      -0.0203
     19  CD1      -35.2170   -0.7860    2.8770 C.ar   13  PHE13      -0.0042
     20  CD2      -34.4750   -2.7460    4.0430 C.ar   13  PHE13      -0.0042
     21  CE1      -36.0360   -0.4420    3.9530 C.ar   13  PHE13      -0.0003
     22  CE2      -35.2950   -2.4140    5.1290 C.ar   13  PHE13      -0.0003
     23  CZ       -36.0800   -1.2530    5.0800 C.ar   13  PHE13      -0.0000
     24  N        -37.6340    3.6440    2.7050 N.3    16  VAL16      -0.1245
     25  CA       -38.8640    3.4720    1.9360 C.3    16  VAL16       0.1561
     26  C        -39.9380    4.3850    2.4940 C.2    16  VAL16       0.2260
     27  O        -40.2200    4.3260    3.7020 O.2    16  VAL16      -0.2867
     28  CB       -39.4140    1.9960    1.9930 C.3    16  VAL16       0.0252
     29  CG1      -40.6690    1.8550    1.0930 C.3    16  VAL16       0.0019
     30  CG2      -38.3420    0.9850    1.5650 C.3    16  VAL16       0.0019
     31  N        -44.8080    3.0220   -3.2630 N.3    29  ALA29      -0.1245
     32  CA       -43.7720    3.1130   -2.2490 C.3    29  ALA29       0.1562
     33  C        -42.5420    3.6610   -2.9470 C.2    29  ALA29       0.2260
     34  O        -42.2680    3.3150   -4.0850 O.2    29  ALA29      -0.2867
     35  CB       -43.4790    1.7100   -1.5740 C.3    29  ALA29       0.0290
     36  N        -38.5240    4.1990   -2.6910 N.3    31  LYS31      -0.1245
     37  CA       -37.3650    3.6880   -1.9790 C.3    31  LYS31       0.1561
     38  C        -36.0750    4.3090   -2.4780 C.2    31  LYS31       0.2260
     39  O        -35.7650    4.2690   -3.6990 O.2    31  LYS31      -0.2867
     40  CB       -37.2790    2.1660   -2.0940 C.3    31  LYS31       0.0271
     41  CG       -36.0440    1.6200   -1.4000 C.3    31  LYS31       0.0035
     42  CD       -36.0130    0.1050   -1.4190 C.3    31  LYS31       0.0206
     43  CE       -35.2910   -0.4080   -2.6490 C.3    31  LYS31       0.1093
     44  NZ       -33.8600    0.0320   -2.5780 N.3    31  LYS31      -0.1314
     45  N        -30.5260   -4.8780   -8.0420 N.3    50  GLU50      -0.1245
     46  CA       -31.9160   -4.8330   -7.6100 C.3    50  GLU50       0.1567
     47  C        -32.8570   -4.4600   -8.7380 C.2    50  GLU50       0.2260
     48  O        -33.8800   -5.0970   -8.9170 O.2    50  GLU50      -0.2867
     49  CB       -32.0610   -3.8410   -6.4380 C.3    50  GLU50       0.0388
     50  CG       -33.4570   -3.7300   -5.8780 C.3    50  GLU50       0.1160
     51  CD       -33.5470   -2.8910   -4.5790 C.2    50  GLU50       0.3649
     52  OE1      -32.7470   -1.9510   -4.3540 O.co2  50  GLU50      -0.2457
     53  OE2      -34.4620   -3.1710   -3.7900 O.co2  50  GLU50      -0.2457
     54  N        -35.6250   -6.9180  -10.3530 N.3    54  LEU54      -0.1245
     55  CA       -37.0240   -6.4840  -10.3550 C.3    54  LEU54       0.1561
     56  C        -37.6310   -6.3990  -11.7560 C.2    54  LEU54       0.2260
     57  O        -38.8040   -6.7260  -11.9380 O.2    54  LEU54      -0.2867
     58  CB       -37.1990   -5.1370   -9.6220 C.3    54  LEU54       0.0270
     59  CG       -37.1740   -5.1330   -8.0780 C.3    54  LEU54       0.0019
     60  CD1      -36.9530   -3.7270   -7.5340 C.3    54  LEU54       0.0001
     61  CD2      -38.4390   -5.7340   -7.4980 C.3    54  LEU54       0.0001
     62  N        -43.8920   -7.6590   -5.4470 N.3    65  ILE65      -0.1245
     63  CA       -44.1490   -6.2040   -5.5670 C.3    65  ILE65       0.1561
     64  C        -43.4800   -5.7440   -6.8590 C.2    65  ILE65       0.2260
     65  O        -42.2980   -5.9790   -7.0490 O.2    65  ILE65      -0.2867
     66  CB       -43.5870   -5.3870   -4.3440 C.3    65  ILE65       0.0252
     67  CG1      -44.4910   -5.5320   -3.1100 C.3    65  ILE65       0.0019
     68  CG2      -43.4320   -3.8820   -4.6540 C.3    65  ILE65       0.0019
     69  CD1      -45.8040   -4.8050   -3.2180 C.3    65  ILE65       0.0001
     70  N        -42.3540    1.7430   -6.4600 N.3    81  LEU81      -0.1231
     71  CA       -42.8340    0.3810   -6.3080 C.3    81  LEU81       0.1693
     72  C        -44.3050    0.4120   -6.0570 C.2    81  LEU81       0.2592
     73  O        -44.8310    1.3780   -5.5300 O.2    81  LEU81      -0.2718
     74  CB       -42.1160   -0.3330   -5.1460 C.3    81  LEU81       0.0284
     75  CG       -40.6090   -0.4640   -5.3850 C.3    81  LEU81       0.0019
     76  CD1      -39.8680   -0.2050   -4.1150 C.3    81  LEU81       0.0001
     77  CD2      -40.2210   -1.8110   -6.0210 C.3    81  LEU81       0.0001
     78  N        -44.9660   -0.6650   -6.4470 N.am   82  GLU82      -0.1966
     79  CA       -46.3870   -0.8560   -6.2100 C.3    82  GLU82       0.1733
     80  C        -46.6740   -0.8350   -4.6990 C.2    82  GLU82       0.2616
     81  O        -45.8210   -1.2300   -3.9040 O.2    82  GLU82      -0.2715
     82  CB       -46.7750   -2.1860   -6.8880 C.3    82  GLU82       0.0429
     83  CG       -47.7670   -3.0470   -6.1760 C.3    82  GLU82       0.1163
     84  CD       -48.0350   -4.3660   -6.9220 C.2    82  GLU82       0.3649
     85  OE1      -47.0630   -5.0210   -7.3630 O.co2  82  GLU82      -0.2457
     86  OE2      -49.2300   -4.7370   -7.0340 O.co2  82  GLU82      -0.2457
     87  N        -47.8490   -0.3450   -4.2970 N.am   83  ARG83      -0.1964
     88  CA       -48.2260   -0.3750   -2.8830 C.3    83  ARG83       0.1714
     89  C        -49.7090   -0.7180   -2.6460 C.2    83  ARG83       0.2458
     90  O        -50.5860    0.1190   -2.8780 O.2    83  ARG83      -0.2730
     91  CB       -47.8490    0.9420   -2.1770 C.3    83  ARG83       0.0347
     92  CG       -48.2720    1.0440   -0.6990 C.3    83  ARG83       0.0492
     93  CD       -47.7100    2.3040    0.0160 C.3    83  ARG83       0.2205
     94  NE       -48.2350    3.5830   -0.5020 N.pl3  83  ARG83      -0.0865
     95  CZ       -49.4330    4.0970   -0.2110 C.cat  83  ARG83       0.5346
     96  NH1      -50.2710    3.4650    0.5990 N.pl3  83  ARG83       0.1354
     97  NH2      -49.8030    5.2630   -0.7300 N.pl3  83  ARG83       0.1354
     98  N        -49.9840   -1.9450   -2.1560 N.am   84  PRO84      -0.2727
     99  CA       -51.3120   -2.3270   -1.6560 C.3    84  PRO84       0.1402
    100  C        -51.6800   -1.5570   -0.3780 C.2    84  PRO84       0.2269
    101  O        -50.8040   -1.1800    0.4090 O.2    84  PRO84      -0.2865
    102  CB       -51.1610   -3.8310   -1.3360 C.3    84  PRO84       0.0296
    103  CG       -49.8200   -4.2520   -1.9300 C.3    84  PRO84       0.0237
    104  CD       -48.9860   -3.0130   -1.9330 C.3    84  PRO84       0.0939
    105  N        -51.6810   -2.6810    4.1490 N.3    87  VAL87      -0.1245
    106  CA       -50.6260   -3.6580    4.0410 C.3    87  VAL87       0.1561
    107  C        -49.9050   -3.7310    5.3980 C.2    87  VAL87       0.2260
    108  O        -49.8790   -2.7540    6.1740 O.2    87  VAL87      -0.2867
    109  CB       -49.6510   -3.2840    2.8700 C.3    87  VAL87       0.0252
    110  CG1      -48.7540   -2.1200    3.2440 C.3    87  VAL87       0.0019
    111  CG2      -48.8010   -4.4490    2.4720 C.3    87  VAL87       0.0019
    112  N        -46.2550   -6.0090    6.9040 N.3    89  ASP89      -0.1239
    113  CA       -45.2960   -7.0800    6.6740 C.3    89  ASP89       0.1674
    114  C        -45.5210   -8.2370    7.6480 C.2    89  ASP89       0.2266
    115  O        -46.1960   -8.0810    8.6810 O.2    89  ASP89      -0.2867
    116  CB       -43.8420   -6.5890    6.5440 C.3    89  ASP89       0.1410
    117  CG       -43.1550   -6.2480    7.8840 C.2    89  ASP89       0.3668
    118  OD1      -42.1680   -5.4780    7.8130 O.co2  89  ASP89      -0.2456
    119  OD2      -43.5460   -6.7380    8.9750 O.co2  89  ASP89      -0.2456
    120  N        -39.8200  -10.3170    7.2870 N.3   132  GLU132     -0.1231
    121  CA       -39.7120   -8.8790    7.0090 C.3   132  GLU132      0.1699
    122  C        -39.7670   -8.5610    5.5140 C.2   132  GLU132      0.2592
    123  O        -40.0770   -7.4170    5.1430 O.2   132  GLU132     -0.2718
    124  CB       -38.4170   -8.2610    7.5900 C.3   132  GLU132      0.0402
    125  CG       -38.1980   -8.5100    9.1140 C.3   132  GLU132      0.1161
    126  CD       -36.7930   -8.1260    9.5630 C.2   132  GLU132      0.3649
    127  OE1      -36.5330   -6.9220    9.7140 O.co2 132  GLU132     -0.2457
    128  OE2      -35.9380   -9.0200    9.7540 O.co2 132  GLU132     -0.2457
    129  N        -39.5030   -9.5660    4.6600 N.am  133  ASN133     -0.1974
    130  CA       -39.5540   -9.3340    3.2060 C.3   133  ASN133      0.1688
    131  C        -40.8090   -9.8090    2.5080 C.2   133  ASN133      0.2292
    132  O        -40.7940  -10.0840    1.2990 O.2   133  ASN133     -0.2864
    133  CB       -38.2770   -9.8600    2.5370 C.3   133  ASN133      0.1181
    134  CG       -37.0770   -9.0400    2.9390 C.2   133  ASN133      0.2629
    135  OD1      -37.2660   -7.8900    3.2910 O.2   133  ASN133     -0.2716
    136  ND2      -35.8510   -9.6120    2.9150 N.am  133  ASN133     -0.0877
    137  N        -44.9580   -8.8650    2.3270 N.3   135  LEU135     -0.1245
    138  CA       -46.0340   -7.9690    2.6490 C.3   135  LEU135      0.1561
    139  C        -47.3430   -8.7020    2.5180 C.2   135  LEU135      0.2260
    140  O        -47.5140   -9.5170    1.6100 O.2   135  LEU135     -0.2867
    141  CB       -46.0390   -6.7640    1.7040 C.3   135  LEU135      0.0270
    142  CG       -44.8260   -5.8530    1.7320 C.3   135  LEU135      0.0019
    143  CD1      -45.0920   -4.6930    0.8060 C.3   135  LEU135      0.0001
    144  CD2      -44.5690   -5.3640    3.1960 C.3   135  LEU135      0.0001
    145  N        -40.7380   -8.6820   -1.2970 N.3   146  ILE146     -0.1231
    146  CA       -40.0230   -7.4270   -1.4930 C.3   146  ILE146      0.1692
    147  C        -38.5590   -7.6270   -1.1860 C.2   146  ILE146      0.2592
    148  O        -38.1560   -8.6630   -0.6250 O.2   146  ILE146     -0.2718
    149  CB       -40.5370   -6.2750   -0.5580 C.3   146  ILE146      0.0266
    150  CG1      -40.4710   -6.6900    0.9370 C.3   146  ILE146      0.0019
    151  CG2      -41.9300   -5.8340   -0.9920 C.3   146  ILE146      0.0020
    152  CD1      -40.8010   -5.5630    1.9110 C.3   146  ILE146      0.0001
    153  N        -37.7790   -6.5980   -1.5340 N.am  147  ASP147     -0.1974
    154  CA       -36.3340   -6.5170   -1.2620 C.3   147  ASP147      0.1709
    155  C        -35.4540   -7.5290   -1.9770 C.2   147  ASP147      0.2293
    156  O        -34.9380   -8.4760   -1.3640 O.2   147  ASP147     -0.2864
    157  CB       -35.9960   -6.5110    0.2220 C.3   147  ASP147      0.1436
    158  CG       -34.5400   -6.0410    0.4840 C.2   147  ASP147      0.3671
    159  OD1      -33.8300   -5.6100   -0.4710 O.co2 147  ASP147     -0.2456
    160  OD2      -34.1080   -6.0870    1.6510 O.co2 147  ASP147     -0.2456
@<TRIPOS>BOND
     1    57    56    2
     2    56    55    1
     3    55    54    1
     4    55    58    1
     5    58    59    1
     6    48    47    2
     7    47    46    1
     8    59    60    1
     9    59    61    1
    10    45    46    1
    11    46    49    1
    12    85    84   ar
    13    65    64    2
    14    86    84   ar
    15    84    83    1
    16    82    79    1
    17    82    83    1
    18    64    63    1
    19    70    71    1
    20    78    79    1
    21    78    72   am
    22    49    50    1
    23    71    72    1
    24    71    74    1
    25    79    80    1
    26    72    73    2
    27    77    75    1
    28    50    51    1
    29    63    62    1
    30    63    66    1
    31    75    74    1
    32    75    76    1
    33    80    87   am
    34    80    81    2
    35    68    66    1
    36    51    52   ar
    37    51    53   ar
    38    66    67    1
    39    87    88    1
    40    34    33    2
    41    39    38    2
    42    31    32    1
    43    69    67    1
    44    33    32    1
    45    88    89    1
    46    88    91    1
    47    90    89    2
    48    36    37    1
    49    43    44    1
    50    43    42    1
    51    89    98   am
    52    38    37    1
    53    32    35    1
    54    91    92    1
    55    98   104    1
    56    98    99    1
    57    40    37    1
    58    40    41    1
    59   155   156    2
    60   155   154    1
    61   104   103    1
    62   103   102    1
    63    99   102    1
    64    99   100    1
    65   153   154    1
    66   153   147   am
    67   146   145    1
    68   146   147    1
    69   146   149    1
    70    42    41    1
    71   154   157    1
    72   147   148    2
    73   151   149    1
    74    97    95    1
    75    92    93    1
    76   149   150    1
    77    94    95    2
    78    94    93    1
    79   159   158   ar
    80   100   101    2
    81    95    96    1
    82   157   158    1
    83    16    15    2
    84   158   160   ar
    85   143   142    1
    86   150   152    1
    87    29    28    1
    88   132   131    2
    89    15    14    1
    90    30    28    1
    91   140   139    2
    92   141   142    1
    93   141   138    1
    94   142   144    1
    95    17    14    1
    96    17    18    1
    97    14    13    1
    98    25    28    1
    99    25    26    1
   100    25    24    1
   101   137   138    1
   102   111   109    1
   103    26    27    2
   104   131   130    1
   105   139   138    1
   106   133   134    1
   107   133   130    1
   108     7     6    1
   109   109   110    1
   110   109   106    1
   111    19    18   ar
   112    19    21   ar
   113    18    20   ar
   114   136   134   am
   115   134   135    2
   116   130   129    1
   117    21    23   ar
   118   106   105    1
   119   106   107    1
   120    20    22   ar
   121     6     5    1
   122     6     8    1
   123   129   122   am
   124     5     2    1
   125    23    22   ar
   126   123   122    2
   127   107   108    2
   128    12    11    2
   129   122   121    1
   130     1     2    1
   131     2     3    1
   132     9     3   am
   133     9    10    1
   134    11    10    1
   135   116   113    1
   136   116   117    1
   137   113   112    1
   138   113   114    1
   139     3     4    2
   140   121   120    1
   141   121   124    1
   142   124   125    1
   143   114   115    2
   144   118   117   ar
   145   117   119   ar
   146   125   126    1
   147   126   127   ar
   148   126   128   ar
