@<TRIPOS>MOLECULE
tmp/3uj0B00.pdb
 137 131 0 0 0
SMALL
GASTEIGER

@<TRIPOS>ATOM
      1  N        -26.3330   46.8220   46.6700 N.3   253  ARG253     -0.1231
      2  CA       -27.7490   46.8860   46.3320 C.3   253  ARG253      0.1694
      3  C        -28.5800   46.2770   47.4520 C.2   253  ARG253      0.2593
      4  O        -28.2400   45.2120   47.9700 O.2   253  ARG253     -0.2718
      5  CB       -28.0090   46.1720   45.0030 C.3   253  ARG253      0.0321
      6  CG       -29.4150   46.3310   44.4440 C.3   253  ARG253      0.0489
      7  CD       -29.5360   45.6690   43.0810 C.3   253  ARG253      0.2205
      8  NE       -30.8830   45.1520   42.8450 N.pl3 253  ARG253     -0.0865
      9  CZ       -31.2990   43.9320   43.1870 C.cat 253  ARG253      0.5346
     10  NH1      -30.4800   43.0760   43.7910 N.pl3 253  ARG253      0.1354
     11  NH2      -32.5450   43.5610   42.9240 N.pl3 253  ARG253      0.1354
     12  N        -29.6550   46.9710   47.8240 N.am  254  THR254     -0.1939
     13  CA       -30.5870   46.5050   48.8560 C.3   254  THR254      0.2028
     14  C        -31.5770   45.4990   48.2540 C.2   254  THR254      0.2643
     15  O        -32.1720   45.7550   47.2050 O.2   254  THR254     -0.2714
     16  CB       -31.3410   47.6880   49.5170 C.3   254  THR254      0.1808
     17  OG1      -30.4110   48.7220   49.8690 O.3   254  THR254     -0.2208
     18  CG2      -32.0910   47.2420   50.7730 C.3   254  THR254      0.0379
     19  N        -31.7400   44.3550   48.9160 N.am  255  THR255     -0.1936
     20  CA       -32.6110   43.2880   48.4130 C.3   255  THR255      0.2028
     21  C        -33.8920   43.1300   49.2400 C.2   255  THR255      0.2643
     22  O        -33.9510   43.5540   50.3940 O.2   255  THR255     -0.2714
     23  CB       -31.8690   41.9310   48.3210 C.3   255  THR255      0.1808
     24  OG1      -32.7360   40.9450   47.7470 O.3   255  THR255     -0.2208
     25  CG2      -31.4070   41.4500   49.7000 C.3   255  THR255      0.0379
     26  N        -34.9090   42.5160   48.6370 N.am  256  GLY256     -0.1939
     27  CA       -36.1770   42.2460   49.3170 C.3   256  GLY256      0.2014
     28  C        -36.5690   40.7790   49.2770 C.2   256  GLY256      0.2638
     29  O        -37.7560   40.4470   49.2530 O.2   256  GLY256     -0.2714
     30  N        -35.5640   39.9050   49.2720 N.am  257  ARG257     -0.1977
     31  CA       -35.7710   38.4550   49.2510 C.3   257  ARG257      0.1597
     32  C        -35.5190   37.8430   50.6300 C.2   257  ARG257      0.2287
     33  O        -35.0820   38.5300   51.5570 O.2   257  ARG257     -0.2864
     34  CB       -34.8470   37.8020   48.2190 C.3   257  ARG257      0.0334
     35  CG       -35.0630   38.2640   46.7880 C.3   257  ARG257      0.0492
     36  CD       -33.8300   37.9740   45.9490 C.3   257  ARG257      0.2205
     37  NE       -34.0980   38.0260   44.5130 N.pl3 257  ARG257     -0.0865
     38  CZ       -34.3760   36.9640   43.7590 C.cat 257  ARG257      0.5346
     39  NH1      -34.4310   35.7490   44.2950 N.pl3 257  ARG257      0.1354
     40  NH2      -34.6010   37.1170   42.4620 N.pl3 257  ARG257      0.1354
     41  N        -30.0750   37.0100   45.3960 N.3   263  ALA263     -0.1231
     42  CA       -30.2030   38.3300   44.7900 C.3   263  ALA263      0.1694
     43  C        -29.3140   38.5110   43.5580 C.2   263  ALA263      0.2593
     44  O        -29.1540   39.6330   43.0650 O.2   263  ALA263     -0.2718
     45  CB       -29.9140   39.4090   45.8250 C.3   263  ALA263      0.0304
     46  N        -28.7530   37.4040   43.0680 N.am  264  THR264     -0.1939
     47  CA       -27.9030   37.3860   41.8730 C.3   264  THR264      0.2028
     48  C        -28.4070   38.2910   40.7500 C.2   264  THR264      0.2642
     49  O        -29.5980   38.3130   40.4350 O.2   264  THR264     -0.2714
     50  CB       -27.7580   35.9680   41.3010 C.3   264  THR264      0.1808
     51  OG1      -29.0500   35.3550   41.2220 O.3   264  THR264     -0.2208
     52  CG2      -26.8480   35.1260   42.1770 C.3   264  THR264      0.0379
     53  N        -27.4790   39.0270   40.1520 N.am  265  SER265     -0.1949
     54  CA       -27.7880   40.0000   39.1190 C.3   265  SER265      0.1924
     55  C        -26.5770   40.1350   38.1970 C.2   265  SER265      0.2314
     56  O        -25.4390   40.0070   38.6500 O.2   265  SER265     -0.2863
     57  CB       -28.1290   41.3440   39.7690 C.3   265  SER265      0.2116
     58  OG       -28.4440   42.3300   38.8040 O.3   265  SER265     -0.2180
     59  N        -32.4740   51.6790   46.9820 N.3   355  VAL355     -0.1245
     60  CA       -31.7410   50.4150   47.0870 C.3   355  VAL355      0.1561
     61  C        -30.2210   50.5590   46.9580 C.2   355  VAL355      0.2260
     62  O        -29.4760   49.6670   47.3720 O.2   355  VAL355     -0.2867
     63  CB       -32.2460   49.3660   46.0660 C.3   355  VAL355      0.0252
     64  CG1      -33.5610   48.7540   46.5290 C.3   355  VAL355      0.0019
     65  CG2      -32.3840   49.9750   44.6740 C.3   355  VAL355      0.0019
     66  N        -35.9910   31.1490   34.3210 N.3   441  ARG441     -0.1245
     67  CA       -35.9700   32.3980   35.0780 C.3   441  ARG441      0.1563
     68  C        -34.6960   33.2080   34.8980 C.2   441  ARG441      0.2260
     69  O        -34.7620   34.4080   34.6640 O.2   441  ARG441     -0.2867
     70  CB       -36.2030   32.1190   36.5690 C.3   441  ARG441      0.0307
     71  CG       -36.1980   33.3590   37.4440 C.3   441  ARG441      0.0489
     72  CD       -37.2610   34.3350   36.9840 C.3   441  ARG441      0.2205
     73  NE       -38.6020   33.8500   37.2860 N.pl3 441  ARG441     -0.0865
     74  CZ       -39.3550   34.3130   38.2800 C.cat 441  ARG441      0.5346
     75  NH1      -38.9050   35.2860   39.0670 N.pl3 441  ARG441      0.1354
     76  NH2      -40.5640   33.8090   38.4850 N.pl3 441  ARG441      0.1354
     77  N        -34.6780   37.0850   33.6990 N.3   445  LYS445     -0.1245
     78  CA       -34.0490   38.2270   34.3650 C.3   445  LYS445      0.1561
     79  C        -33.0920   38.8760   33.3800 C.2   445  LYS445      0.2260
     80  O        -33.0090   40.1020   33.2870 O.2   445  LYS445     -0.2867
     81  CB       -33.2940   37.7950   35.6220 C.3   445  LYS445      0.0271
     82  CG       -34.3050   37.4370   36.7110 C.3   445  LYS445      0.0035
     83  CD       -33.6800   36.4700   37.6980 C.3   445  LYS445      0.0206
     84  CE       -33.0850   37.2690   38.8430 C.3   445  LYS445      0.1093
     85  NZ       -32.7310   36.3180   39.9390 N.3   445  LYS445     -0.1314
     86  N        -34.3920   41.0940   30.5910 N.3   448  ARG448     -0.1231
     87  CA       -34.7530   42.4210   31.0560 C.3   448  ARG448      0.1694
     88  C        -33.5200   43.2430   31.4090 C.2   448  ARG448      0.2591
     89  O        -33.3490   44.3520   30.8970 O.2   448  ARG448     -0.2718
     90  CB       -35.7010   42.3240   32.2520 C.3   448  ARG448      0.0321
     91  CG       -36.2290   43.6580   32.7590 C.3   448  ARG448      0.0489
     92  CD       -37.0170   43.5050   34.0470 C.3   448  ARG448      0.2205
     93  NE       -36.1640   43.1390   35.1710 N.pl3 448  ARG448     -0.0865
     94  CZ       -35.9860   41.8950   35.6110 C.cat 448  ARG448      0.5346
     95  NH1      -36.5950   40.8670   35.0300 N.pl3 448  ARG448      0.1354
     96  NH2      -35.1880   41.6720   36.6420 N.pl3 448  ARG448      0.1354
     97  N        -32.6670   42.6920   32.2750 N.am  449  GLU449     -0.1979
     98  CA       -31.5020   43.4130   32.8070 C.3   449  GLU449      0.1602
     99  C        -30.5270   43.8240   31.7140 C.2   449  GLU449      0.2287
    100  O        -29.7620   44.7770   31.8820 O.2   449  GLU449     -0.2864
    101  CB       -30.7730   42.5750   33.8620 C.3   449  GLU449      0.0415
    102  CG       -31.5060   42.4410   35.1890 C.3   449  GLU449      0.1163
    103  CD       -30.7880   41.5270   36.1690 C.2   449  GLU449      0.3649
    104  OE1      -29.6820   41.8950   36.6240 O.co2 449  GLU449     -0.2457
    105  OE2      -31.3360   40.4450   36.4930 O.co2 449  GLU449     -0.2457
    106  N        -43.7780   34.9870   35.7360 N.3   484  TYR484     -0.1227
    107  CA       -42.8760   36.0540   36.1810 C.3   484  TYR484      0.1736
    108  C        -43.5980   37.3930   36.3390 C.2   484  TYR484      0.2595
    109  O        -43.6840   38.1680   35.3860 O.2   484  TYR484     -0.2718
    110  CB       -41.6980   36.2040   35.2040 C.3   484  TYR484      0.0548
    111  CG       -40.4630   36.8820   35.7790 C.ar  484  TYR484     -0.0200
    112  CD1      -39.2160   36.7310   35.1730 C.ar  484  TYR484     -0.0009
    113  CD2      -40.5370   37.6620   36.9370 C.ar  484  TYR484     -0.0009
    114  CE1      -38.0840   37.3520   35.6930 C.ar  484  TYR484      0.0417
    115  CE2      -39.4120   38.2770   37.4690 C.ar  484  TYR484      0.0417
    116  CZ       -38.1900   38.1250   36.8480 C.ar  484  TYR484      0.1957
    117  OH       -37.0900   38.7570   37.3920 O.3   484  TYR484     -0.2866
    118  N        -44.0850   37.6700   37.5500 N.am  485  ARG485     -0.1966
    119  CA       -44.8450   38.8970   37.8410 C.3   485  ARG485      0.1729
    120  C        -44.0570   40.1640   37.5450 C.2   485  ARG485      0.2616
    121  O        -44.6220   41.1440   37.0610 O.2   485  ARG485     -0.2715
    122  CB       -45.3310   38.9210   39.2960 C.3   485  ARG485      0.0348
    123  CG       -46.3230   37.8220   39.6980 C.3   485  ARG485      0.0492
    124  CD       -47.5840   37.7150   38.8410 C.3   485  ARG485      0.2205
    125  NE       -48.2530   38.9990   38.6720 N.pl3 485  ARG485     -0.0865
    126  CZ       -48.7750   39.7310   39.6640 C.cat 485  ARG485      0.5346
    127  NH1      -48.8690   39.2990   40.9110 N.pl3 485  ARG485      0.1354
    128  NH2      -49.3050   40.9150   39.3710 N.pl3 485  ARG485      0.1354
    129  N        -42.7570   40.1330   37.8360 N.am  486  LYS486     -0.1977
    130  CA       -41.8910   41.2890   37.6450 C.3   486  LYS486      0.1596
    131  C        -41.6710   41.5870   36.1630 C.2   486  LYS486      0.2287
    132  O        -41.6000   42.7510   35.7690 O.2   486  LYS486     -0.2864
    133  CB       -40.5550   41.1030   38.3700 C.3   486  LYS486      0.0298
    134  CG       -39.7740   42.3900   38.5790 C.3   486  LYS486      0.0038
    135  CD       -38.2860   42.1100   38.7010 C.3   486  LYS486      0.0206
    136  CE       -37.4630   43.3870   38.5970 C.3   486  LYS486      0.1093
    137  NZ       -37.3920   44.1510   39.8720 N.3   486  LYS486     -0.1314
@<TRIPOS>BOND
     1    86    87    1
     2    89    88    2
     3    87    88    1
     4    87    90    1
     5    88    97   am
     6    99   100    2
     7    99    98    1
     8    90    91    1
     9    97    98    1
    10    91    92    1
    11    98   101    1
    12    80    79    2
    13    79    78    1
    14    77    78    1
    15   101   102    1
    16    92    93    1
    17    66    67    1
    18    78    81    1
    19    69    68    2
    20    68    67    1
    21    95    94    1
    22    67    70    1
    23    93    94    2
    24   112   114   ar
    25   112   111   ar
    26   102   103    1
    27   110   111    1
    28   110   107    1
    29   109   108    2
    30    94    96    1
    31    81    82    1
    32   114   116   ar
    33   106   107    1
    34   132   131    2
    35   111   113   ar
    36   131   130    1
    37   103   105   ar
    38   103   104   ar
    39   107   108    1
    40   108   118   am
    41    70    71    1
    42    82    83    1
    43   116   117    1
    44   116   115   ar
    45   113   115   ar
    46    72    73    1
    47    72    71    1
    48   121   120    2
    49    73    74    2
    50   120   129   am
    51   120   119    1
    52   118   119    1
    53   130   129    1
    54   130   133    1
    55    83    84    1
    56   119   122    1
    57    55    56    2
    58    55    54    1
    59    74    76    1
    60    74    75    1
    61   133   134    1
    62   134   135    1
    63   136   135    1
    64   136   137    1
    65   125   124    1
    66   125   126    2
    67    58    57    1
    68   124   123    1
    69    84    85    1
    70    54    57    1
    71    54    53    1
    72   122   123    1
    73   128   126    1
    74   126   127    1
    75    53    48   am
    76    49    48    2
    77    48    47    1
    78    51    50    1
    79    50    47    1
    80    50    52    1
    81    47    46    1
    82    40    38    1
    83     8     7    1
    84     8     9    2
    85    11     9    1
    86    44    43    2
    87    46    43   am
    88     7     6    1
    89     9    10    1
    90    43    42    1
    91    38    39    1
    92    38    37    2
    93     6     5    1
    94    37    36    1
    95    65    63    1
    96    42    41    1
    97    42    45    1
    98     5     2    1
    99    36    35    1
   100    63    64    1
   101    63    60    1
   102     2     1    1
   103     2     3    1
   104    35    34    1
   105    61    60    1
   106    61    62    2
   107    59    60    1
   108    15    14    2
   109     3    12   am
   110     3     4    2
   111    24    23    1
   112    12    13    1
   113    34    31    1
   114    14    13    1
   115    14    19   am
   116    23    20    1
   117    23    25    1
   118    20    19    1
   119    20    21    1
   120    26    21   am
   121    26    27    1
   122    13    16    1
   123    21    22    2
   124    31    30    1
   125    31    32    1
   126    29    28    2
   127    30    28   am
   128    28    27    1
   129    16    17    1
   130    16    18    1
   131    32    33    2
