@<TRIPOS>MOLECULE
tmp/3uj7A00.pdb
 208 201 0 0 0
SMALL
GASTEIGER

@<TRIPOS>ATOM
      1  N          7.7700   -8.1120   33.0100 N.3     7  LEU7       -0.1245
      2  CA         7.4850   -8.8810   31.8070 C.3     7  LEU7        0.1561
      3  C          6.0530   -8.6400   31.3000 C.2     7  LEU7        0.2260
      4  O          5.8260   -8.4580   30.0960 O.2     7  LEU7       -0.2867
      5  CB         7.7400  -10.3650   32.0690 C.3     7  LEU7        0.0270
      6  CG         9.2010  -10.7610   32.3260 C.3     7  LEU7        0.0019
      7  CD1        9.3000  -12.1820   32.8800 C.3     7  LEU7        0.0001
      8  CD2       10.0170  -10.6160   31.0640 C.3     7  LEU7        0.0001
      9  N          5.7940   -8.7660   27.2830 N.3    12  TYR12      -0.1241
     10  CA         4.7050   -9.7230   27.1430 C.3    12  TYR12       0.1605
     11  C          3.3410   -9.1500   27.5240 C.2    12  TYR12       0.2264
     12  O          2.5350   -9.8040   28.1870 O.2    12  TYR12      -0.2867
     13  CB         5.0100  -11.0160   27.9060 C.3    12  TYR12       0.0534
     14  CG         6.2780  -11.7050   27.4580 C.ar   12  TYR12      -0.0201
     15  CD1        6.4120  -12.2040   26.1670 C.ar   12  TYR12      -0.0009
     16  CD2        7.3380  -11.8620   28.3320 C.ar   12  TYR12      -0.0009
     17  CE1        7.5870  -12.8470   25.7620 C.ar   12  TYR12       0.0417
     18  CE2        8.5120  -12.4990   27.9370 C.ar   12  TYR12       0.0417
     19  CZ         8.6300  -12.9900   26.6590 C.ar   12  TYR12       0.1957
     20  OH         9.8080  -13.6210   26.2950 O.3    12  TYR12      -0.2866
     21  N         -0.0830  -20.3650   18.4870 N.3    27  ASN27      -0.1225
     22  CA         0.2370  -21.0210   19.7590 C.3    27  ASN27       0.1785
     23  C          1.7110  -20.9580   20.1620 C.2    27  ASN27       0.2597
     24  O          2.1020  -21.5450   21.1690 O.2    27  ASN27      -0.2718
     25  CB        -0.2250  -22.4840   19.7710 C.3    27  ASN27       0.1169
     26  CG        -1.7040  -22.6270   19.5290 C.2    27  ASN27       0.2627
     27  OD1       -2.5050  -21.8280   20.0110 O.2    27  ASN27      -0.2716
     28  ND2       -2.0740  -23.6280   18.7530 N.am   27  ASN27      -0.0877
     29  N          2.5150  -20.2290   19.4010 N.am   28  TYR28      -0.1962
     30  CA         3.9420  -20.1340   19.6940 C.3    28  TYR28       0.1771
     31  C          4.4040  -18.6990   19.8580 C.2    28  TYR28       0.2619
     32  O          3.9390  -17.8040   19.1530 O.2    28  TYR28      -0.2715
     33  CB         4.7550  -20.8020   18.5760 C.3    28  TYR28       0.0574
     34  CG         4.6470  -22.2980   18.5980 C.ar   28  TYR28      -0.0198
     35  CD1        3.6710  -22.9560   17.8630 C.ar   28  TYR28      -0.0009
     36  CD2        5.4990  -23.0590   19.3980 C.ar   28  TYR28      -0.0009
     37  CE1        3.5650  -24.3250   17.8940 C.ar   28  TYR28       0.0417
     38  CE2        5.4000  -24.4330   19.4380 C.ar   28  TYR28       0.0417
     39  CZ         4.4330  -25.0600   18.6850 C.ar   28  TYR28       0.1957
     40  OH         4.3350  -26.4230   18.7230 O.3    28  TYR28      -0.2866
     41  N          5.3220  -18.4840   20.7930 N.am   29  ILE29      -0.1963
     42  CA         6.0030  -17.1970   20.8730 C.3    29  ILE29       0.1727
     43  C          7.5150  -17.3830   20.9400 C.2    29  ILE29       0.2616
     44  O          8.2230  -16.6030   21.5720 O.2    29  ILE29      -0.2715
     45  CB         5.4780  -16.3100   22.0360 C.3    29  ILE29       0.0290
     46  CG1        5.5140  -17.0660   23.3640 C.3    29  ILE29       0.0022
     47  CG2        4.0610  -15.8160   21.7320 C.3    29  ILE29       0.0023
     48  CD1        4.8860  -16.2860   24.5390 C.3    29  ILE29       0.0001
     49  N          8.0310  -18.3990   20.2660 N.am   30  SER30      -0.1950
     50  CA         9.4560  -18.5520   20.1300 C.3    30  SER30       0.1924
     51  C          9.8900  -19.1890   18.8310 C.2    30  SER30       0.2314
     52  O          9.1420  -19.7130   18.1190 O.2    30  SER30      -0.2863
     53  CB        10.0630  -19.3110   21.3110 C.3    30  SER30       0.2116
     54  OG         9.8740  -20.6730   21.1450 O.3    30  SER30      -0.2180
     55  N          7.0660  -28.1990   31.1870 N.3    54  ASP54      -0.1225
     56  CA         7.5080  -27.1820   30.2310 C.3    54  ASP54       0.1805
     57  C          7.7280  -25.8810   31.0150 C.2    54  ASP54       0.2598
     58  O          6.7800  -25.2720   31.5390 O.2    54  ASP54      -0.2718
     59  CB         6.4740  -26.9860   29.1030 C.3    54  ASP54       0.1424
     60  CG         6.9510  -26.0190   28.0070 C.2    54  ASP54       0.3668
     61  OD1        7.9790  -25.3350   28.1810 O.co2  54  ASP54      -0.2456
     62  OD2        6.2740  -25.9190   26.9620 O.co2  54  ASP54      -0.2456
     63  N          8.9870  -25.4670   31.1170 N.am   55  ILE55      -0.1966
     64  CA         9.3530  -24.2590   31.8340 C.3    55  ILE55       0.1727
     65  C          9.3010  -23.0430   30.9050 C.2    55  ILE55       0.2617
     66  O         10.0770  -22.9490   29.9450 O.2    55  ILE55      -0.2715
     67  CB        10.7710  -24.4040   32.4010 C.3    55  ILE55       0.0290
     68  CG1       10.8020  -25.5280   33.4280 C.3    55  ILE55       0.0022
     69  CG2       11.2230  -23.0840   33.0430 C.3    55  ILE55       0.0023
     70  CD1       12.2130  -25.8590   33.9040 C.3    55  ILE55       0.0001
     71  N          8.3810  -22.1200   31.1940 N.am   56  GLY56      -0.1940
     72  CA         8.0980  -20.9870   30.3290 C.3    56  GLY56       0.2014
     73  C          7.2090  -21.3970   29.1700 C.2    56  GLY56       0.2640
     74  O          7.5660  -21.2180   28.0180 O.2    56  GLY56      -0.2714
     75  N          6.0490  -21.9660   29.4830 N.am   57  SER57      -0.1935
     76  CA         5.2060  -22.6320   28.4970 C.3    57  SER57       0.2055
     77  C          4.4800  -21.7210   27.4880 C.2    57  SER57       0.2644
     78  O          3.9400  -22.2060   26.4870 O.2    57  SER57      -0.2714
     79  CB         4.2040  -23.5400   29.2220 C.3    57  SER57       0.2130
     80  OG         3.5780  -22.8500   30.2990 O.3    57  SER57      -0.2179
     81  N          4.4540  -20.4200   27.7530 N.am   58  GLY58      -0.1939
     82  CA         3.8880  -19.4670   26.8030 C.3    58  GLY58       0.2014
     83  C          2.4230  -19.7020   26.4660 C.2    58  GLY58       0.2638
     84  O          1.5890  -19.8710   27.3650 O.2    58  GLY58      -0.2714
     85  N          2.1050  -19.6970   25.1680 N.am   59  LEU59      -0.1977
     86  CA         0.7310  -19.9420   24.7060 C.3    59  LEU59       0.1596
     87  C          0.3930  -21.4240   24.6240 C.2    59  LEU59       0.2287
     88  O         -0.7160  -21.7950   24.2390 O.2    59  LEU59      -0.2864
     89  CB         0.4860  -19.3000   23.3460 C.3    59  LEU59       0.0297
     90  CG         0.5210  -17.7780   23.3210 C.3    59  LEU59       0.0022
     91  CD1        0.5240  -17.3000   21.8790 C.3    59  LEU59       0.0001
     92  CD2       -0.6660  -17.2170   24.0760 C.3    59  LEU59       0.0001
     93  N          3.8570  -25.9550   22.6620 N.3    62  GLY62      -0.1225
     94  CA         4.7600  -27.0530   22.9480 C.3    62  GLY62       0.1811
     95  C          4.0910  -28.1710   23.7280 C.2    62  GLY62       0.2280
     96  O          4.2570  -29.3470   23.4000 O.2    62  GLY62      -0.2866
     97  N          4.5460  -24.1790   33.0930 N.3    77  ILE77      -0.1231
     98  CA         4.6340  -23.1220   34.0760 C.3    77  ILE77       0.1692
     99  C          5.0810  -21.8640   33.3570 C.2    77  ILE77       0.2592
    100  O          6.0680  -21.8730   32.6200 O.2    77  ILE77      -0.2718
    101  CB         5.6700  -23.4490   35.1750 C.3    77  ILE77       0.0266
    102  CG1        5.2530  -24.6970   35.9640 C.3    77  ILE77       0.0019
    103  CG2        5.8450  -22.2510   36.1100 C.3    77  ILE77       0.0020
    104  CD1        4.1020  -24.4630   36.9270 C.3    77  ILE77       0.0001
    105  N          4.3570  -20.7740   33.5740 N.am   78  ASP78      -0.1960
    106  CA         4.7700  -19.4970   33.0170 C.3    78  ASP78       0.1840
    107  C          4.4730  -18.4050   34.0340 C.2    78  ASP78       0.2622
    108  O          3.4480  -18.4420   34.6880 O.2    78  ASP78      -0.2715
    109  CB         4.0280  -19.2370   31.7050 C.3    78  ASP78       0.1450
    110  CG         4.7190  -18.1960   30.8540 C.2    78  ASP78       0.3671
    111  OD1        4.6760  -17.0120   31.2430 O.co2  78  ASP78      -0.2456
    112  OD2        5.3250  -18.5600   29.8170 O.co2  78  ASP78      -0.2456
    113  N          5.3730  -17.4370   34.1600 N.am   79  ILE79      -0.1963
    114  CA         5.2570  -16.4200   35.1920 C.3    79  ILE79       0.1727
    115  C          4.2140  -15.3570   34.8360 C.2    79  ILE79       0.2616
    116  O          3.6700  -14.6840   35.7160 O.2    79  ILE79      -0.2715
    117  CB         6.6380  -15.7660   35.4800 C.3    79  ILE79       0.0290
    118  CG1        6.6070  -14.9780   36.7930 C.3    79  ILE79       0.0022
    119  CG2        7.1060  -14.9270   34.2950 C.3    79  ILE79       0.0023
    120  CD1        7.9710  -14.3950   37.1660 C.3    79  ILE79       0.0001
    121  N          3.9270  -15.2210   33.5450 N.am   80  CYS80      -0.1968
    122  CA         2.9880  -14.1920   33.0820 C.3    80  CYS80       0.1712
    123  C          1.5380  -14.6610   33.1140 C.2    80  CYS80       0.2296
    124  O          1.1270  -15.5080   32.3190 O.2    80  CYS80      -0.2864
    125  CB         3.3540  -13.7340   31.6800 C.3    80  CYS80       0.0983
    126  SG         4.8600  -12.7300   31.6310 S.3    80  CYS80      -0.0798
    127  N         -0.5090  -14.4720   29.8410 N.3    83  ILE83      -0.1245
    128  CA        -0.1530  -15.4880   28.8600 C.3    83  ILE83       0.1561
    129  C         -0.7740  -16.8420   29.2250 C.2    83  ILE83       0.2260
    130  O         -1.2850  -17.5590   28.3750 O.2    83  ILE83      -0.2867
    131  CB         1.3670  -15.6120   28.7400 C.3    83  ILE83       0.0252
    132  CG1        1.9500  -14.3430   28.1090 C.3    83  ILE83       0.0019
    133  CG2        1.7450  -16.8580   27.9480 C.3    83  ILE83       0.0019
    134  CD1        3.4540  -14.3900   27.9430 C.3    83  ILE83       0.0001
    135  N          3.0710  -19.1620   37.5580 N.3   102  ASN102     -0.1225
    136  CA         3.9610  -19.1950   38.7080 C.3   102  ASN102      0.1785
    137  C          5.3840  -18.8760   38.2550 C.2   102  ASN102      0.2597
    138  O          5.7240  -19.0730   37.0940 O.2   102  ASN102     -0.2718
    139  CB         3.9090  -20.5830   39.3510 C.3   102  ASN102      0.1169
    140  CG         4.0020  -20.5410   40.8600 C.2   102  ASN102      0.2627
    141  OD1        4.9650  -20.0200   41.4280 O.2   102  ASN102     -0.2716
    142  ND2        2.9990  -21.1040   41.5230 N.am  102  ASN102     -0.0877
    143  N          6.2050  -18.3760   39.1710 N.am  103  ASP103     -0.1960
    144  CA         7.6340  -18.2070   38.9270 C.3   103  ASP103      0.1840
    145  C          8.2740  -19.5760   39.1250 C.2   103  ASP103      0.2622
    146  O          8.1430  -20.1640   40.1890 O.2   103  ASP103     -0.2715
    147  CB         8.1840  -17.2170   39.9530 C.3   103  ASP103      0.1450
    148  CG         9.6520  -16.8790   39.7460 C.2   103  ASP103      0.3671
    149  OD1       10.3570  -17.5970   39.0070 O.co2 103  ASP103     -0.2456
    150  OD2       10.1040  -15.8800   40.3470 O.co2 103  ASP103     -0.2456
    151  N          8.9330  -20.1030   38.0950 N.am  104  ILE104     -0.1963
    152  CA         9.5990  -21.3900   38.2210 C.3   104  ILE104      0.1727
    153  C         10.5930  -21.4400   39.3940 C.2   104  ILE104      0.2616
    154  O         10.8270  -22.5000   39.9840 O.2   104  ILE104     -0.2715
    155  CB        10.2750  -21.8180   36.9030 C.3   104  ILE104      0.0290
    156  CG1       10.5950  -23.3180   36.9460 C.3   104  ILE104      0.0022
    157  CG2       11.5150  -20.9750   36.6210 C.3   104  ILE104      0.0023
    158  CD1        9.3600  -24.1880   37.1040 C.3   104  ILE104      0.0001
    159  N         11.1630  -20.2970   39.7420 N.am  105  LEU105     -0.1977
    160  CA        12.1570  -20.2550   40.8140 C.3   105  LEU105      0.1596
    161  C         11.5700  -20.5190   42.1920 C.2   105  LEU105      0.2287
    162  O         12.2990  -20.8760   43.1170 O.2   105  LEU105     -0.2864
    163  CB        12.8790  -18.9090   40.8160 C.3   105  LEU105      0.0297
    164  CG        13.7530  -18.6350   39.5890 C.3   105  LEU105      0.0022
    165  CD1       14.2900  -17.2190   39.6540 C.3   105  LEU105      0.0001
    166  CD2       14.8930  -19.6430   39.4800 C.3   105  LEU105      0.0001
    167  N         11.9510  -23.8550   26.1230 N.3   120  ARG120     -0.1231
    168  CA        12.2770  -23.2610   24.8420 C.3   120  ARG120      0.1694
    169  C         12.3560  -21.7530   24.9650 C.2   120  ARG120      0.2592
    170  O         11.3250  -21.0780   25.0900 O.2   120  ARG120     -0.2718
    171  CB        11.2270  -23.6370   23.7930 C.3   120  ARG120      0.0321
    172  CG        11.0810  -25.1230   23.5780 C.3   120  ARG120      0.0489
    173  CD        12.2950  -25.7230   22.8710 C.3   120  ARG120      0.2205
    174  NE        12.5610  -25.0160   21.6240 N.pl3 120  ARG120     -0.0865
    175  CZ        11.8450  -25.1730   20.5120 C.cat 120  ARG120      0.5346
    176  NH1       10.8310  -26.0350   20.4820 N.pl3 120  ARG120      0.1354
    177  NH2       12.1480  -24.4760   19.4330 N.pl3 120  ARG120      0.1354
    178  N         13.5770  -21.2290   24.9210 N.am  121  ASP121     -0.1960
    179  CA        13.8400  -19.7880   24.8880 C.3   121  ASP121      0.1840
    180  C         13.1490  -19.0140   26.0120 C.2   121  ASP121      0.2621
    181  O         12.5060  -17.9840   25.7870 O.2   121  ASP121     -0.2715
    182  CB        13.4880  -19.2000   23.5150 C.3   121  ASP121      0.1450
    183  CG        14.1910  -19.9080   22.3710 C.2   121  ASP121      0.3671
    184  OD1       15.1300  -20.7220   22.6090 O.co2 121  ASP121     -0.2456
    185  OD2       13.8020  -19.6490   21.2130 O.co2 121  ASP121     -0.2456
    186  N         13.3200  -19.5050   27.2270 N.am  122  ALA122     -0.1977
    187  CA        12.7300  -18.8860   28.3920 C.3   122  ALA122      0.1597
    188  C         13.7680  -18.5270   29.4610 C.2   122  ALA122      0.2287
    189  O         13.6120  -17.5590   30.1800 O.2   122  ALA122     -0.2864
    190  CB        11.6490  -19.8180   28.9680 C.3   122  ALA122      0.0319
    191  N         15.6750  -15.1300   30.4960 N.3   125  HIS125     -0.1226
    192  CA        15.1370  -14.1330   31.4190 C.3   125  HIS125      0.1752
    193  C         15.7670  -14.1790   32.8160 C.2   125  HIS125      0.2595
    194  O         15.6620  -13.2140   33.5860 O.2   125  HIS125     -0.2718
    195  CB        13.6120  -14.2830   31.5220 C.3   125  HIS125      0.0759
    196  CG        12.8810  -13.8960   30.2800 C.ar  125  HIS125      0.0818
    197  ND1       12.8000  -12.5860   29.8430 N.ar  125  HIS125     -0.2268
    198  CD2       12.1930  -14.6290   29.3710 C.ar  125  HIS125      0.1154
    199  CE1       12.1060  -12.5350   28.7260 C.ar  125  HIS125      0.1986
    200  NE2       11.7180  -13.7650   28.4160 N.ar  125  HIS125     -0.2212
    201  N         16.4380  -15.2810   33.1400 N.am  126  LEU126     -0.1980
    202  CA        16.9590  -15.4890   34.4900 C.3   126  LEU126      0.1596
    203  C         18.3950  -14.9800   34.6230 C.2   126  LEU126      0.2287
    204  O         19.1930  -15.1140   33.6980 O.2   126  LEU126     -0.2864
    205  CB        16.9060  -16.9800   34.8480 C.3   126  LEU126      0.0297
    206  CG        15.5830  -17.5810   35.3330 C.3   126  LEU126      0.0022
    207  CD1       14.4410  -17.2920   34.3800 C.3   126  LEU126      0.0001
    208  CD2       15.7170  -19.0820   35.5390 C.3   126  LEU126      0.0001
@<TRIPOS>BOND
     1    35    37   ar
     2    35    34   ar
     3    37    39   ar
     4    52    51    2
     5    21    22    1
     6    33    34    1
     7    33    30    1
     8    34    36   ar
     9    39    40    1
    10    39    38   ar
    11    28    26   am
    12    51    50    1
    13    32    31    2
    14    36    38   ar
    15    29    30    1
    16    29    23   am
    17   177   175    1
    18    26    25    1
    19    26    27    2
    20    30    31    1
    21    22    25    1
    22    22    23    1
    23    31    41   am
    24    50    49    1
    25    50    53    1
    26    23    24    2
    27    49    43   am
    28   176   175    1
    29   175   174    2
    30    41    42    1
    31    42    43    1
    32    42    45    1
    33    43    44    2
    34    54    53    1
    35   185   183   ar
    36   174   173    1
    37    47    45    1
    38    91    90    1
    39    45    46    1
    40   183   184   ar
    41   183   182    1
    42    93    94    1
    43   173   172    1
    44    94    95    1
    45    90    89    1
    46    90    92    1
    47    89    86    1
    48    46    48    1
    49    96    95    2
    50   182   179    1
    51   172   171    1
    52   171   168    1
    53    88    87    2
    54    87    86    1
    55    86    85    1
    56   168   169    1
    57   168   167    1
    58   179   178    1
    59   179   180    1
    60   178   169   am
    61   169   170    2
    62    85    83   am
    63    17    15   ar
    64    17    19   ar
    65   181   180    2
    66   180   186   am
    67    15    14   ar
    68    20    19    1
    69    83    82    1
    70    83    84    2
    71    78    77    2
    72    19    18   ar
    73    82    81    1
    74    62    60   ar
    75    10     9    1
    76    10    11    1
    77    10    13    1
    78   186   187    1
    79    14    13    1
    80    14    16   ar
    81    77    81   am
    82    77    76    1
    83    11    12    2
    84    18    16   ar
    85   134   132    1
    86   133   131    1
    87    60    61   ar
    88    60    59    1
    89    74    73    2
    90   132   131    1
    91   130   129    2
    92   187   190    1
    93   187   188    1
    94   200   199   ar
    95   200   198   ar
    96    76    79    1
    97    76    75    1
    98   199   197   ar
    99   131   128    1
   100   128   129    1
   101   128   127    1
   102    59    56    1
   103    73    75   am
   104    73    72    1
   105    79    80    1
   106   198   196   ar
   107   188   189    2
   108   112   110   ar
   109   197   196   ar
   110    66    65    2
   111     4     3    2
   112    56    57    1
   113    56    55    1
   114   196   195    1
   115    72    71    1
   116   191   192    1
   117   110   111   ar
   118   110   109    1
   119    65    71   am
   120    65    64    1
   121    57    63   am
   122    57    58    2
   123     8     6    1
   124    63    64    1
   125     3     2    1
   126   192   195    1
   127   192   193    1
   128   126   125    1
   129   125   122    1
   130   109   106    1
   131     2     5    1
   132     2     1    1
   133    64    67    1
   134     5     6    1
   135   124   123    2
   136     6     7    1
   137    67    69    1
   138    67    68    1
   139   100    99    2
   140   193   201   am
   141   193   194    2
   142   106   105    1
   143   106   107    1
   144   122   123    1
   145   122   121    1
   146    97    98    1
   147   201   202    1
   148    99   105   am
   149    99    98    1
   150    68    70    1
   151   121   115   am
   152   204   203    2
   153   107   113   am
   154   107   108    2
   155    98   101    1
   156   113   114    1
   157   119   117    1
   158   207   206    1
   159   202   203    1
   160   202   205    1
   161   115   114    1
   162   115   116    2
   163   205   206    1
   164   101   102    1
   165   101   103    1
   166   114   117    1
   167   206   208    1
   168   117   118    1
   169   102   104    1
   170   157   155    1
   171   118   120    1
   172   155   156    1
   173   155   152    1
   174   156   158    1
   175   138   137    2
   176   135   136    1
   177   151   152    1
   178   151   145   am
   179   152   153    1
   180   137   136    1
   181   137   143   am
   182   136   139    1
   183   144   145    1
   184   144   143    1
   185   144   147    1
   186   149   148   ar
   187   145   146    2
   188   139   140    1
   189   153   159   am
   190   153   154    2
   191   166   164    1
   192   164   165    1
   193   164   163    1
   194   159   160    1
   195   148   147    1
   196   148   150   ar
   197   160   163    1
   198   160   161    1
   199   140   141    2
   200   140   142   am
   201   161   162    2
