@<TRIPOS>MOLECULE
tmp/3uj8A00.pdb
 224 216 0 0 0
SMALL
GASTEIGER

@<TRIPOS>ATOM
      1  N         33.3150    9.4010   21.6440 N.3     2  ASP2       -0.1239
      2  CA        31.9820    9.9930   21.5330 C.3     2  ASP2        0.1674
      3  C         31.6040   10.1980   20.0710 C.2     2  ASP2        0.2266
      4  O         30.4990    9.8560   19.6450 O.2     2  ASP2       -0.2867
      5  CB        31.9320   11.3370   22.2570 C.3     2  ASP2        0.1410
      6  CG        32.1410   11.2040   23.7500 C.2     2  ASP2        0.3668
      7  OD1       31.6820   10.1940   24.3270 O.co2   2  ASP2       -0.2456
      8  OD2       32.7630   12.1120   24.3440 O.co2   2  ASP2       -0.2456
      9  N         28.3230    8.5070   18.0860 N.3     6  LEU6       -0.1245
     10  CA        27.2630    9.3000   17.4650 C.3     6  LEU6        0.1561
     11  C         27.1670    9.0680   15.9500 C.2     6  LEU6        0.2260
     12  O         26.0750    8.8770   15.4150 O.2     6  LEU6       -0.2867
     13  CB        27.4550   10.7800   17.7810 C.3     6  LEU6        0.0270
     14  CG        27.3180   11.0890   19.2740 C.3     6  LEU6        0.0019
     15  CD1       27.7480   12.5240   19.5460 C.3     6  LEU6        0.0001
     16  CD2       25.8970   10.8520   19.7600 C.3     6  LEU6        0.0001
     17  N         23.3390    9.2110   14.6460 N.3    11  TYR11      -0.1241
     18  CA        23.4860   10.1730   13.5550 C.3    11  TYR11       0.1605
     19  C         24.2480    9.6050   12.3560 C.2    11  TYR11       0.2264
     20  O         25.1030   10.2720   11.7720 O.2    11  TYR11      -0.2867
     21  CB        24.1350   11.4650   14.0660 C.3    11  TYR11       0.0534
     22  CG        23.3800   12.1510   15.2060 C.ar   11  TYR11      -0.0201
     23  CD1       22.1460   12.7510   14.9950 C.ar   11  TYR11      -0.0009
     24  CD2       23.9110   12.1930   16.4890 C.ar   11  TYR11      -0.0009
     25  CE1       21.4660   13.3850   16.0260 C.ar   11  TYR11       0.0417
     26  CE2       23.2360   12.8280   17.5360 C.ar   11  TYR11       0.0417
     27  CZ        22.0160   13.4140   17.2950 C.ar   11  TYR11       0.1957
     28  OH        21.3430   14.0420   18.3240 O.3    11  TYR11      -0.2866
     29  N         16.7290   20.6380    6.5220 N.3    26  ASN26      -0.1225
     30  CA        17.8420   21.2800    7.2240 C.3    26  ASN26       0.1785
     31  C         17.7780   21.1980    8.7530 C.2    26  ASN26       0.2597
     32  O         18.6560   21.7260    9.4360 O.2    26  ASN26      -0.2718
     33  CB        18.0020   22.7410    6.7880 C.3    26  ASN26       0.1169
     34  CG        18.2510   22.8790    5.2990 C.2    26  ASN26       0.2627
     35  OD1       18.9480   22.0680    4.6970 O.2    26  ASN26      -0.2716
     36  ND2       17.6840   23.9170    4.7050 N.am   26  ASN26      -0.0877
     37  N         16.7430   20.5510    9.2800 N.am   27  TYR27      -0.1962
     38  CA        16.5820   20.4160   10.7300 C.3    27  TYR27       0.1771
     39  C         16.5390   18.9640   11.1520 C.2    27  TYR27       0.2619
     40  O         15.9690   18.1120   10.4520 O.2    27  TYR27      -0.2715
     41  CB        15.3110   21.1190   11.1970 C.3    27  TYR27       0.0574
     42  CG        15.4080   22.6160   11.1020 C.ar   27  TYR27      -0.0198
     43  CD1       14.9920   23.2880    9.9650 C.ar   27  TYR27      -0.0009
     44  CD2       15.9420   23.3560   12.1440 C.ar   27  TYR27      -0.0009
     45  CE1       15.0940   24.6660    9.8720 C.ar   27  TYR27       0.0417
     46  CE2       16.0460   24.7340   12.0640 C.ar   27  TYR27       0.0417
     47  CZ        15.6230   25.3750   10.9300 C.ar   27  TYR27       0.1957
     48  OH        15.7320   26.7410   10.8620 O.3    27  TYR27      -0.2866
     49  N         17.1450   18.6730   12.2980 N.am   28  ILE28      -0.1963
     50  CA        17.0520   17.3390   12.8760 C.3    28  ILE28       0.1727
     51  C         16.6660   17.4080   14.3470 C.2    28  ILE28       0.2616
     52  O         16.9910   16.5100   15.1200 O.2    28  ILE28      -0.2715
     53  CB        18.3360   16.4830   12.6650 C.3    28  ILE28       0.0290
     54  CG1       19.5680   17.1020   13.3330 C.3    28  ILE28       0.0022
     55  CG2       18.5830   16.2770   11.1700 C.3    28  ILE28       0.0023
     56  CD1       20.8160   16.1890   13.2720 C.3    28  ILE28       0.0001
     57  N         15.9440   18.4590   14.7200 N.am   29  SER29      -0.1950
     58  CA        15.4540   18.5820   16.0900 C.3    29  SER29       0.1924
     59  C         14.0710   19.2230   16.1770 C.2    29  SER29       0.2314
     60  O         13.5870   19.8560   15.2250 O.2    29  SER29      -0.2863
     61  CB        16.4380   19.3790   16.9580 C.3    29  SER29       0.2116
     62  OG        16.3280   20.7720   16.6880 O.3    29  SER29      -0.2180
     63  N         26.7850   28.2540   16.9140 N.3    53  ASP53      -0.1225
     64  CA        25.7520   27.2370   17.0830 C.3    53  ASP53       0.1805
     65  C         26.4380   25.9470   17.5170 C.2    53  ASP53       0.2598
     66  O         27.2010   25.3570   16.7490 O.2    53  ASP53      -0.2718
     67  CB        24.9910   27.0310   15.7650 C.3    53  ASP53       0.1424
     68  CG        23.8490   26.0390   15.8930 C.2    53  ASP53       0.3668
     69  OD1       23.8400   25.2640   16.8610 O.co2  53  ASP53      -0.2456
     70  OD2       22.9600   26.0080   15.0180 O.co2  53  ASP53      -0.2456
     71  N         26.1940   25.5410   18.7620 N.am   54  ILE54      -0.1966
     72  CA        26.8120   24.3550   19.3290 C.3    54  ILE54       0.1727
     73  C         25.9690   23.1350   19.0090 C.2    54  ILE54       0.2617
     74  O         24.8450   22.9860   19.4990 O.2    54  ILE54      -0.2715
     75  CB        26.9750   24.4790   20.8550 C.3    54  ILE54       0.0290
     76  CG1       27.9160   25.6340   21.1870 C.3    54  ILE54       0.0022
     77  CG2       27.4880   23.1570   21.4240 C.3    54  ILE54       0.0023
     78  CD1       27.9540   26.0050   22.6660 C.3    54  ILE54       0.0001
     79  N         26.5240   22.2620   18.1720 N.am   55  GLY55      -0.1940
     80  CA        25.8230   21.0760   17.7010 C.3    55  GLY55       0.2014
     81  C         24.9410   21.4410   16.5200 C.2    55  GLY55       0.2640
     82  O         23.7330   21.2150   16.5390 O.2    55  GLY55      -0.2714
     83  N         25.5540   22.0220   15.4880 N.am   56  SER56      -0.1935
     84  CA        24.8090   22.7030   14.4230 C.3    56  SER56       0.2055
     85  C         24.0480   21.7970   13.4400 C.2    56  SER56       0.2644
     86  O         23.2230   22.2800   12.6660 O.2    56  SER56      -0.2714
     87  CB        25.7330   23.6600   13.6810 C.3    56  SER56       0.2130
     88  OG        26.9200   23.0050   13.2740 O.3    56  SER56      -0.2179
     89  N         24.3160   20.4970   13.4690 N.am   57  GLY57      -0.1939
     90  CA        23.5410   19.5560   12.6730 C.3    57  GLY57       0.2014
     91  C         23.6300   19.8100   11.1730 C.2    57  GLY57       0.2638
     92  O         24.7210   20.0160   10.6330 O.2    57  GLY57      -0.2714
     93  N         22.4850   19.7760   10.4990 N.am   58  LEU58      -0.1977
     94  CA        22.4360   20.0320    9.0590 C.3    58  LEU58       0.1596
     95  C         22.4940   21.5140    8.7290 C.2    58  LEU58       0.2287
     96  O         22.5030   21.8880    7.5570 O.2    58  LEU58      -0.2864
     97  CB        21.1730   19.4270    8.4600 C.3    58  LEU58       0.0297
     98  CG        21.1290   17.9040    8.4080 C.3    58  LEU58       0.0022
     99  CD1       19.7970   17.4410    7.8280 C.3    58  LEU58       0.0001
    100  CD2       22.2810   17.3750    7.5700 C.3    58  LEU58       0.0001
    101  N         19.5980   26.0520   11.6010 N.3    61  GLY61      -0.1225
    102  CA        19.6400   27.1690   12.5300 C.3    61  GLY61       0.1811
    103  C         20.5570   28.2790   12.0550 C.2    61  GLY61       0.2280
    104  O         20.1950   29.4560   12.1000 O.2    61  GLY61      -0.2866
    105  N         29.3890   24.3500   14.9410 N.3    76  ILE76      -0.1231
    106  CA        30.2980   23.2770   15.3020 C.3    76  ILE76       0.1692
    107  C         29.4750   22.0170   15.5250 C.2    76  ILE76       0.2592
    108  O         28.4700   22.0340   16.2480 O.2    76  ILE76      -0.2718
    109  CB        31.0550   23.6060   16.5970 C.3    76  ILE76       0.0266
    110  CG1       31.9560   24.8300   16.4090 C.3    76  ILE76       0.0019
    111  CG2       31.8820   22.4040   17.0420 C.3    76  ILE76       0.0020
    112  CD1       33.2150   24.5440   15.6370 C.3    76  ILE76       0.0001
    113  N         29.8890   20.9200   14.8970 N.am   77  ASP77      -0.1960
    114  CA        29.2320   19.6400   15.1430 C.3    77  ASP77       0.1840
    115  C         30.2810   18.5410   15.1480 C.2    77  ASP77       0.2622
    116  O         31.1960   18.5400   14.3300 O.2    77  ASP77      -0.2715
    117  CB        28.1670   19.3560   14.0830 C.3    77  ASP77       0.1450
    118  CG        27.1800   18.3100   14.5320 C.2    77  ASP77       0.3671
    119  OD1       27.5690   17.1230   14.5850 O.co2  77  ASP77      -0.2456
    120  OD2       26.0280   18.6610   14.8460 O.co2  77  ASP77      -0.2456
    121  N         30.1550   17.6090   16.0840 N.am   78  ILE78      -0.1963
    122  CA        31.1790   16.5870   16.2520 C.3    78  ILE78       0.1727
    123  C         31.1380   15.5220   15.1520 C.2    78  ILE78       0.2616
    124  O         32.1460   14.8750   14.8740 O.2    78  ILE78      -0.2715
    125  CB        31.0740   15.9370   17.6530 C.3    78  ILE78       0.0290
    126  CG1       32.3300   15.1240   17.9910 C.3    78  ILE78       0.0022
    127  CG2       29.8040   15.1040   17.7760 C.3    78  ILE78       0.0023
    128  CD1       32.3810   14.6900   19.4550 C.3    78  ILE78       0.0001
    129  N         29.9850   15.3530   14.5150 N.am   79  CYS79      -0.1968
    130  CA        29.8290   14.3030   13.5090 C.3    79  CYS79       0.1712
    131  C         30.2710   14.8150   12.1340 C.2    79  CYS79       0.2296
    132  O         29.6220   15.6810   11.5340 O.2    79  CYS79      -0.2864
    133  CB        28.3840   13.8090   13.4720 C.3    79  CYS79       0.0983
    134  SG        27.9360   12.8190   14.9080 S.3    79  CYS79      -0.0798
    135  N         27.7230   14.5910    9.2630 N.3    82  ILE82      -0.1245
    136  CA        26.6870   15.6040    9.3250 C.3    82  ILE82       0.1561
    137  C         27.2020   16.9430    8.8050 C.2    82  ILE82       0.2260
    138  O         26.5090   17.6350    8.0620 O.2    82  ILE82      -0.2867
    139  CB        26.1790   15.7830   10.7620 C.3    82  ILE82       0.0252
    140  CG1       25.4070   14.5470   11.2200 C.3    82  ILE82       0.0019
    141  CG2       25.2980   17.0090   10.8750 C.3    82  ILE82       0.0019
    142  CD1       24.8460   14.7160   12.6290 C.3    82  ILE82       0.0001
    143  N         34.0410   19.3090   14.7870 N.3   101  ASN101     -0.1225
    144  CA        34.8890   19.3080   15.9640 C.3   101  ASN101      0.1785
    145  C         34.0470   19.0330   17.1930 C.2   101  ASN101      0.2597
    146  O         32.8370   19.2500   17.1820 O.2   101  ASN101     -0.2718
    147  CB        35.5540   20.6740   16.1190 C.3   101  ASN101      0.1169
    148  CG        36.9990   20.5810   16.5350 C.2   101  ASN101      0.2627
    149  OD1       37.3110   20.1910   17.6590 O.2   101  ASN101     -0.2716
    150  ND2       37.8970   20.9550   15.6310 N.am  101  ASN101     -0.0877
    151  N         34.6930   18.5210   18.2380 N.am  102  ASP102     -0.1960
    152  CA        34.0770   18.4050   19.5510 C.3   102  ASP102      0.1840
    153  C         34.0820   19.7930   20.1900 C.2   102  ASP102      0.2622
    154  O         35.1310   20.4190   20.3130 O.2   102  ASP102     -0.2715
    155  CB        34.9140   17.4530   20.4000 C.3   102  ASP102      0.1450
    156  CG        34.2730   17.1100   21.7280 C.2   102  ASP102      0.3671
    157  OD1       33.3470   17.8130   22.1880 O.co2 102  ASP102     -0.2456
    158  OD2       34.7360   16.1160   22.3260 O.co2 102  ASP102     -0.2456
    159  N         32.9150   20.2790   20.5900 N.am  103  ILE103     -0.1963
    160  CA        32.8500   21.5990   21.1990 C.3   103  ILE103      0.1727
    161  C         33.6980   21.6720   22.4780 C.2   103  ILE103      0.2616
    162  O         34.1820   22.7490   22.8480 O.2   103  ILE103     -0.2715
    163  CB        31.3910   22.0410   21.4610 C.3   103  ILE103      0.0290
    164  CG1       31.3380   23.5410   21.8040 C.3   103  ILE103      0.0022
    165  CG2       30.7530   21.2080   22.5710 C.3   103  ILE103      0.0023
    166  CD1       31.7780   24.4680   20.6640 C.3   103  ILE103      0.0001
    167  N         33.9320   20.5270   23.1140 N.am  104  LEU104     -0.1977
    168  CA        34.6780   20.4960   24.3690 C.3   104  LEU104      0.1596
    169  C         36.1830   20.7080   24.2010 C.2   104  LEU104      0.2287
    170  O         36.8770   21.0360   25.1720 O.2   104  LEU104     -0.2864
    171  CB        34.4200   19.1890   25.1160 C.3   104  LEU104      0.0297
    172  CG        32.9870   18.9830   25.6090 C.3   104  LEU104      0.0022
    173  CD1       32.7940   17.5480   26.0610 C.3   104  LEU104      0.0001
    174  CD2       32.6490   19.9510   26.7330 C.3   104  LEU104      0.0001
    175  N         20.5940   23.9120   20.1810 N.3   119  ARG119     -0.1231
    176  CA        19.2760   23.2930   20.1120 C.3   119  ARG119      0.1694
    177  C         19.3700   21.7740   20.1960 C.2   119  ARG119      0.2592
    178  O         19.8190   21.1150   19.2500 O.2   119  ARG119     -0.2718
    179  CB        18.5790   23.7010   18.8050 C.3   119  ARG119      0.0321
    180  CG        18.4230   25.2350   18.6420 C.3   119  ARG119      0.0489
    181  CD        17.3720   25.8220   19.6060 C.3   119  ARG119      0.2205
    182  NE        16.1270   25.0810   19.4870 N.pl3 119  ARG119     -0.0865
    183  CZ        15.2560   25.2360   18.4950 C.cat 119  ARG119      0.5346
    184  NH1       15.4670   26.1610   17.5550 N.pl3 119  ARG119      0.1354
    185  NH2       14.1620   24.4860   18.4450 N.pl3 119  ARG119      0.1354
    186  N         18.9770   21.2410   21.3510 N.am  120  ASP120     -0.1960
    187  CA        18.8770   19.8020   21.5820 C.3   120  ASP120      0.1840
    188  C         20.1770   19.0630   21.2810 C.2   120  ASP120      0.2621
    189  O         20.1810   18.0380   20.5970 O.2   120  ASP120     -0.2715
    190  CB        17.6840   19.1940   20.8290 C.3   120  ASP120      0.1450
    191  CG        16.3470   19.8270   21.2190 C.2   120  ASP120      0.3671
    192  OD1       16.2890   20.6290   22.1910 O.co2 120  ASP120     -0.2456
    193  OD2       15.3400   19.5110   20.5450 O.co2 120  ASP120     -0.2456
    194  N         21.2690   19.5850   21.8280 N.am  121  ALA121     -0.1977
    195  CA        22.5980   19.0240   21.6160 C.3   121  ALA121      0.1597
    196  C         23.2820   18.6620   22.9220 C.2   121  ALA121      0.2287
    197  O         24.0450   17.6970   22.9880 O.2   121  ALA121     -0.2864
    198  CB        23.4620   19.9970   20.8400 C.3   121  ALA121      0.0319
    199  N         22.2600   17.4890   25.6810 N.3   123  LEU123     -0.1231
    200  CA        21.8680   16.2210   26.2920 C.3   123  LEU123      0.1693
    201  C         22.9070   15.1190   26.0630 C.2   123  LEU123      0.2592
    202  O         22.9520   14.1400   26.7980 O.2   123  LEU123     -0.2718
    203  CB        20.4830   15.7700   25.8060 C.3   123  LEU123      0.0284
    204  CG        20.2280   15.5230   24.3150 C.3   123  LEU123      0.0019
    205  CD1       21.1470   14.4640   23.7460 C.3   123  LEU123      0.0001
    206  CD2       18.7860   15.1120   24.0990 C.3   123  LEU123      0.0001
    207  N         23.7350   15.2730   25.0340 N.am  124  HIS124     -0.1962
    208  CA        24.7720   14.2910   24.7340 C.3   124  HIS124      0.1787
    209  C         25.9580   14.3660   25.6880 C.2   124  HIS124      0.2620
    210  O         26.7460   13.4240   25.7630 O.2   124  HIS124     -0.2715
    211  CB        25.2610   14.4700   23.2930 C.3   124  HIS124      0.0785
    212  CG        24.2470   14.0840   22.2700 C.ar  124  HIS124      0.0821
    213  ND1       23.8150   12.7840   22.1190 N.ar  124  HIS124     -0.2267
    214  CD2       23.5850   14.8160   21.3430 C.ar  124  HIS124      0.1154
    215  CE1       22.9230   12.7360   21.1460 C.ar  124  HIS124      0.1986
    216  NE2       22.7680   13.9520   20.6560 N.ar  124  HIS124     -0.2212
    217  N         26.0890   15.4730   26.4160 N.am  125  LEU125     -0.1977
    218  CA        27.2360   15.6880   27.2850 C.3   125  LEU125      0.1596
    219  C         26.9910   15.1800   28.7070 C.2   125  LEU125      0.2287
    220  O         25.9070   15.3530   29.2570 O.2   125  LEU125     -0.2864
    221  CB        27.5680   17.1760   27.3440 C.3   125  LEU125      0.0297
    222  CG        28.4370   17.7360   26.2200 C.3   125  LEU125      0.0022
    223  CD1       27.8230   17.5090   24.8450 C.3   125  LEU125      0.0001
    224  CD2       28.6770   19.2170   26.4450 C.3   125  LEU125      0.0001
@<TRIPOS>BOND
     1    35    34    2
     2    36    34   am
     3    34    33    1
     4    29    30    1
     5    33    30    1
     6    30    31    1
     7    96    95    2
     8   100    98    1
     9    99    98    1
    10   138   137    2
    11    98    97    1
    12    97    94    1
    13    95    94    1
    14    31    37   am
    15    31    32    2
    16   137   136    1
    17    94    93    1
    18   135   136    1
    19    37    38    1
    20   136   139    1
    21    45    43   ar
    22    45    47   ar
    23    43    42   ar
    24    40    39    2
    25    93    91   am
    26    92    91    2
    27    38    39    1
    28    38    41    1
    29   139   141    1
    30   139   140    1
    31    48    47    1
    32    47    46   ar
    33    42    41    1
    34    42    44   ar
    35    39    49   am
    36    55    53    1
    37    91    90    1
    38   140   142    1
    39   132   131    2
    40   101   102    1
    41    20    19    2
    42   103   104    2
    43   103   102    1
    44    46    44   ar
    45   131   130    1
    46    49    50    1
    47    19    18    1
    48    53    50    1
    49    53    54    1
    50    86    85    2
    51    90    89    1
    52    50    51    1
    53    56    54    1
    54    88    87    1
    55    85    89   am
    56    85    84    1
    57   133   130    1
    58   133   134    1
    59   130   129    1
    60    18    21    1
    61    18    17    1
    62    87    84    1
    63    21    22    1
    64   117   118    1
    65   117   114    1
    66   116   115    2
    67    51    57   am
    68    51    52    2
    69    84    83    1
    70   129   123   am
    71   118   119   ar
    72   118   120   ar
    73    57    58    1
    74   143   144    1
    75   124   123    2
    76   113   114    1
    77   113   107   am
    78   105   106    1
    79    23    22   ar
    80    23    25   ar
    81    70    68   ar
    82   114   115    1
    83   115   121   am
    84   123   122    1
    85    22    24   ar
    86    60    59    2
    87   106   107    1
    88   106   109    1
    89    12    11    2
    90    83    81   am
    91   107   108    2
    92   150   148   am
    93   112   110    1
    94    67    68    1
    95    67    64    1
    96    68    69   ar
    97    11    10    1
    98   144   147    1
    99   144   145    1
   100    25    27   ar
   101   121   122    1
   102    58    59    1
   103    58    61    1
   104   147   148    1
   105   122   125    1
   106   110   109    1
   107    24    26   ar
   108    81    82    2
   109    81    80    1
   110   148   149    2
   111   109   111    1
   112    62    61    1
   113    66    65    2
   114    63    64    1
   115    64    65    1
   116   146   145    2
   117   145   151   am
   118    27    26   ar
   119    27    28    1
   120    10    13    1
   121    10     9    1
   122    65    71   am
   123   184   183    1
   124   125   127    1
   125   125   126    1
   126    80    79    1
   127    13    14    1
   128   126   128    1
   129    79    73   am
   130   151   152    1
   131   185   183    1
   132   183   182    2
   133   180   179    1
   134   180   181    1
   135    71    72    1
   136   179   176    1
   137    73    72    1
   138    73    74    2
   139   178   177    2
   140    14    15    1
   141    14    16    1
   142    72    75    1
   143   182   181    1
   144   152   153    1
   145   152   155    1
   146     4     3    2
   147     3     2    1
   148   176   175    1
   149   176   177    1
   150   153   154    2
   151   153   159   am
   152   177   186   am
   153   155   156    1
   154   193   191   ar
   155   159   160    1
   156   189   188    2
   157   216   215   ar
   158   216   214   ar
   159   166   164    1
   160   190   191    1
   161   190   187    1
   162   198   195    1
   163    75    76    1
   164    75    77    1
   165   215   213   ar
   166    76    78    1
   167   160   163    1
   168   160   161    1
   169   191   192   ar
   170   188   187    1
   171   188   194   am
   172   214   212   ar
   173   186   187    1
   174   163   164    1
   175   163   165    1
   176     2     1    1
   177     2     5    1
   178   195   194    1
   179   195   196    1
   180   156   157   ar
   181   156   158   ar
   182   213   212   ar
   183     5     6    1
   184   212   211    1
   185   161   162    2
   186   161   167   am
   187   196   197    2
   188   167   168    1
   189   211   208    1
   190   205   204    1
   191     6     7   ar
   192     6     8   ar
   193   206   204    1
   194   169   168    1
   195   169   170    2
   196   204   203    1
   197   168   171    1
   198   208   207    1
   199   208   209    1
   200   223   222    1
   201   207   201   am
   202   171   172    1
   203   172   173    1
   204   172   174    1
   205   199   200    1
   206   209   210    2
   207   209   217   am
   208   203   200    1
   209   201   200    1
   210   201   202    2
   211   222   224    1
   212   222   221    1
   213   217   218    1
   214   218   221    1
   215   218   219    1
   216   219   220    2
