@<TRIPOS>MOLECULE
tmp/3ujaA00.pdb
 160 157 0 0 0
SMALL
GASTEIGER

@<TRIPOS>ATOM
      1  N         23.1120    5.5680   16.4670 N.3     9  GLN9       -0.1231
      2  CA        22.0130    6.5150   16.3290 C.3     9  GLN9        0.1698
      3  C         22.1210    7.3800   15.0690 C.2     9  GLN9        0.2592
      4  O         21.1080    7.7090   14.4510 O.2     9  GLN9       -0.2718
      5  CB        21.8900    7.3930   17.5840 C.3     9  GLN9        0.0381
      6  CG        20.7310    8.3830   17.5150 C.3     9  GLN9        0.0905
      7  CD        20.4870    9.0700   18.8350 C.2     9  GLN9        0.2608
      8  OE1       21.3550    9.0650   19.7070 O.2     9  GLN9       -0.2717
      9  NE2       19.3110    9.6680   18.9910 N.am    9  GLN9       -0.0878
     10  N         23.3420    7.7470   14.6930 N.am   10  TYR10      -0.1976
     11  CA        23.5300    8.6780   13.5870 C.3    10  TYR10       0.1639
     12  C         24.3300    8.0970   12.4260 C.2    10  TYR10       0.2290
     13  O         25.2120    8.7560   11.8680 O.2    10  TYR10      -0.2864
     14  CB        24.1550    9.9910   14.0880 C.3    10  TYR10       0.0560
     15  CG        23.3200   10.7060   15.1370 C.ar   10  TYR10      -0.0198
     16  CD1       22.1030   11.2980   14.8100 C.ar   10  TYR10      -0.0009
     17  CD2       23.7470   10.7710   16.4510 C.ar   10  TYR10      -0.0009
     18  CE1       21.3340   11.9360   15.7810 C.ar   10  TYR10       0.0417
     19  CE2       22.9940   11.4070   17.4180 C.ar   10  TYR10       0.0417
     20  CZ        21.7940   11.9900   17.0760 C.ar   10  TYR10       0.1957
     21  OH        21.0470   12.6280   18.0480 O.3    10  TYR10      -0.2866
     22  N         15.6080   10.4270   10.6050 N.3    18  TYR18      -0.1241
     23  CA        15.2850   11.5430   11.4660 C.3    18  TYR18       0.1605
     24  C         14.8710   12.7660   10.6340 C.2    18  TYR18       0.2264
     25  O         13.9200   13.4740   10.9790 O.2    18  TYR18      -0.2867
     26  CB        16.4890   11.8550   12.3650 C.3    18  TYR18       0.0534
     27  CG        16.6000   11.0040   13.6330 C.ar   18  TYR18      -0.0201
     28  CD1       15.4760   10.6820   14.3950 C.ar   18  TYR18      -0.0009
     29  CD2       17.8420   10.5640   14.0860 C.ar   18  TYR18      -0.0009
     30  CE1       15.5930    9.9310   15.5680 C.ar   18  TYR18       0.0417
     31  CE2       17.9630    9.8290   15.2510 C.ar   18  TYR18       0.0417
     32  CZ        16.8370    9.5170   15.9860 C.ar   18  TYR18       0.1957
     33  OH        16.9590    8.7890   17.1530 O.3    18  TYR18      -0.2866
     34  N         11.5320   15.0040   11.2050 N.3    22  PHE22      -0.1241
     35  CA        11.7460   16.3500   11.7540 C.3    22  PHE22       0.1605
     36  C         11.5830   17.4690   10.7230 C.2    22  PHE22       0.2264
     37  O         11.1640   18.5750   11.0730 O.2    22  PHE22      -0.2867
     38  CB        13.1230   16.4600   12.4220 C.3    22  PHE22       0.0534
     39  CG        13.2330   15.7230   13.7270 C.ar   22  PHE22      -0.0203
     40  CD1       12.3200   15.9460   14.7480 C.ar   22  PHE22      -0.0042
     41  CD2       14.2530   14.8070   13.9310 C.ar   22  PHE22      -0.0042
     42  CE1       12.4340   15.2630   15.9570 C.ar   22  PHE22      -0.0003
     43  CE2       14.3740   14.1280   15.1320 C.ar   22  PHE22      -0.0003
     44  CZ        13.4650   14.3630   16.1500 C.ar   22  PHE22      -0.0000
     45  N         17.5360   17.4310   12.4060 N.3    27  ILE27      -0.1231
     46  CA        17.4820   16.1770   13.1480 C.3    27  ILE27       0.1692
     47  C         17.1210   16.4310   14.6110 C.2    27  ILE27       0.2593
     48  O         17.3230   15.5650   15.4700 O.2    27  ILE27      -0.2718
     49  CB        18.7930   15.3590   13.0340 C.3    27  ILE27       0.0266
     50  CG1       19.9860   16.1520   13.5610 C.3    27  ILE27       0.0019
     51  CG2       19.0330   14.9270   11.5990 C.3    27  ILE27       0.0020
     52  CD1       21.2920   15.3620   13.4940 C.3    27  ILE27       0.0001
     53  N         16.5790   17.6210   14.8720 N.am   28  SER28      -0.1938
     54  CA        16.1940   18.0670   16.2140 C.3    28  SER28       0.2055
     55  C         14.6780   18.2910   16.3140 C.2    28  SER28       0.2643
     56  O         14.0350   18.6480   15.3270 O.2    28  SER28      -0.2714
     57  CB        16.9440   19.3670   16.5780 C.3    28  SER28       0.2130
     58  OG        16.7700   20.3790   15.5960 O.3    28  SER28      -0.2179
     59  N         14.1220   18.0940   17.5090 N.am   29  SER29      -0.1949
     60  CA        12.6940   18.3020   17.7940 C.3    29  SER29       0.1924
     61  C         12.0900   19.5380   17.1460 C.2    29  SER29       0.2314
     62  O         12.5860   20.6510   17.3290 O.2    29  SER29      -0.2863
     63  CB        12.4710   18.4680   19.3000 C.3    29  SER29       0.2116
     64  OG        13.1630   17.4950   20.0540 O.3    29  SER29      -0.2180
     65  N         19.1340   20.0720   21.4530 N.3   119  ASP119     -0.1239
     66  CA        18.9940   18.6330   21.6930 C.3   119  ASP119      0.1674
     67  C         20.2720   17.8770   21.3700 C.2   119  ASP119      0.2266
     68  O         20.2420   16.8360   20.6990 O.2   119  ASP119     -0.2867
     69  CB        17.8250   18.0690   20.8830 C.3   119  ASP119      0.1410
     70  CG        16.5070   18.7270   21.2200 C.2   119  ASP119      0.3668
     71  OD1       16.4290   19.4890   22.2150 O.co2 119  ASP119     -0.2456
     72  OD2       15.5400   18.4780   20.4740 O.co2 119  ASP119     -0.2456
     73  N         22.5390   16.3150   25.6900 N.3   122  LEU122     -0.1231
     74  CA        22.1300   15.0590   26.3230 C.3   122  LEU122      0.1693
     75  C         23.1500   13.9270   26.1290 C.2   122  LEU122      0.2592
     76  O         23.1380   12.9410   26.8680 O.2   122  LEU122     -0.2718
     77  CB        20.7630   14.6150   25.7870 C.3   122  LEU122      0.0284
     78  CG        20.6290   14.0610   24.3670 C.3   122  LEU122      0.0019
     79  CD1       19.2090   13.5780   24.1370 C.3   122  LEU122      0.0001
     80  CD2       21.0150   15.0820   23.2900 C.3   122  LEU122      0.0001
     81  N         23.9990   14.0420   25.1070 N.am  123  HIS123     -0.1976
     82  CA        25.0060   13.0200   24.8440 C.3   123  HIS123      0.1656
     83  C         26.1780   13.0890   25.8290 C.2   123  HIS123      0.2291
     84  O         26.9350   12.1220   25.9750 O.2   123  HIS123     -0.2864
     85  CB        25.5310   13.1260   23.4010 C.3   123  HIS123      0.0771
     86  CG        24.5070   12.8130   22.3590 C.ar  123  HIS123      0.0820
     87  ND1       24.0130   11.5430   22.1660 N.ar  123  HIS123     -0.2267
     88  CD2       23.8870   13.6050   21.4490 C.ar  123  HIS123      0.1154
     89  CE1       23.1280   11.5640   21.1800 C.ar  123  HIS123      0.1986
     90  NE2       23.0340   12.8010   20.7330 N.ar  123  HIS123     -0.2212
     91  N         16.9960   17.4670   25.9500 N.3   151  TYR151     -0.1241
     92  CA        16.1820   16.4480   26.5740 C.3   151  TYR151      0.1605
     93  C         16.5130   16.4150   28.0490 C.2   151  TYR151      0.2264
     94  O         17.6870   16.3820   28.4270 O.2   151  TYR151     -0.2867
     95  CB        16.4970   15.0700   25.9760 C.3   151  TYR151      0.0534
     96  CG        15.9100   14.7860   24.6060 C.ar  151  TYR151     -0.0201
     97  CD1       15.3860   15.7970   23.8060 C.ar  151  TYR151     -0.0009
     98  CD2       15.8770   13.4820   24.1210 C.ar  151  TYR151     -0.0009
     99  CE1       14.8510   15.5060   22.5590 C.ar  151  TYR151      0.0417
    100  CE2       15.3520   13.1860   22.8780 C.ar  151  TYR151      0.0417
    101  CZ        14.8370   14.2000   22.1060 C.ar  151  TYR151      0.1957
    102  OH        14.3110   13.9000   20.8660 O.3   151  TYR151     -0.2866
    103  N         15.5640    2.9380   27.3480 N.3   166  TYR166     -0.1241
    104  CA        15.7680    3.9670   26.3260 C.3   166  TYR166      0.1605
    105  C         17.0140    4.7870   26.6340 C.2   166  TYR166      0.2264
    106  O         17.8850    4.9390   25.7860 O.2   166  TYR166     -0.2867
    107  CB        14.5310    4.8670   26.2750 C.3   166  TYR166      0.0534
    108  CG        14.6590    6.1890   25.5470 C.ar  166  TYR166     -0.0201
    109  CD1       14.6840    6.2510   24.1520 C.ar  166  TYR166     -0.0009
    110  CD2       14.6930    7.3840   26.2570 C.ar  166  TYR166     -0.0009
    111  CE1       14.7740    7.4670   23.4920 C.ar  166  TYR166      0.0417
    112  CE2       14.7730    8.5980   25.6090 C.ar  166  TYR166      0.0417
    113  CZ        14.8130    8.6340   24.2270 C.ar  166  TYR166      0.1957
    114  OH        14.8820    9.8700   23.6210 O.3   166  TYR166     -0.2866
    115  N         20.5250    4.6490   24.3930 N.3   170  ARG170     -0.1245
    116  CA        20.9580    5.8790   23.7420 C.3   170  ARG170      0.1563
    117  C         22.2670    6.4050   24.3230 C.2   170  ARG170      0.2260
    118  O         22.9310    7.2340   23.7010 O.2   170  ARG170     -0.2867
    119  CB        19.8750    6.9470   23.9050 C.3   170  ARG170      0.0307
    120  CG        18.5910    6.7110   23.1070 C.3   170  ARG170      0.0489
    121  CD        18.7960    7.0250   21.6370 C.3   170  ARG170      0.2205
    122  NE        17.5310    7.2510   20.9410 N.pl3 170  ARG170     -0.0865
    123  CZ        16.7560    6.2930   20.4330 C.cat 170  ARG170      0.5346
    124  NH1       17.1050    5.0070   20.5080 N.pl3 170  ARG170      0.1354
    125  NH2       15.6240    6.6340   19.8330 N.pl3 170  ARG170      0.1354
    126  N         22.3380    8.3670   26.8330 N.3   172  TYR172     -0.1241
    127  CA        22.0570    9.7290   27.2510 C.3   172  TYR172      0.1605
    128  C         22.3530    9.8970   28.7300 C.2   172  TYR172      0.2264
    129  O         22.2560    8.9480   29.5050 O.2   172  TYR172     -0.2867
    130  CB        20.5730   10.0310   27.0600 C.3   172  TYR172      0.0534
    131  CG        20.0650   10.1600   25.6390 C.ar  172  TYR172     -0.0201
    132  CD1       20.9210   10.4270   24.5780 C.ar  172  TYR172     -0.0009
    133  CD2       18.7080   10.0310   25.3730 C.ar  172  TYR172     -0.0009
    134  CE1       20.4220   10.5680   23.2910 C.ar  172  TYR172      0.0417
    135  CE2       18.2060   10.1760   24.1050 C.ar  172  TYR172      0.0417
    136  CZ        19.0670   10.4500   23.0710 C.ar  172  TYR172      0.1957
    137  OH        18.5380   10.5990   21.8060 O.3   172  TYR172     -0.2866
    138  N          8.2780    7.4480   18.7230 N.3   235  TRP235     -0.1241
    139  CA         7.5160    8.6760   18.9000 C.3   235  TRP235      0.1605
    140  C          6.3540    8.4300   19.8510 C.2   235  TRP235      0.2264
    141  O          6.0410    9.2840   20.6800 O.2   235  TRP235     -0.2867
    142  CB         7.0330    9.2470   17.5550 C.3   235  TRP235      0.0550
    143  CG         7.8150   10.4460   17.1030 C.ar  235  TRP235      0.0003
    144  CD1        7.3410   11.7170   16.9340 C.ar  235  TRP235      0.0946
    145  CD2        9.2160   10.4920   16.7750 C.ar  235  TRP235      0.0152
    146  NE1        8.3540   12.5480   16.5220 N.ar  235  TRP235     -0.2442
    147  CE2        9.5120   11.8240   16.4180 C.ar  235  TRP235      0.0810
    148  CE3       10.2440    9.5380   16.7610 C.ar  235  TRP235      0.0012
    149  CZ2       10.7940   12.2290   16.0420 C.ar  235  TRP235      0.0191
    150  CZ3       11.5230    9.9450   16.3790 C.ar  235  TRP235      0.0001
    151  CH2       11.7800   11.2790   16.0230 C.ar  235  TRP235      0.0015
    152  N          7.6790    8.6850   23.3630 N.3   238  LYS238     -0.1245
    153  CA         7.9890   10.0630   23.7490 C.3   238  LYS238      0.1561
    154  C          6.7190   10.8660   24.0040 C.2   238  LYS238      0.2260
    155  O          6.6890   11.7310   24.8680 O.2   238  LYS238     -0.2867
    156  CB         8.8540   10.7630   22.6980 C.3   238  LYS238      0.0271
    157  CG        10.2950   10.2760   22.6710 C.3   238  LYS238      0.0035
    158  CD        11.1420   11.0750   21.6740 C.3   238  LYS238      0.0206
    159  CE        10.7820   10.7460   20.2310 C.3   238  LYS238      0.1093
    160  NZ        11.6950   11.4680   19.3000 N.3   238  LYS238     -0.1314
@<TRIPOS>BOND
     1    22    23    1
     2    24    25    2
     3    24    23    1
     4    36    37    2
     5    36    35    1
     6    34    35    1
     7    23    26    1
     8    51    49    1
     9    35    38    1
    10    13    12    2
    11    26    27    1
    12    45    46    1
    13    38    39    1
    14    12    11    1
    15    49    46    1
    16    49    50    1
    17    46    47    1
    18    52    50    1
    19    11    14    1
    20    11    10    1
    21    27    29   ar
    22    27    28   ar
    23    39    41   ar
    24    39    40   ar
    25    41    43   ar
    26    29    31   ar
    27    14    15    1
    28    28    30   ar
    29     4     3    2
    30    47    53   am
    31    47    48    2
    32    10     3   am
    33    40    42   ar
    34    16    15   ar
    35    16    18   ar
    36    53    54    1
    37     3     2    1
    38    43    44   ar
    39    15    17   ar
    40    31    32   ar
    41    56    55    2
    42    30    32   ar
    43    58    57    1
    44    18    20   ar
    45    42    44   ar
    46    32    33    1
    47   151   149   ar
    48   151   150   ar
    49   149   147   ar
    50    54    55    1
    51    54    57    1
    52    55    59   am
    53     2     1    1
    54     2     5    1
    55   150   148   ar
    56   147   146   ar
    57   147   145   ar
    58    17    19   ar
    59   146   144   ar
    60   148   145   ar
    61   145   143   ar
    62   144   143   ar
    63    20    19   ar
    64    20    21    1
    65   143   142    1
    66    61    62    2
    67    61    60    1
    68    59    60    1
    69     6     5    1
    70     6     7    1
    71   142   139    1
    72    60    63    1
    73   138   139    1
    74     7     9   am
    75     7     8    2
    76   139   140    1
    77   160   159    1
    78    63    64    1
    79   125   123    1
    80   140   141    2
    81   159   158    1
    82   123   124    1
    83   123   122    2
    84    72    70   ar
    85    68    67    2
    86    90    89   ar
    87    90    88   ar
    88   102   101    1
    89    69    70    1
    90    69    66    1
    91   122   121    1
    92    89    87   ar
    93    70    71   ar
    94    67    66    1
    95    88    86   ar
    96    65    66    1
    97   121   120    1
    98   158   157    1
    99   137   136    1
   100   101    99   ar
   101   101   100   ar
   102    87    86   ar
   103    86    85    1
   104    99    97   ar
   105   157   156    1
   106   156   153    1
   107   100    98   ar
   108   136   134   ar
   109   136   135   ar
   110   120   119    1
   111    80    78    1
   112   134   132   ar
   113   152   153    1
   114    85    82    1
   115   111   109   ar
   116   111   113   ar
   117   114   113    1
   118   118   117    2
   119   116   119    1
   120   116   117    1
   121   116   115    1
   122   153   154    1
   123    97    96   ar
   124   154   155    2
   125   135   133   ar
   126    98    96   ar
   127    79    78    1
   128   109   108   ar
   129   113   112   ar
   130    78    77    1
   131   132   131   ar
   132    96    95    1
   133    82    81    1
   134    82    83    1
   135    81    75   am
   136   133   131   ar
   137   108   110   ar
   138   108   107    1
   139   112   110   ar
   140   131   130    1
   141    73    74    1
   142   106   105    2
   143    77    74    1
   144    83    84    2
   145    91    92    1
   146    95    92    1
   147    75    74    1
   148    75    76    2
   149   107   104    1
   150   104   105    1
   151   104   103    1
   152    92    93    1
   153   126   127    1
   154   130   127    1
   155   127   128    1
   156    93    94    2
   157   128   129    2
