@<TRIPOS>MOLECULE
tmp/3ujhA00.pdb
 139 129 0 0 0
SMALL
GASTEIGER

@<TRIPOS>ATOM
      1  N         60.7960   55.0690   26.3220 N.3   159  ILE159     -0.1231
      2  CA        61.6390   54.8420   25.1630 C.3   159  ILE159      0.1692
      3  C         61.6040   56.0450   24.1930 C.2   159  ILE159      0.2593
      4  O         60.6710   56.8880   24.2040 O.2   159  ILE159     -0.2718
      5  CB        61.2420   53.5170   24.4900 C.3   159  ILE159      0.0266
      6  CG1       62.3790   52.9440   23.6170 C.3   159  ILE159      0.0019
      7  CG2       59.8700   53.6520   23.7780 C.3   159  ILE159      0.0020
      8  CD1       62.1800   51.4470   23.3010 C.3   159  ILE159      0.0001
      9  N         62.6560   56.1560   23.3770 N.am  160  GLY160     -0.1942
     10  CA        62.7220   57.2390   22.4010 C.3   160  GLY160      0.2014
     11  C         62.6690   58.6250   23.0410 C.2   160  GLY160      0.2639
     12  O         63.4790   58.9410   23.9250 O.2   160  GLY160     -0.2714
     13  N         61.7250   59.4500   22.5860 N.am  161  GLY161     -0.1939
     14  CA        61.5480   60.7810   23.1040 C.3   161  GLY161      0.2014
     15  C         61.2120   60.8350   24.6010 C.2   161  GLY161      0.2639
     16  O         61.4340   61.8670   25.2530 O.2   161  GLY161     -0.2714
     17  N         60.6980   59.7260   25.1400 N.am  162  SER162     -0.1949
     18  CA        60.3600   59.6450   26.5520 C.3   162  SER162      0.1924
     19  C         61.5830   59.3840   27.4690 C.2   162  SER162      0.2314
     20  O         61.4420   59.3370   28.7020 O.2   162  SER162     -0.2863
     21  CB        59.2420   58.6200   26.7360 C.3   162  SER162      0.2116
     22  OG        58.0060   59.1380   26.2370 O.3   162  SER162     -0.2180
     23  N         56.4490   56.7040   31.5840 N.3   216  ILE216     -0.1231
     24  CA        56.4370   57.8480   30.6990 C.3   216  ILE216      0.1692
     25  C         56.1320   57.4160   29.2990 C.2   216  ILE216      0.2593
     26  O         56.9700   56.7530   28.6570 O.2   216  ILE216     -0.2718
     27  CB        57.7970   58.5940   30.6930 C.3   216  ILE216      0.0266
     28  CG1       58.2020   58.9960   32.1030 C.3   216  ILE216      0.0019
     29  CG2       57.6810   59.8540   29.8460 C.3   216  ILE216      0.0020
     30  CD1       59.3910   59.9560   32.1430 C.3   216  ILE216      0.0001
     31  N         54.9340   57.7960   28.8370 N.am  217  SER217     -0.1938
     32  CA        54.4850   57.5170   27.4760 C.3   217  SER217      0.2055
     33  C         53.3100   58.4220   27.0880 C.2   217  SER217      0.2643
     34  O         52.2670   58.4900   27.7780 O.2   217  SER217     -0.2714
     35  CB        54.0730   56.0570   27.3330 C.3   217  SER217      0.2130
     36  OG        53.3100   55.8060   26.1480 O.3   217  SER217     -0.2179
     37  N         53.4920   59.0740   25.9390 N.am  218  LYS218     -0.1963
     38  CA        52.5790   60.0600   25.4300 C.3   218  LYS218      0.1728
     39  C         51.2340   59.4220   25.2790 C.2   218  LYS218      0.2616
     40  O         50.2130   59.9640   25.7620 O.2   218  LYS218     -0.2715
     41  CB        53.1120   60.6320   24.0880 C.3   218  LYS218      0.0311
     42  CG        52.2950   61.7790   23.5240 C.3   218  LYS218      0.0038
     43  CD        53.0050   62.5410   22.4000 C.3   218  LYS218      0.0206
     44  CE        52.2080   63.7500   21.9500 C.3   218  LYS218      0.1093
     45  NZ        52.8180   64.4720   20.7950 N.3   218  LYS218     -0.1314
     46  N         51.2260   58.2620   24.6260 N.am  219  THR219     -0.1951
     47  CA        49.9850   57.5790   24.2970 C.3   219  THR219      0.1897
     48  C         49.5230   56.6810   25.4130 C.2   219  THR219      0.2313
     49  O         48.3520   56.3030   25.5000 O.2   219  THR219     -0.2863
     50  CB        50.1680   56.6800   23.0660 C.3   219  THR219      0.1794
     51  OG1       51.3660   55.9050   23.2310 O.3   219  THR219     -0.2208
     52  CG2       50.2430   57.5120   21.7650 C.3   219  THR219      0.0378
     53  N         52.5420   52.6120   24.2090 N.3   222  THR222     -0.1218
     54  CA        53.7510   52.1320   23.5170 C.3   222  THR222      0.1862
     55  C         54.0610   50.7080   24.0040 C.2   222  THR222      0.2287
     56  O         54.1170   50.4660   25.2010 O.2   222  THR222     -0.2866
     57  CB        54.9020   53.0320   23.8350 C.3   222  THR222      0.1770
     58  OG1       54.5370   54.3430   23.4090 O.3   222  THR222     -0.2211
     59  CG2       56.1790   52.5420   23.2000 C.3   222  THR222      0.0375
     60  N         57.0770   50.1490   26.5400 N.3   225  THR225     -0.1218
     61  CA        56.9410   50.8620   27.7880 C.3   225  THR225      0.1862
     62  C         55.9210   50.2130   28.6650 C.2   225  THR225      0.2287
     63  O         56.1760   50.0310   29.8500 O.2   225  THR225     -0.2866
     64  CB        56.6560   52.3570   27.5270 C.3   225  THR225      0.1770
     65  OG1       57.7910   52.8870   26.8190 O.3   225  THR225     -0.2211
     66  CG2       56.4510   53.1410   28.8410 C.3   225  THR225      0.0375
     67  N         50.9870   65.9910   29.9050 N.3   274  PHE274     -0.1241
     68  CA        51.4610   66.8620   28.8410 C.3   274  PHE274      0.1605
     69  C         50.4720   66.8650   27.6760 C.2   274  PHE274      0.2264
     70  O         49.3770   66.4370   27.8950 O.2   274  PHE274     -0.2867
     71  CB        52.9670   66.6440   28.4850 C.3   274  PHE274      0.0534
     72  CG        53.3450   65.3310   27.7970 C.ar  274  PHE274     -0.0203
     73  CD1       53.4020   64.1360   28.4900 C.ar  274  PHE274     -0.0042
     74  CD2       53.8410   65.3440   26.5070 C.ar  274  PHE274     -0.0042
     75  CE1       53.8240   62.9410   27.8700 C.ar  274  PHE274     -0.0003
     76  CE2       54.2440   64.1550   25.8750 C.ar  274  PHE274     -0.0003
     77  CZ        54.2650   62.9510   26.5680 C.ar  274  PHE274     -0.0000
     78  N         55.8180   67.0780   20.7580 N.3   279  GLY279     -0.1210
     79  CA        56.4090   65.8860   20.1170 C.3   279  GLY279      0.1956
     80  C         57.3600   65.1910   21.0680 C.2   279  GLY279      0.2612
     81  O         58.0630   65.8590   21.8530 O.2   279  GLY279     -0.2717
     82  N         57.4370   63.8600   20.9700 N.am  280  GLY280     -0.1942
     83  CA        58.3040   63.0910   21.8530 C.3   280  GLY280      0.2014
     84  C         59.7160   63.6310   21.8580 C.2   280  GLY280      0.2638
     85  O         60.3380   63.8850   22.9160 O.2   280  GLY280     -0.2714
     86  N         60.2370   63.8430   20.6450 N.am  281  ARG281     -0.1977
     87  CA        61.6210   64.2630   20.5040 C.3   281  ARG281      0.1597
     88  C         61.8150   65.7400   20.8890 C.2   281  ARG281      0.2287
     89  O         62.9230   66.2400   20.8200 O.2   281  ARG281     -0.2864
     90  CB        62.1320   63.9760   19.0810 C.3   281  ARG281      0.0334
     91  CG        61.3080   64.6190   17.9650 C.3   281  ARG281      0.0492
     92  CD        61.7380   64.0580   16.6220 C.3   281  ARG281      0.2205
     93  NE        60.9040   64.4870   15.5190 N.pl3 281  ARG281     -0.0865
     94  CZ        59.7720   63.9040   15.1650 C.cat 281  ARG281      0.5346
     95  NH1       59.2850   62.8760   15.8460 N.pl3 281  ARG281      0.1354
     96  NH2       59.0830   64.4000   14.1540 N.pl3 281  ARG281      0.1354
     97  N         68.0400   61.4150   17.3480 N.3   363  GLN363     -0.1245
     98  CA        66.5840   61.3130   17.1710 C.3   363  GLN363      0.1566
     99  C         65.9620   62.6210   16.6620 C.2   363  GLN363      0.2260
    100  O         65.1580   62.6390   15.7220 O.2   363  GLN363     -0.2867
    101  CB        65.8640   60.9060   18.4830 C.3   363  GLN363      0.0367
    102  CG        64.3500   61.0110   18.3760 C.3   363  GLN363      0.0905
    103  CD        63.5760   60.4450   19.5610 C.2   363  GLN363      0.2608
    104  OE1       64.1460   60.2040   20.6230 O.2   363  GLN363     -0.2717
    105  NE2       62.2690   60.2530   19.3910 N.am  363  GLN363     -0.0878
    106  N         64.5750   61.7910   13.0970 N.3   367  GLU367     -0.1245
    107  CA        63.1640   61.4950   13.1220 C.3   367  GLU367      0.1567
    108  C         62.3430   62.7090   12.6740 C.2   367  GLU367      0.2260
    109  O         61.2690   62.5340   12.1270 O.2   367  GLU367     -0.2867
    110  CB        62.7330   61.0240   14.5050 C.3   367  GLU367      0.0388
    111  CG        61.3830   60.3270   14.5320 C.3   367  GLU367      0.1160
    112  CD        61.0570   59.7740   15.9030 C.2   367  GLU367      0.3649
    113  OE1       61.0310   58.4980   16.0350 O.co2 367  GLU367     -0.2457
    114  OE2       60.8450   60.6090   16.8250 O.co2 367  GLU367     -0.2457
    115  N         55.8080   61.5550   12.4820 N.3   516  GLN516     -0.1245
    116  CA        56.7300   60.4180   12.2720 C.3   516  GLN516      0.1566
    117  C         55.9810   59.1470   11.8260 C.2   516  GLN516      0.2260
    118  O         55.9430   58.1450   12.5110 O.2   516  GLN516     -0.2867
    119  CB        57.6020   60.1760   13.5120 C.3   516  GLN516      0.0367
    120  CG        56.8180   59.9640   14.7960 C.3   516  GLN516      0.0905
    121  CD        56.0520   61.1900   15.2510 C.2   516  GLN516      0.2608
    122  OE1       56.6120   62.3000   15.3690 O.2   516  GLN516     -0.2717
    123  NE2       54.7710   61.0040   15.5330 N.am  516  GLN516     -0.0878
    124  N         57.4380   55.1840   11.4510 N.3   519  VAL519     -0.1245
    125  CA        57.6630   54.1620   12.5100 C.3   519  VAL519      0.1561
    126  C         56.5230   53.1590   12.6120 C.2   519  VAL519      0.2260
    127  O         56.6260   52.1560   13.3050 O.2   519  VAL519     -0.2867
    128  CB        57.8860   54.7770   13.9060 C.3   519  VAL519      0.0252
    129  CG1       59.0850   55.7320   13.8740 C.3   519  VAL519      0.0019
    130  CG2       56.5880   55.4340   14.4030 C.3   519  VAL519      0.0019
    131  N         55.8450   48.6270   13.6160 N.3   523  LYS523     -0.1245
    132  CA        55.0310   48.2940   14.7920 C.3   523  LYS523      0.1561
    133  C         53.9700   47.3130   14.3740 C.2   523  LYS523      0.2260
    134  O         53.7580   46.3120   15.0550 O.2   523  LYS523     -0.2867
    135  CB        54.3870   49.5340   15.4150 C.3   523  LYS523      0.0271
    136  CG        55.4070   50.4990   16.0190 C.3   523  LYS523      0.0035
    137  CD        54.7310   51.6890   16.6960 C.3   523  LYS523      0.0206
    138  CE        55.7700   52.7150   17.1620 C.3   523  LYS523      0.1093
    139  NZ        55.1040   53.9970   17.5140 N.3   523  LYS523     -0.1314
@<TRIPOS>BOND
     1   124   125    1
     2   117   116    1
     3   117   118    2
     4   109   108    2
     5   116   115    1
     6   116   119    1
     7   125   126    1
     8   125   128    1
     9   126   127    2
    10   108   107    1
    11   106   107    1
    12   107   110    1
    13   119   120    1
    14   131   132    1
    15   129   128    1
    16   128   130    1
    17    96    94    1
    18   133   132    1
    19   133   134    2
    20   110   111    1
    21   111   112    1
    22   132   135    1
    23   120   121    1
    24    94    93    2
    25    94    95    1
    26   121   122    2
    27   121   123   am
    28   135   136    1
    29    93    92    1
    30   100    99    2
    31   112   113   ar
    32   112   114   ar
    33   136   137    1
    34    92    91    1
    35    99    98    1
    36   137   138    1
    37   138   139    1
    38    98    97    1
    39    98   101    1
    40    91    90    1
    41   102   101    1
    42   102   103    1
    43    90    87    1
    44   105   103   am
    45   103   104    2
    46    79    78    1
    47    79    80    1
    48    87    86    1
    49    87    88    1
    50    86    84   am
    51    45    44    1
    52    89    88    2
    53    82    80   am
    54    82    83    1
    55    80    81    2
    56    52    50    1
    57    83    84    1
    58    84    85    2
    59    44    43    1
    60    43    42    1
    61    10    11    1
    62    10     9    1
    63    13    11   am
    64    13    14    1
    65    11    12    2
    66    50    51    1
    67    50    47    1
    68    14    15    1
    69    59    57    1
    70     8     6    1
    71     9     3   am
    72    58    57    1
    73    54    57    1
    74    54    55    1
    75    54    53    1
    76    42    41    1
    77     6     5    1
    78     7     5    1
    79    55    56    2
    80    41    38    1
    81     3     4    2
    82     3     2    1
    83    47    46    1
    84    47    48    1
    85     5     2    1
    86    15    17   am
    87    15    16    2
    88    46    39   am
    89    17    18    1
    90     2     1    1
    91    39    38    1
    92    39    40    2
    93    48    49    2
    94    38    37    1
    95    76    74   ar
    96    76    77   ar
    97    37    33   am
    98    36    35    1
    99    22    21    1
   100    74    72   ar
   101    60    61    1
   102    18    21    1
   103    18    19    1
   104    77    75   ar
   105    65    64    1
   106    33    32    1
   107    33    34    2
   108    35    32    1
   109    19    20    2
   110    32    31    1
   111    64    61    1
   112    64    66    1
   113    69    70    2
   114    69    68    1
   115    61    62    1
   116    72    71    1
   117    72    73   ar
   118    75    73   ar
   119    71    68    1
   120    26    25    2
   121    62    63    2
   122    31    25   am
   123    68    67    1
   124    25    24    1
   125    29    27    1
   126    27    24    1
   127    27    28    1
   128    24    23    1
   129    28    30    1
