@<TRIPOS>MOLECULE
tmp/3ujmA00.pdb
 100 99 0 0 0
SMALL
GASTEIGER

@<TRIPOS>ATOM
      1  N         26.7460  -14.5960    0.9700 N.3     3  VAL3       -0.1245
      2  CA        25.9180  -14.7040    2.1690 C.3     3  VAL3        0.1561
      3  C         24.5980  -13.9520    2.0190 C.2     3  VAL3        0.2260
      4  O         23.5410  -14.4440    2.4220 O.2     3  VAL3       -0.2867
      5  CB        26.6650  -14.1740    3.4080 C.3     3  VAL3        0.0252
      6  CG1       25.7720  -14.2230    4.6410 C.3     3  VAL3        0.0019
      7  CG2       27.9460  -14.9640    3.6370 C.3     3  VAL3        0.0019
      8  N         22.0890  -15.8060   -0.0160 N.3     6  GLU6       -0.1231
      9  CA        21.5320  -16.9360    0.7190 C.3     6  GLU6        0.1699
     10  C         20.5050  -16.4620    1.7420 C.2     6  GLU6        0.2592
     11  O         19.4650  -17.0930    1.9310 O.2     6  GLU6       -0.2718
     12  CB        22.6340  -17.7390    1.4200 C.3     6  GLU6        0.0402
     13  CG        23.9080  -17.9490    0.6070 C.3     6  GLU6        0.1161
     14  CD        23.7000  -18.7760   -0.6510 C.2     6  GLU6        0.3649
     15  OE1       22.6480  -19.4400   -0.7700 O.co2   6  GLU6       -0.2457
     16  OE2       24.5960  -18.7630   -1.5220 O.co2   6  GLU6       -0.2457
     17  N         20.8010  -15.3440    2.3970 N.am    7  PHE7       -0.1976
     18  CA        19.9120  -14.7950    3.4180 C.3     7  PHE7        0.1639
     19  C         18.5540  -14.3760    2.8630 C.2     7  PHE7        0.2290
     20  O         17.5250  -14.5790    3.5080 O.2     7  PHE7       -0.2864
     21  CB        20.5650  -13.6070    4.1220 C.3     7  PHE7        0.0560
     22  CG        19.5860  -12.7250    4.8400 C.ar    7  PHE7       -0.0200
     23  CD1       19.0280  -13.1220    6.0420 C.ar    7  PHE7       -0.0042
     24  CD2       19.2190  -11.4990    4.3070 C.ar    7  PHE7       -0.0042
     25  CE1       18.1260  -12.3130    6.7020 C.ar    7  PHE7       -0.0003
     26  CE2       18.3170  -10.6860    4.9620 C.ar    7  PHE7       -0.0003
     27  CZ        17.7690  -11.0930    6.1600 C.ar    7  PHE7       -0.0000
     28  N         16.3920  -17.2030    2.5920 N.3    10  GLN10      -0.1245
     29  CA        15.9550  -17.5780    3.9310 C.3    10  GLN10       0.1566
     30  C         14.8850  -16.6230    4.4420 C.2    10  GLN10       0.2260
     31  O         13.9300  -17.0390    5.0990 O.2    10  GLN10      -0.2867
     32  CB        17.1360  -17.5940    4.9040 C.3    10  GLN10       0.0367
     33  CG        18.1780  -18.6660    4.6230 C.3    10  GLN10       0.0905
     34  CD        19.2930  -18.6790    5.6530 C.2    10  GLN10       0.2608
     35  OE1       19.2520  -17.9430    6.6390 O.2    10  GLN10      -0.2717
     36  NE2       20.2980  -19.5190    5.4270 N.am   10  GLN10      -0.0878
     37  N         12.8190  -13.1050   14.5270 N.3    24  ARG24      -0.1231
     38  CA        13.9890  -13.7210   15.1440 C.3    24  ARG24       0.1694
     39  C         15.2530  -13.5520   14.3020 C.2    24  ARG24       0.2592
     40  O         16.3160  -14.0610   14.6540 O.2    24  ARG24      -0.2718
     41  CB        13.7210  -15.1980   15.4390 C.3    24  ARG24       0.0321
     42  CG        12.5630  -15.4120   16.4000 C.3    24  ARG24       0.0489
     43  CD        12.3010  -16.8860   16.6600 C.3    24  ARG24       0.2205
     44  NE        11.1940  -17.0740   17.5940 N.pl3  24  ARG24      -0.0865
     45  CZ        10.7440  -18.2580   17.9960 C.cat  24  ARG24       0.5346
     46  NH1       11.3060  -19.3710   17.5460 N.pl3  24  ARG24       0.1354
     47  NH2        9.7310  -18.3280   18.8500 N.pl3  24  ARG24       0.1354
     48  N         15.1270  -12.8340   13.1900 N.am   25  PHE25      -0.1976
     49  CA        16.2810  -12.4560   12.3850 C.3    25  PHE25       0.1639
     50  C         16.8900  -11.1730   12.9290 C.2    25  PHE25       0.2290
     51  O         17.9880  -10.7800   12.5360 O.2    25  PHE25      -0.2864
     52  CB        15.8750  -12.2360   10.9290 C.3    25  PHE25       0.0560
     53  CG        15.9260  -13.4750   10.0880 C.ar   25  PHE25      -0.0200
     54  CD1       17.1220  -14.1470    9.8950 C.ar   25  PHE25      -0.0042
     55  CD2       14.7850  -13.9550    9.4720 C.ar   25  PHE25      -0.0042
     56  CE1       17.1740  -15.2840    9.1150 C.ar   25  PHE25      -0.0003
     57  CE2       14.8320  -15.0910    8.6880 C.ar   25  PHE25      -0.0003
     58  CZ        16.0270  -15.7570    8.5110 C.ar   25  PHE25      -0.0000
     59  N         29.7250  -17.0760   11.5140 N.3   105  LYS105     -0.1231
     60  CA        28.8010  -16.9090   10.4040 C.3   105  LYS105      0.1693
     61  C         27.3940  -16.9020   10.9760 C.2   105  LYS105      0.2592
     62  O         26.5190  -17.6640   10.5610 O.2   105  LYS105     -0.2718
     63  CB        28.9900  -18.0020    9.3550 C.3   105  LYS105      0.0285
     64  CG        30.3370  -17.9220    8.6520 C.3   105  LYS105      0.0035
     65  CD        30.5630  -16.5350    8.0600 C.3   105  LYS105      0.0206
     66  CE        31.9790  -16.0350    8.3250 C.3   105  LYS105      0.1093
     67  NZ        33.0200  -16.9530    7.7870 N.3   105  LYS105     -0.1314
     68  N         27.2110  -16.0290   11.9600 N.am  106  LYS106     -0.1966
     69  CA        25.9430  -15.8350   12.6420 C.3   106  LYS106      0.1728
     70  C         25.5580  -14.3680   12.5000 C.2   106  LYS106      0.2616
     71  O         26.0860  -13.5080   13.2050 O.2   106  LYS106     -0.2715
     72  CB        26.0900  -16.2090   14.1180 C.3   106  LYS106      0.0311
     73  CG        24.8980  -15.8620   14.9940 C.3   106  LYS106      0.0038
     74  CD        25.2240  -16.1070   16.4610 C.3   106  LYS106      0.0206
     75  CE        24.0910  -15.6610   17.3710 C.3   106  LYS106      0.1093
     76  NZ        24.4240  -15.8840   18.8060 N.3   106  LYS106     -0.1314
     77  N         24.6490  -14.0850   11.5740 N.am  107  TYR107     -0.1960
     78  CA        24.2800  -12.7090   11.2640 C.3   107  TYR107      0.1771
     79  C         22.9740  -12.2810   11.9230 C.2   107  TYR107      0.2619
     80  O         22.1430  -13.1110   12.2880 O.2   107  TYR107     -0.2715
     81  CB        24.1650  -12.5130    9.7490 C.3   107  TYR107      0.0574
     82  CG        25.4790  -12.5740    9.0060 C.ar  107  TYR107     -0.0198
     83  CD1       26.0230  -13.7900    8.6150 C.ar  107  TYR107     -0.0009
     84  CD2       26.1690  -11.4140    8.6810 C.ar  107  TYR107     -0.0009
     85  CE1       27.2240  -13.8500    7.9310 C.ar  107  TYR107      0.0417
     86  CE2       27.3690  -11.4630    7.9970 C.ar  107  TYR107      0.0417
     87  CZ        27.8920  -12.6830    7.6240 C.ar  107  TYR107      0.1957
     88  OH        29.0850  -12.7340    6.9420 O.3   107  TYR107     -0.2866
     89  N         22.8110  -10.9720   12.0700 N.am  108  TYR108     -0.1974
     90  CA        21.5470  -10.3840   12.4890 C.3   108  TYR108      0.1639
     91  C         21.1950   -9.2630   11.5230 C.2   108  TYR108      0.2290
     92  O         22.0790   -8.5650   11.0270 O.2   108  TYR108     -0.2864
     93  CB        21.6460   -9.8270   13.9110 C.3   108  TYR108      0.0560
     94  CG        21.4770  -10.8620   15.0010 C.ar  108  TYR108     -0.0198
     95  CD1       20.2180  -11.1780   15.4950 C.ar  108  TYR108     -0.0009
     96  CD2       22.5750  -11.5130   15.5450 C.ar  108  TYR108     -0.0009
     97  CE1       20.0570  -12.1200   16.4950 C.ar  108  TYR108      0.0417
     98  CE2       22.4260  -12.4560   16.5450 C.ar  108  TYR108      0.0417
     99  CZ        21.1640  -12.7550   17.0160 C.ar  108  TYR108      0.1957
    100  OH        21.0100  -13.6940   18.0110 O.3   108  TYR108     -0.2866
@<TRIPOS>BOND
     1    16    14   ar
     2    15    14   ar
     3    14    13    1
     4     8     9    1
     5    13    12    1
     6     9    12    1
     7     9    10    1
     8     1     2    1
     9    10    11    2
    10    10    17   am
    11     3     2    1
    12     3     4    2
    13     2     5    1
    14    17    18    1
    15    28    29    1
    16    19    18    1
    17    19    20    2
    18     5     7    1
    19     5     6    1
    20    18    21    1
    21    29    30    1
    22    29    32    1
    23    21    22    1
    24    24    22   ar
    25    24    26   ar
    26    30    31    2
    27    33    32    1
    28    33    34    1
    29    22    23   ar
    30    26    27   ar
    31    36    34   am
    32    34    35    2
    33    23    25   ar
    34    27    25   ar
    35    88    87    1
    36    87    85   ar
    37    87    86   ar
    38    67    66    1
    39    85    83   ar
    40    86    84   ar
    41    65    66    1
    42    65    64    1
    43    58    57   ar
    44    58    56   ar
    45    83    82   ar
    46    64    63    1
    47    84    82   ar
    48    57    55   ar
    49    82    81    1
    50    56    54   ar
    51    63    60    1
    52    55    53   ar
    53    81    78    1
    54    54    53   ar
    55    53    52    1
    56    60    61    1
    57    60    59    1
    58    62    61    2
    59    52    49    1
    60    61    68   am
    61    92    91    2
    62    78    77    1
    63    78    79    1
    64    91    90    1
    65    77    70   am
    66    79    89   am
    67    79    80    2
    68    68    69    1
    69    89    90    1
    70    49    50    1
    71    49    48    1
    72    90    93    1
    73    70    69    1
    74    70    71    2
    75    51    50    2
    76    69    72    1
    77    48    39   am
    78    93    94    1
    79    72    73    1
    80    39    40    2
    81    39    38    1
    82    37    38    1
    83    73    74    1
    84    94    95   ar
    85    94    96   ar
    86    38    41    1
    87    41    42    1
    88    95    97   ar
    89    96    98   ar
    90    42    43    1
    91    74    75    1
    92    97    99   ar
    93    98    99   ar
    94    43    44    1
    95    99   100    1
    96    75    76    1
    97    46    45    1
    98    44    45    2
    99    45    47    1
