@<TRIPOS>MOLECULE
tmp/3ujoB01.pdb
 95 93 0 0 0
SMALL
GASTEIGER

@<TRIPOS>ATOM
      1  N         19.7080   -3.4320   -6.0600 N.3    84  ALA84      -0.1231
      2  CA        20.3660   -3.1710   -4.7700 C.3    84  ALA84       0.1694
      3  C         20.8060   -1.7040   -4.7140 C.2    84  ALA84       0.2592
      4  O         21.2260   -1.1570   -5.7350 O.2    84  ALA84      -0.2718
      5  CB        21.5650   -4.0930   -4.5720 C.3    84  ALA84       0.0304
      6  N         20.7310   -1.0600   -3.5440 N.am   85  ASP85      -0.1974
      7  CA        20.3070   -1.6770   -2.2820 C.3    85  ASP85       0.1709
      8  C         19.0570   -1.0440   -1.6690 C.2    85  ASP85       0.2293
      9  O         18.4480   -1.6280   -0.7710 O.2    85  ASP85      -0.2864
     10  CB        21.4540   -1.6390   -1.2650 C.3    85  ASP85       0.1436
     11  CG        22.2870   -2.9020   -1.2740 C.2    85  ASP85       0.3671
     12  OD1       21.7540   -3.9810   -0.9410 O.co2  85  ASP85      -0.2456
     13  OD2       23.4850   -2.8170   -1.6100 O.co2  85  ASP85      -0.2456
     14  N         26.2860   -0.0690    0.3620 N.3   102  GLY102     -0.1210
     15  CA        25.5830   -1.3240    0.1170 C.3   102  GLY102      0.1956
     16  C         24.3860   -1.5720    1.0140 C.2   102  GLY102      0.2612
     17  O         23.5120   -0.7170    1.1470 O.2   102  GLY102     -0.2717
     18  N         24.3530   -2.7550    1.6220 N.am  103  GLY103     -0.1942
     19  CA        23.2460   -3.1720    2.4860 C.3   103  GLY103      0.2014
     20  C         23.0710   -2.3300    3.7350 C.2   103  GLY103      0.2638
     21  O         22.0370   -2.4070    4.3960 O.2   103  GLY103     -0.2714
     22  N         24.0820   -1.5240    4.0530 N.am  104  PHE104     -0.1973
     23  CA        24.0260   -0.6070    5.1930 C.3   104  PHE104      0.1639
     24  C         23.4340    0.7450    4.8060 C.2   104  PHE104      0.2290
     25  O         23.1400    1.5720    5.6720 O.2   104  PHE104     -0.2864
     26  CB        25.4150   -0.4270    5.8110 C.3   104  PHE104      0.0560
     27  CG        25.9860   -1.6830    6.3900 C.ar  104  PHE104     -0.0200
     28  CD1       25.6730   -2.0710    7.6900 C.ar  104  PHE104     -0.0042
     29  CD2       26.8400   -2.4840    5.6390 C.ar  104  PHE104     -0.0042
     30  CE1       26.2020   -3.2420    8.2280 C.ar  104  PHE104     -0.0003
     31  CE2       27.3720   -3.6510    6.1700 C.ar  104  PHE104     -0.0003
     32  CZ        27.0500   -4.0300    7.4690 C.ar  104  PHE104     -0.0000
     33  N         16.8550   -5.1490   -1.4660 N.3   127  PHE127     -0.1241
     34  CA        17.8150   -6.2520   -1.5380 C.3   127  PHE127      0.1605
     35  C         17.8410   -7.0830   -0.2620 C.2   127  PHE127      0.2264
     36  O         18.0630   -6.5610    0.8330 O.2   127  PHE127     -0.2867
     37  CB        19.2260   -5.7500   -1.8770 C.3   127  PHE127      0.0534
     38  CG        20.2360   -6.8540   -2.0620 C.ar  127  PHE127     -0.0203
     39  CD1       20.9740   -7.3320   -0.9800 C.ar  127  PHE127     -0.0042
     40  CD2       20.4530   -7.4170   -3.3170 C.ar  127  PHE127     -0.0042
     41  CE1       21.9050   -8.3550   -1.1440 C.ar  127  PHE127     -0.0003
     42  CE2       21.3840   -8.4360   -3.4900 C.ar  127  PHE127     -0.0003
     43  CZ        22.1100   -8.9080   -2.4010 C.ar  127  PHE127     -0.0000
     44  N         19.4600   -9.0240    2.2360 N.3   129  ASN129     -0.1240
     45  CA        20.8020   -9.2150    2.7930 C.3   129  ASN129      0.1653
     46  C         20.9550  -10.4800    3.6430 C.2   129  ASN129      0.2266
     47  O         22.0610  -11.0000    3.7890 O.2   129  ASN129     -0.2867
     48  CB        21.2510   -7.9750    3.5750 C.3   129  ASN129      0.1155
     49  CG        21.8720   -6.9090    2.6800 C.2   129  ASN129      0.2627
     50  OD1       21.2250   -5.9170    2.3330 O.2   129  ASN129     -0.2716
     51  ND2       23.1280   -7.1130    2.2980 N.am  129  ASN129     -0.0877
     52  N         20.2700   -9.9290    8.2150 N.3   132  TRP132     -0.1241
     53  CA        19.3080   -9.1990    9.0260 C.3   132  TRP132      0.1605
     54  C         17.9500   -9.0630    8.3400 C.2   132  TRP132      0.2264
     55  O         16.9220   -8.9760    9.0110 O.2   132  TRP132     -0.2867
     56  CB        19.8670   -7.8200    9.4000 C.3   132  TRP132      0.0550
     57  CG        20.3870   -7.0010    8.2380 C.ar  132  TRP132      0.0003
     58  CD1       19.6900   -6.0730    7.5170 C.ar  132  TRP132      0.0946
     59  CD2       21.7140   -7.0210    7.6850 C.ar  132  TRP132      0.0152
     60  NE1       20.4950   -5.5200    6.5510 N.ar  132  TRP132     -0.2442
     61  CE2       21.7400   -6.0830    6.6290 C.ar  132  TRP132      0.0810
     62  CE3       22.8820   -7.7400    7.9780 C.ar  132  TRP132      0.0012
     63  CZ2       22.8890   -5.8470    5.8600 C.ar  132  TRP132      0.0191
     64  CZ3       24.0220   -7.5080    7.2110 C.ar  132  TRP132      0.0001
     65  CH2       24.0150   -6.5680    6.1670 C.ar  132  TRP132      0.0015
     66  N         24.4290   -1.5090   -5.4330 N.3   213  GLY213     -0.1210
     67  CA        25.0270   -2.7850   -5.0490 C.3   213  GLY213      0.1956
     68  C         26.5410   -2.8200   -5.0230 C.2   213  GLY213      0.2612
     69  O         27.2070   -1.9050   -5.5180 O.2   213  GLY213     -0.2717
     70  N         27.0800   -3.8850   -4.4330 N.am  214  LEU214     -0.1965
     71  CA        28.5210   -4.1090   -4.3770 C.3   214  LEU214      0.1728
     72  C         29.0100   -5.0590   -5.4640 C.2   214  LEU214      0.2616
     73  O         30.1740   -5.4640   -5.4730 O.2   214  LEU214     -0.2715
     74  CB        28.9440   -4.6150   -2.9950 C.3   214  LEU214      0.0311
     75  CG        29.4560   -3.5640   -2.0100 C.3   214  LEU214      0.0022
     76  CD1       29.5480   -4.1710   -0.6280 C.3   214  LEU214      0.0001
     77  CD2       30.8100   -3.0060   -2.4430 C.3   214  LEU214      0.0001
     78  N         28.1070   -5.4150   -6.3720 N.am  215  SER215     -0.1950
     79  CA        28.4590   -6.1340   -7.5880 C.3   215  SER215      0.1924
     80  C         27.8770   -5.3830   -8.7820 C.2   215  SER215      0.2314
     81  O         26.8200   -4.7550   -8.6760 O.2   215  SER215     -0.2863
     82  CB        27.9600   -7.5780   -7.5320 C.3   215  SER215      0.2116
     83  OG        28.6910   -8.3220   -6.5680 O.3   215  SER215     -0.2180
     84  N         24.1270   -5.5480   -9.9610 N.3   218  TYR218     -0.1241
     85  CA        23.1150   -5.0710   -9.0150 C.3   218  TYR218      0.1605
     86  C         23.1140   -3.5440   -8.9120 C.2   218  TYR218      0.2264
     87  O         23.8200   -2.9590   -8.0820 O.2   218  TYR218     -0.2867
     88  CB        23.3260   -5.7220   -7.6410 C.3   218  TYR218      0.0534
     89  CG        22.9950   -7.2010   -7.6010 C.ar  218  TYR218     -0.0201
     90  CD1       23.8660   -8.1520   -8.1450 C.ar  218  TYR218     -0.0009
     91  CD2       21.8130   -7.6520   -7.0160 C.ar  218  TYR218     -0.0009
     92  CE1       23.5590   -9.5090   -8.1130 C.ar  218  TYR218      0.0417
     93  CE2       21.4990   -9.0030   -6.9780 C.ar  218  TYR218      0.0417
     94  CZ        22.3740   -9.9270   -7.5270 C.ar  218  TYR218      0.1957
     95  OH        22.0580  -11.2670   -7.4860 O.3   218  TYR218     -0.2866
@<TRIPOS>BOND
     1    84    85    1
     2    85    86    1
     3    85    88    1
     4    86    87    2
     5    80    81    2
     6    80    79    1
     7    90    92   ar
     8    90    89   ar
     9    92    94   ar
    10    88    89    1
    11    89    91   ar
    12    79    82    1
    13    79    78    1
    14    82    83    1
    15    94    95    1
    16    94    93   ar
    17    91    93   ar
    18    78    72   am
    19     1     2    1
    20     4     3    2
    21    69    68    2
    22    73    72    2
    23    72    71    1
    24    66    67    1
    25    67    68    1
    26    68    70   am
    27     2     3    1
    28     2     5    1
    29     3     6   am
    30    70    71    1
    31    71    74    1
    32     6     7    1
    33    42    40   ar
    34    42    43   ar
    35    40    38   ar
    36    74    75    1
    37    77    75    1
    38    43    41   ar
    39     7     8    1
    40     7    10    1
    41    38    37    1
    42    38    39   ar
    43    75    76    1
    44    37    34    1
    45     8     9    2
    46    13    11   ar
    47    34    33    1
    48    34    35    1
    49    11    10    1
    50    11    12   ar
    51    41    39   ar
    52    35    36    2
    53    15    14    1
    54    15    16    1
    55    16    17    2
    56    16    18   am
    57    18    19    1
    58    44    45    1
    59    51    49   am
    60    50    49    2
    61    19    20    1
    62    49    48    1
    63    45    48    1
    64    45    46    1
    65    46    47    2
    66    20    22   am
    67    20    21    2
    68    22    23    1
    69    24    23    1
    70    24    25    2
    71    23    26    1
    72    29    31   ar
    73    29    27   ar
    74    26    27    1
    75    63    65   ar
    76    63    61   ar
    77    65    64   ar
    78    31    32   ar
    79    27    28   ar
    80    60    61   ar
    81    60    58   ar
    82    61    59   ar
    83    64    62   ar
    84    32    30   ar
    85    58    57   ar
    86    59    62   ar
    87    59    57   ar
    88    28    30   ar
    89    52    53    1
    90    57    56    1
    91    54    55    2
    92    54    53    1
    93    53    56    1
