@<TRIPOS>MOLECULE
tmp/3ujrA01.pdb
 73 68 0 0 0
SMALL
GASTEIGER

@<TRIPOS>ATOM
      1  N         98.5980   93.0910   18.0090 N.3    38  ALA38      -0.1231
      2  CA        99.8540   93.1690   17.3210 C.3    38  ALA38       0.1694
      3  C        100.9080   92.8590   18.3510 C.2    38  ALA38       0.2593
      4  O        101.7920   91.9860   18.0810 O.2    38  ALA38      -0.2718
      5  CB       100.0880   94.5290   16.7500 C.3    38  ALA38       0.0304
      6  N        100.8430   93.4760   19.5350 N.am   39  SER39      -0.1938
      7  CA       101.8900   93.2070   20.4760 C.3    39  SER39       0.2055
      8  C        101.3280   92.1090   21.3620 C.2    39  SER39       0.2644
      9  O        100.8660   92.3360   22.4820 O.2    39  SER39      -0.2714
     10  CB       102.3060   94.4420   21.2810 C.3    39  SER39       0.2130
     11  OG       101.0960   95.0610   21.7480 O.3    39  SER39      -0.2179
     12  N        101.4470   90.8890   20.8840 N.am   40  THR40      -0.1936
     13  CA       100.6950   89.7670   21.4910 C.3    40  THR40       0.2028
     14  C        101.5880   88.9790   22.4410 C.2    40  THR40       0.2643
     15  O        102.7130   88.5810   22.0500 O.2    40  THR40      -0.2714
     16  CB       100.1190   88.7720   20.3900 C.3    40  THR40       0.1808
     17  OG1      101.1480   88.4850   19.4470 O.3    40  THR40      -0.2208
     18  CG2       98.8480   89.3830   19.6450 C.3    40  THR40       0.0379
     19  N        101.1010   88.7180   23.6440 N.am   41  GLY41      -0.1939
     20  CA       101.9460   88.0530   24.6370 C.3    41  GLY41       0.2014
     21  C        102.1650   86.6140   24.1990 C.2    41  GLY41       0.2638
     22  O        101.2990   86.0390   23.5850 O.2    41  GLY41      -0.2714
     23  N        103.2700   86.0300   24.6240 N.am   42  ILE42      -0.1977
     24  CA       103.5110   84.6350   24.2770 C.3    42  ILE42       0.1596
     25  C        102.4910   83.6480   24.9040 C.2    42  ILE42       0.2287
     26  O        102.3040   82.5230   24.4190 O.2    42  ILE42      -0.2864
     27  CB       104.9860   84.2840   24.5070 C.3    42  ILE42       0.0276
     28  CG1      105.3060   84.3190   25.9780 C.3    42  ILE42       0.0022
     29  CG2      105.8680   85.2110   23.6790 C.3    42  ILE42       0.0022
     30  CD1      106.7030   83.8670   26.2120 C.3    42  ILE42       0.0001
     31  N        107.3840   93.7140   26.8810 N.3   248  SER248     -0.1202
     32  CA       107.7740   92.4410   26.2490 C.3   248  SER248      0.2020
     33  C        108.2360   92.6460   24.7990 C.2   248  SER248      0.2618
     34  O        109.0290   91.8810   24.2220 O.2   248  SER248     -0.2717
     35  CB       106.5860   91.5100   26.2450 C.3   248  SER248      0.2103
     36  OG       106.2300   91.1860   27.5600 O.3   248  SER248     -0.2182
     37  N        107.6970   93.6910   24.1970 N.am  249  GLU249     -0.1979
     38  CA       107.9740   94.0750   22.7720 C.3   249  GLU249      0.1602
     39  C        109.4280   94.5040   22.5350 C.2   249  GLU249      0.2287
     40  O        109.9320   94.4440   21.3970 O.2   249  GLU249     -0.2864
     41  CB       106.9970   95.1670   22.2690 C.3   249  GLU249      0.0415
     42  CG       105.5560   94.7640   22.0770 C.3   249  GLU249      0.1163
     43  CD       105.4670   93.6690   21.0340 C.2   249  GLU249      0.3649
     44  OE1      105.7370   93.9870   19.8670 O.co2 249  GLU249     -0.2457
     45  OE2      105.1610   92.5220   21.3860 O.co2 249  GLU249     -0.2457
     46  N        115.2200   92.3310   25.3350 N.3   252  ARG252     -0.1245
     47  CA       116.3150   91.8250   24.4980 C.3   252  ARG252      0.1563
     48  C        117.4240   91.2710   25.3660 C.2   252  ARG252      0.2260
     49  O        117.9820   91.9840   26.2250 O.2   252  ARG252     -0.2867
     50  CB       116.8970   92.9210   23.5830 C.3   252  ARG252      0.0307
     51  CG       115.8910   93.6340   22.6960 C.3   252  ARG252      0.0489
     52  CD       115.4930   92.7390   21.5410 C.3   252  ARG252      0.2205
     53  NE       114.6220   93.4500   20.6190 N.pl3 252  ARG252     -0.0865
     54  CZ       113.2900   93.4160   20.7080 C.cat 252  ARG252      0.5346
     55  NH1      112.6930   92.6040   21.5870 N.pl3 252  ARG252      0.1354
     56  NH2      112.5600   94.1040   19.8330 N.pl3 252  ARG252      0.1354
     57  N        106.9430   89.9690   30.0570 N.3   297  GLN297     -0.1245
     58  CA       105.8910   89.0560   30.5310 C.3   297  GLN297      0.1566
     59  C        106.4040   87.9770   31.4910 C.2   297  GLN297      0.2260
     60  O        105.6000   87.3950   32.2600 O.2   297  GLN297     -0.2867
     61  CB       105.1650   88.3860   29.3230 C.3   297  GLN297      0.0367
     62  CG       106.0710   87.5850   28.4380 C.3   297  GLN297      0.0905
     63  CD       105.7250   87.7200   26.9550 C.2   297  GLN297      0.2608
     64  OE1      104.5480   87.7500   26.5380 O.2   297  GLN297     -0.2717
     65  NE2      106.7680   87.8640   26.1510 N.am  297  GLN297     -0.0878
     66  N        100.3100   91.4780   29.0680 N.3   318  ASP318     -0.1239
     67  CA       101.0500   90.2790   28.6150 C.3   318  ASP318      0.1674
     68  C        101.4630   89.4070   29.8380 C.2   318  ASP318      0.2266
     69  O        101.6120   88.2150   29.7230 O.2   318  ASP318     -0.2867
     70  CB       102.2630   90.6350   27.7720 C.3   318  ASP318      0.1410
     71  CG       101.8780   91.2200   26.4030 C.2   318  ASP318      0.3668
     72  OD1      100.7700   90.8820   25.9340 O.co2 318  ASP318     -0.2456
     73  OD2      102.7430   91.9270   25.8000 O.co2 318  ASP318     -0.2456
@<TRIPOS>BOND
     1     5     2    1
     2     2     1    1
     3     2     3    1
     4     4     3    2
     5     3     6   am
     6    17    16    1
     7     6     7    1
     8    18    16    1
     9    56    54    1
    10    44    43   ar
    11    16    13    1
    12     7    10    1
    13     7     8    1
    14    53    54    2
    15    53    52    1
    16    54    55    1
    17    12     8   am
    18    12    13    1
    19    43    45   ar
    20    43    42    1
    21    10    11    1
    22     8     9    2
    23    40    39    2
    24    13    14    1
    25    52    51    1
    26    15    14    2
    27    42    41    1
    28    41    38    1
    29    14    19   am
    30    39    38    1
    31    51    50    1
    32    38    37    1
    33    50    47    1
    34    22    21    2
    35    19    20    1
    36    29    27    1
    37    37    33   am
    38    21    23   am
    39    21    20    1
    40    34    33    2
    41    24    27    1
    42    24    23    1
    43    24    25    1
    44    26    25    2
    45    47    46    1
    46    47    48    1
    47    27    28    1
    48    33    32    1
    49    48    49    2
    50    73    71   ar
    51    72    71   ar
    52    28    30    1
    53    65    63   am
    54    35    32    1
    55    35    36    1
    56    32    31    1
    57    71    70    1
    58    64    63    2
    59    63    62    1
    60    70    67    1
    61    62    61    1
    62    67    66    1
    63    67    68    1
    64    61    58    1
    65    69    68    2
    66    57    58    1
    67    58    59    1
    68    59    60    2
