@<TRIPOS>MOLECULE
tmp/3ujsB00.pdb
 133 123 0 0 0
SMALL
GASTEIGER

@<TRIPOS>ATOM
      1  N         27.4560   57.1100    6.2550 N.3    37  GLY37      -0.1210
      2  CA        28.6550   57.3390    5.4720 C.3    37  GLY37       0.1956
      3  C         29.6320   58.3400    6.0530 C.2    37  GLY37       0.2612
      4  O         29.2690   59.1730    6.9390 O.2    37  GLY37      -0.2717
      5  N         30.8160   58.3590    5.4710 N.am   38  ALA38      -0.1965
      6  CA        31.8720   59.4000    5.7630 C.3    38  ALA38       0.1728
      7  C         32.0440   60.2540    4.4870 C.2    38  ALA38       0.2616
      8  O         31.9220   61.5230    4.5870 O.2    38  ALA38      -0.2715
      9  CB        33.2020   58.7560    6.1280 C.3    38  ALA38       0.0334
     10  N         32.2870   59.5950    3.3030 N.am   39  SER39      -0.1950
     11  CA        32.3780   60.3970    2.0520 C.3    39  SER39       0.1924
     12  C         30.9260   60.5280    1.5230 C.2    39  SER39       0.2314
     13  O         30.4540   59.8360    0.5540 O.2    39  SER39      -0.2863
     14  CB        33.3280   59.6960    1.0210 C.3    39  SER39       0.2116
     15  OG        32.8720   58.3390    0.8450 O.3    39  SER39      -0.2180
     16  N         39.6750   56.5290   -3.3620 N.3   165  GLN165     -0.1231
     17  CA        39.1230   55.9470   -2.1300 C.3   165  GLN165      0.1698
     18  C         39.2920   54.4400   -1.9800 C.2   165  GLN165      0.2592
     19  O         39.6850   53.9610   -0.9000 O.2   165  GLN165     -0.2718
     20  CB        37.6570   56.3590   -1.9450 C.3   165  GLN165      0.0381
     21  CG        37.1050   56.0390   -0.5110 C.3   165  GLN165      0.0905
     22  CD        35.6330   56.5560   -0.4100 C.2   165  GLN165      0.2608
     23  OE1       35.4340   57.7020   -0.1160 O.2   165  GLN165     -0.2717
     24  NE2       34.6590   55.7260   -0.7110 N.am  165  GLN165     -0.0878
     25  N         38.9150   53.6590   -2.9930 N.am  166  GLU166     -0.1979
     26  CA        38.8460   52.2180   -2.7550 C.3   166  GLU166      0.1602
     27  C         39.3480   51.4820   -3.9940 C.2   166  GLU166      0.2287
     28  O         39.0140   51.8370   -5.1300 O.2   166  GLU166     -0.2864
     29  CB        37.3860   51.7440   -2.6190 C.3   166  GLU166      0.0415
     30  CG        36.5790   52.4720   -1.5700 C.3   166  GLU166      0.1163
     31  CD        35.0560   52.1980   -1.5950 C.2   166  GLU166      0.3649
     32  OE1       34.5600   51.2700   -2.2860 O.co2 166  GLU166     -0.2457
     33  OE2       34.3250   52.9420   -0.8420 O.co2 166  GLU166     -0.2457
     34  N         36.8580   50.0010    6.4790 N.3   209  GLU209     -0.1245
     35  CA        36.1580   48.9330    5.7770 C.3   209  GLU209      0.1567
     36  C         36.9490   47.6380    5.7340 C.2   209  GLU209      0.2260
     37  O         36.5550   46.7200    4.9790 O.2   209  GLU209     -0.2867
     38  CB        35.8280   49.3520    4.3390 C.3   209  GLU209      0.0388
     39  CG        34.8290   50.5380    4.2960 C.3   209  GLU209      0.1160
     40  CD        34.3260   50.8460    2.9290 C.2   209  GLU209      0.3649
     41  OE1       34.6450   50.1350    1.9260 O.co2 209  GLU209     -0.2457
     42  OE2       33.5210   51.8310    2.8620 O.co2 209  GLU209     -0.2457
     43  N         36.6600   52.7070   -6.4870 N.3   244  ASP244     -0.1239
     44  CA        35.7560   53.8220   -6.1820 C.3   244  ASP244      0.1674
     45  C         36.6780   55.0230   -5.9740 C.2   244  ASP244      0.2266
     46  O         37.4540   55.1110   -5.0090 O.2   244  ASP244     -0.2867
     47  CB        34.9700   53.5830   -4.9280 C.3   244  ASP244      0.1410
     48  CG        34.0670   54.7740   -4.5520 C.2   244  ASP244      0.3668
     49  OD1       34.0440   55.7770   -5.2970 O.co2 244  ASP244     -0.2456
     50  OD2       33.2530   54.6530   -3.5920 O.co2 244  ASP244     -0.2456
     51  N         35.7250   58.1660   -5.7440 N.3   246  ALA246     -0.1245
     52  CA        35.0640   59.2130   -4.8910 C.3   246  ALA246      0.1562
     53  C         35.6550   60.5900   -5.2370 C.2   246  ALA246      0.2260
     54  O         36.0580   61.3910   -4.3530 O.2   246  ALA246     -0.2867
     55  CB        35.2150   58.8810   -3.3490 C.3   246  ALA246      0.0290
     56  N         33.8400   53.7480  -10.1010 N.3   292  GLU292     -0.1245
     57  CA        32.7270   54.4690   -9.4780 C.3   292  GLU292      0.1567
     58  C         33.2080   55.9050   -9.1210 C.2   292  GLU292      0.2260
     59  O         34.3540   56.1420   -8.7040 O.2   292  GLU292     -0.2867
     60  CB        32.3530   53.6950   -8.1700 C.3   292  GLU292      0.0388
     61  CG        31.3180   54.4360   -7.2930 C.3   292  GLU292      0.1160
     62  CD        31.2320   53.7640   -5.9410 C.2   292  GLU292      0.3649
     63  OE1       31.5740   52.5290   -5.8030 O.co2 292  GLU292     -0.2457
     64  OE2       30.8440   54.4670   -4.9780 O.co2 292  GLU292     -0.2457
     65  N         27.5480   57.1080   -7.6740 N.3   317  ASP317     -0.1225
     66  CA        27.2960   56.9280   -6.2290 C.3   317  ASP317      0.1805
     67  C         26.8910   58.3210   -5.7700 C.2   317  ASP317      0.2597
     68  O         25.7130   58.5580   -5.6620 O.2   317  ASP317     -0.2718
     69  CB        28.5730   56.4240   -5.5780 C.3   317  ASP317      0.1424
     70  CG        28.4670   56.4190   -4.0610 C.2   317  ASP317      0.3668
     71  OD1       27.3250   56.5250   -3.5910 O.co2 317  ASP317     -0.2456
     72  OD2       29.5380   56.3790   -3.4110 O.co2 317  ASP317     -0.2456
     73  N         27.8520   59.2180   -5.5340 N.am  318  ASP318     -0.1974
     74  CA        27.5140   60.6240   -5.1420 C.3   318  ASP318      0.1709
     75  C         26.8530   61.3880   -6.3310 C.2   318  ASP318      0.2293
     76  O         26.0350   62.2370   -6.1370 O.2   318  ASP318     -0.2864
     77  CB        28.7650   61.3690   -4.6830 C.3   318  ASP318      0.1436
     78  CG        29.2860   60.8030   -3.3100 C.2   318  ASP318      0.3671
     79  OD1       28.4700   60.1380   -2.5990 O.co2 318  ASP318     -0.2456
     80  OD2       30.4810   60.9620   -3.0530 O.co2 318  ASP318     -0.2456
     81  N         25.0160   52.8030   -7.8960 N.3   340  LEU340     -0.1245
     82  CA        25.3770   52.2270   -6.5980 C.3   340  LEU340      0.1561
     83  C         24.1180   52.4490   -5.7370 C.2   340  LEU340      0.2260
     84  O         23.6370   53.5970   -5.5540 O.2   340  LEU340     -0.2867
     85  CB        26.5630   52.9620   -5.9930 C.3   340  LEU340      0.0270
     86  CG        27.1390   52.2180   -4.8030 C.3   340  LEU340      0.0019
     87  CD1       28.0730   51.0960   -5.3510 C.3   340  LEU340      0.0001
     88  CD2       28.0170   53.1330   -3.9270 C.3   340  LEU340      0.0001
     89  N         22.3400   52.6420   -2.3040 N.3   342  LYS342     -0.1245
     90  CA        22.4730   52.8450   -0.8460 C.3   342  LYS342      0.1561
     91  C         21.1490   53.2560   -0.2800 C.2   342  LYS342      0.2260
     92  O         20.7000   54.4140   -0.4790 O.2   342  LYS342     -0.2867
     93  CB        23.4760   53.9000   -0.4970 C.3   342  LYS342      0.0271
     94  CG        24.9370   53.4570   -0.7570 C.3   342  LYS342      0.0035
     95  CD        25.8260   54.6700   -0.7260 C.3   342  LYS342      0.0206
     96  CE        27.2890   54.2310   -0.6670 C.3   342  LYS342      0.1093
     97  NZ        28.0910   55.3510   -1.0410 N.3   342  LYS342     -0.1314
     98  N         27.1950   48.7940    0.9850 N.3   370  HIS370     -0.1226
     99  CA        27.2870   49.2480    2.3850 C.3   370  HIS370      0.1752
    100  C         27.5830   50.7330    2.4960 C.2   370  HIS370      0.2596
    101  O         27.7880   51.4270    1.4660 O.2   370  HIS370     -0.2718
    102  CB        28.4180   48.4740    3.0790 C.3   370  HIS370      0.0759
    103  CG        29.7700   48.7360    2.5410 C.ar  370  HIS370      0.0818
    104  ND1       30.9060   48.3160    3.1900 N.ar  370  HIS370     -0.2268
    105  CD2       30.1970   49.2900    1.3570 C.ar  370  HIS370      0.1154
    106  CE1       31.9780   48.6770    2.5020 C.ar  370  HIS370      0.1986
    107  NE2       31.5800   49.2600    1.3800 N.ar  370  HIS370     -0.2212
    108  N         27.6260   51.2330    3.7520 N.am  371  ARG371     -0.1966
    109  CA        28.3180   52.4980    4.0270 C.3   371  ARG371      0.1729
    110  C         29.6170   52.2480    4.7900 C.2   371  ARG371      0.2616
    111  O         29.7830   51.1490    5.3340 O.2   371  ARG371     -0.2715
    112  CB        27.4590   53.4400    4.8420 C.3   371  ARG371      0.0348
    113  CG        26.0710   53.7640    4.2620 C.3   371  ARG371      0.0492
    114  CD        26.1910   54.3760    2.8440 C.3   371  ARG371      0.2205
    115  NE        27.0900   55.5190    2.6350 N.pl3 371  ARG371     -0.0865
    116  CZ        26.6440   56.7470    2.2860 C.cat 371  ARG371      0.5346
    117  NH1       25.3110   57.0210    2.3800 N.pl3 371  ARG371      0.1354
    118  NH2       27.5750   57.6510    1.8890 N.pl3 371  ARG371      0.1354
    119  N         30.5230   53.2210    4.8570 N.am  372  SER372     -0.1950
    120  CA        31.8090   53.0130    5.5880 C.3   372  SER372      0.1924
    121  C         31.5750   52.8440    7.1240 C.2   372  SER372      0.2314
    122  O         32.3730   52.1910    7.8120 O.2   372  SER372     -0.2863
    123  CB        32.8270   54.1500    5.2600 C.3   372  SER372      0.2116
    124  OG        32.2260   55.3790    5.6450 O.3   372  SER372     -0.2180
    125  N         29.0420   45.5780   -3.0540 N.3   393  LYS393     -0.1245
    126  CA        30.2820   45.9210   -2.3610 C.3   393  LYS393      0.1561
    127  C         29.8910   46.1110   -0.9000 C.2   393  LYS393      0.2260
    128  O         29.0000   46.9240   -0.5730 O.2   393  LYS393     -0.2867
    129  CB        31.0380   47.1370   -2.9430 C.3   393  LYS393      0.0271
    130  CG        30.4620   48.4400   -2.7610 C.3   393  LYS393      0.0035
    131  CD        31.4260   49.5740   -3.2940 C.3   393  LYS393      0.0206
    132  CE        31.1410   50.8340   -2.5660 C.3   393  LYS393      0.1093
    133  NZ        32.0730   51.9170   -3.0460 N.3   393  LYS393     -0.1314
@<TRIPOS>BOND
     1    56    57    1
     2    57    58    1
     3    57    60    1
     4    58    59    2
     5    60    61    1
     6    81    82    1
     7    65    66    1
     8    61    62    1
     9    82    85    1
    10    82    83    1
    11    43    44    1
    12    75    76    2
    13    75    74    1
    14    66    67    1
    15    66    69    1
    16    44    45    1
    17    44    47    1
    18    85    86    1
    19    45    46    2
    20    62    63   ar
    21    62    64   ar
    22    67    68    2
    23    67    73   am
    24    51    52    1
    25    83    84    2
    26    69    70    1
    27    73    74    1
    28    87    86    1
    29    49    48   ar
    30    53    52    1
    31    53    54    2
    32    74    77    1
    33    28    27    2
    34    47    48    1
    35    52    55    1
    36    86    88    1
    37    77    78    1
    38    48    50   ar
    39    70    71   ar
    40    70    72   ar
    41    27    26    1
    42    16    17    1
    43    78    80   ar
    44    78    79   ar
    45   131   130    1
    46   131   132    1
    47   125   126    1
    48   133   132    1
    49    25    26    1
    50    25    18   am
    51   129   130    1
    52   129   126    1
    53    26    29    1
    54    29    30    1
    55   126   127    1
    56    89    90    1
    57    32    31   ar
    58    17    18    1
    59    17    20    1
    60    18    19    2
    61    20    21    1
    62    31    30    1
    63    31    33   ar
    64    97    96    1
    65   127   128    2
    66    90    93    1
    67    90    91    1
    68    94    95    1
    69    94    93    1
    70    95    96    1
    71    24    22   am
    72    21    22    1
    73    92    91    2
    74    22    23    2
    75    13    12    2
    76    15    14    1
    77    98    99    1
    78    14    11    1
    79   105   107   ar
    80   105   103   ar
    81   107   106   ar
    82   101   100    2
    83    12    11    1
    84   118   116    1
    85    41    40   ar
    86    11    10    1
    87   116   117    1
    88   116   115    2
    89    99   100    1
    90    99   102    1
    91   100   108   am
    92   106   104   ar
    93   103   102    1
    94   103   104   ar
    95   115   114    1
    96   114   113    1
    97    42    40   ar
    98    40    39    1
    99    10     7   am
   100   108   109    1
   101   109   110    1
   102   109   112    1
   103   113   112    1
   104    39    38    1
   105    38    35    1
   106     7     8    2
   107     7     6    1
   108   110   119   am
   109   110   111    2
   110   119   120    1
   111    37    36    2
   112   123   120    1
   113   123   124    1
   114     5     6    1
   115     5     3   am
   116     2     3    1
   117     2     1    1
   118   120   121    1
   119    36    35    1
   120     6     9    1
   121    35    34    1
   122     3     4    2
   123   121   122    2
