@<TRIPOS>MOLECULE
tmp/3ujtB01.pdb
 79 76 0 0 0
SMALL
GASTEIGER

@<TRIPOS>ATOM
      1  N          6.6210   41.5350   13.7140 N.3    30  LEU30      -0.1245
      2  CA         6.1430   42.5770   14.6140 C.3    30  LEU30       0.1561
      3  C          6.2610   43.9590   13.9800 C.2    30  LEU30       0.2260
      4  O          7.3640   44.4390   13.7170 O.2    30  LEU30      -0.2867
      5  CB         6.9180   42.5410   15.9330 C.3    30  LEU30       0.0270
      6  CG         6.5130   43.5700   16.9920 C.3    30  LEU30       0.0019
      7  CD1        5.0430   43.4130   17.3670 C.3    30  LEU30       0.0001
      8  CD2        7.4030   43.4540   18.2220 C.3    30  LEU30       0.0001
      9  N          2.7410   47.7410   17.1430 N.3    35  GLN35      -0.1231
     10  CA         3.1850   46.6520   18.0070 C.3    35  GLN35       0.1698
     11  C          2.3230   45.4010   17.8590 C.2    35  GLN35       0.2592
     12  O          2.0690   44.6940   18.8310 O.2    35  GLN35      -0.2718
     13  CB         3.2120   47.1040   19.4690 C.3    35  GLN35       0.0381
     14  CG         4.3230   48.0910   19.7940 C.3    35  GLN35       0.0905
     15  CD         5.7000   47.4690   19.6690 C.2    35  GLN35       0.2608
     16  OE1        5.8710   46.2670   19.8660 O.2    35  GLN35      -0.2717
     17  NE2        6.6900   48.2850   19.3330 N.am   35  GLN35      -0.0878
     18  N          1.8760   45.1330   16.6370 N.am   36  LYS36      -0.1966
     19  CA         1.0790   43.9430   16.3590 C.3    36  LYS36       0.1728
     20  C          1.8400   42.9840   15.4530 C.2    36  LYS36       0.2616
     21  O          2.5230   43.4120   14.5230 O.2    36  LYS36      -0.2715
     22  CB        -0.2500   44.3250   15.7050 C.3    36  LYS36       0.0311
     23  CG        -1.2630   44.9390   16.6600 C.3    36  LYS36       0.0038
     24  CD        -2.5680   45.2510   15.9390 C.3    36  LYS36       0.0206
     25  CE        -3.6120   45.8160   16.8910 C.3    36  LYS36       0.1093
     26  NZ        -4.8800   46.1790   16.1890 N.3    36  LYS36      -0.1314
     27  N          1.7270   41.6890   15.7280 N.am   37  ASN37      -0.1972
     28  CA         2.3560   40.6780   14.8860 C.3    37  ASN37       0.1688
     29  C          1.4580   40.3020   13.7140 C.2    37  ASN37       0.2292
     30  O          0.3470   39.8060   13.9070 O.2    37  ASN37      -0.2864
     31  CB         2.7080   39.4350   15.7040 C.3    37  ASN37       0.1181
     32  CG         3.8640   39.6740   16.6530 C.2    37  ASN37       0.2629
     33  OD1        5.0280   39.5930   16.2620 O.2    37  ASN37      -0.2716
     34  ND2        3.5480   39.9710   17.9090 N.am   37  ASN37      -0.0877
     35  N         -3.4190   38.5880   13.7170 N.3    56  PHE56      -0.1227
     36  CA        -2.5830   39.3390   14.6450 C.3    56  PHE56       0.1736
     37  C         -2.0260   38.3960   15.7090 C.2    56  PHE56       0.2595
     38  O         -1.8220   38.7850   16.8600 O.2    56  PHE56      -0.2718
     39  CB        -3.3620   40.4960   15.2780 C.3    56  PHE56       0.0547
     40  CG        -3.5710   41.6650   14.3510 C.ar   56  PHE56      -0.0202
     41  CD1       -2.5410   42.1190   13.5450 C.ar   56  PHE56      -0.0042
     42  CD2       -4.8010   42.3020   14.2800 C.ar   56  PHE56      -0.0042
     43  CE1       -2.7330   43.1930   12.6900 C.ar   56  PHE56      -0.0003
     44  CE2       -4.9980   43.3750   13.4270 C.ar   56  PHE56      -0.0003
     45  CZ        -3.9630   43.8200   12.6330 C.ar   56  PHE56      -0.0000
     46  N         -1.8050   37.1480   15.3020 N.am   57  ALA57      -0.1966
     47  CA        -1.1540   36.1330   16.1310 C.3    57  ALA57       0.1728
     48  C         -2.0430   35.4920   17.2000 C.2    57  ALA57       0.2617
     49  O         -1.9930   34.2770   17.3970 O.2    57  ALA57      -0.2715
     50  CB         0.1310   36.6800   16.7550 C.3    57  ALA57       0.0334
     51  N         -2.8530   36.2920   17.8860 N.am   58  SER58      -0.1936
     52  CA        -3.5960   35.7770   19.0340 C.3    58  SER58       0.2055
     53  C         -5.0730   36.1700   19.0820 C.2    58  SER58       0.2643
     54  O         -5.7870   35.7780   20.0040 O.2    58  SER58      -0.2714
     55  CB        -2.9140   36.1990   20.3370 C.3    58  SER58       0.2130
     56  OG        -3.0330   37.5940   20.5340 O.3    58  SER58      -0.2179
     57  N         -5.5340   36.9410   18.1040 N.am   59  THR59      -0.1950
     58  CA        -6.9370   37.3420   18.0790 C.3    59  THR59       0.1897
     59  C         -7.7950   36.3520   17.2930 C.2    59  THR59       0.2313
     60  O         -7.6330   36.1990   16.0840 O.2    59  THR59      -0.2863
     61  CB        -7.1250   38.7570   17.4990 C.3    59  THR59       0.1794
     62  OG1       -6.3410   39.6940   18.2500 O.3    59  THR59      -0.2208
     63  CG2       -8.5900   39.1660   17.5670 C.3    59  THR59       0.0378
     64  N         -0.5350   32.2870   19.8290 N.3    71  SER71      -0.1202
     65  CA         0.4290   32.9830   20.6720 C.3    71  SER71       0.2020
     66  C          1.7900   33.0620   19.9930 C.2    71  SER71       0.2619
     67  O          2.0070   32.4510   18.9470 O.2    71  SER71      -0.2717
     68  CB         0.5550   32.2870   22.0270 C.3    71  SER71       0.2103
     69  OG         1.0560   30.9700   21.8740 O.3    71  SER71      -0.2182
     70  N          2.7050   33.8150   20.5930 N.am   72  GLY72      -0.1942
     71  CA         4.0250   34.0040   20.0220 C.3    72  GLY72       0.2014
     72  C          4.1940   35.4030   19.4670 C.2    72  GLY72       0.2639
     73  O          3.2220   36.0480   19.0810 O.2    72  GLY72      -0.2714
     74  N          5.4340   35.8750   19.4210 N.am   73  SER73      -0.1949
     75  CA         5.7190   37.2120   18.9160 C.3    73  SER73       0.1924
     76  C          7.0870   37.2570   18.2490 C.2    73  SER73       0.2314
     77  O          8.0080   36.5530   18.6600 O.2    73  SER73      -0.2863
     78  CB         5.6470   38.2370   20.0500 C.3    73  SER73       0.2116
     79  OG         5.8170   39.5560   19.5630 O.3    73  SER73      -0.2180
@<TRIPOS>BOND
     1    45    43   ar
     2    45    44   ar
     3    43    41   ar
     4    44    42   ar
     5    41    40   ar
     6     1     2    1
     7    29    30    2
     8    29    28    1
     9     4     3    2
    10    35    36    1
    11     3     2    1
    12    42    40   ar
    13    40    39    1
    14    21    20    2
    15     2     5    1
    16    36    39    1
    17    36    37    1
    18    28    31    1
    19    28    27    1
    20    46    37   am
    21    46    47    1
    22    20    27   am
    23    20    19    1
    24    31    32    1
    25    22    19    1
    26    22    23    1
    27    37    38    2
    28     5     6    1
    29    24    23    1
    30    24    25    1
    31    60    59    2
    32    47    50    1
    33    47    48    1
    34    26    25    1
    35    33    32    2
    36    19    18    1
    37    18    11   am
    38    32    34   am
    39     6     7    1
    40     6     8    1
    41     9    10    1
    42    48    49    2
    43    48    51   am
    44    59    58    1
    45    61    63    1
    46    61    58    1
    47    61    62    1
    48    11    10    1
    49    11    12    2
    50    51    52    1
    51    10    13    1
    52    58    57    1
    53    57    53   am
    54    76    77    2
    55    76    75    1
    56    75    74    1
    57    75    78    1
    58    67    66    2
    59    52    53    1
    60    52    55    1
    61    73    72    2
    62    53    54    2
    63    17    15   am
    64    74    72   am
    65    72    71    1
    66    13    14    1
    67    79    78    1
    68    15    14    1
    69    15    16    2
    70    64    65    1
    71    66    70   am
    72    66    65    1
    73    71    70    1
    74    55    56    1
    75    65    68    1
    76    69    68    1
