@<TRIPOS>MOLECULE
tmp/3uk2A01.pdb
 107 101 0 0 0
SMALL
GASTEIGER

@<TRIPOS>ATOM
      1  N         39.4610  -15.6710  -41.6740 N.3    27  MET27      -0.1245
      2  CA        38.6730  -16.9000  -41.5950 C.3    27  MET27       0.1570
      3  C         37.2600  -16.6270  -41.0430 C.2    27  MET27       0.2261
      4  O         36.5620  -17.5480  -40.6200 O.2    27  MET27      -0.2867
      5  CB        39.4150  -17.9620  -40.7710 C.3    27  MET27       0.0387
      6  CG        40.7550  -18.4070  -41.3670 C.3    27  MET27       0.0595
      7  SD        41.1720  -20.1800  -41.1230 S.3    27  MET27      -0.1393
      8  CE        41.3370  -20.1430  -39.3380 C.3    27  MET27       0.0692
      9  N         45.0060  -25.6920  -43.2910 N.3    58  GLN58      -0.1231
     10  CA        45.7130  -25.2850  -42.0820 C.3    58  GLN58       0.1698
     11  C         45.0910  -25.7990  -40.7610 C.2    58  GLN58       0.2592
     12  O         45.3870  -25.2640  -39.6900 O.2    58  GLN58      -0.2718
     13  CB        45.9300  -23.7650  -42.0540 C.3    58  GLN58       0.0381
     14  CG        44.7050  -22.9200  -41.8130 C.3    58  GLN58       0.0905
     15  CD        44.9380  -21.4570  -42.1060 C.2    58  GLN58       0.2608
     16  OE1       45.0060  -21.0260  -43.2750 O.2    58  GLN58      -0.2717
     17  NE2       45.0180  -20.6730  -41.0470 N.am   58  GLN58      -0.0878
     18  N         44.2440  -26.8220  -40.8290 N.am   59  PHE59      -0.1976
     19  CA        43.7530  -27.5150  -39.6220 C.3    59  PHE59       0.1639
     20  C         44.2240  -28.9490  -39.6700 C.2    59  PHE59       0.2290
     21  O         44.0940  -29.6210  -40.6810 O.2    59  PHE59      -0.2864
     22  CB        42.2150  -27.5190  -39.5080 C.3    59  PHE59       0.0560
     23  CG        41.6180  -26.1650  -39.2680 C.ar   59  PHE59      -0.0200
     24  CD1       41.5420  -25.2440  -40.2990 C.ar   59  PHE59      -0.0042
     25  CD2       41.1330  -25.8160  -38.0110 C.ar   59  PHE59      -0.0042
     26  CE1       40.9740  -23.9970  -40.1010 C.ar   59  PHE59      -0.0003
     27  CE2       40.5730  -24.5760  -37.8010 C.ar   59  PHE59      -0.0003
     28  CZ        40.4870  -23.6550  -38.8500 C.ar   59  PHE59      -0.0000
     29  N         34.6200  -24.5410  -35.9840 N.3    68  TYR68      -0.1241
     30  CA        35.1780  -23.1700  -36.1160 C.3    68  TYR68       0.1605
     31  C         34.0150  -22.2300  -36.3380 C.2    68  TYR68       0.2264
     32  O         33.1100  -22.5490  -37.0820 O.2    68  TYR68      -0.2867
     33  CB        36.2060  -23.0120  -37.2510 C.3    68  TYR68       0.0534
     34  CG        36.9990  -21.7220  -37.1320 C.ar   68  TYR68      -0.0201
     35  CD1       38.1310  -21.6640  -36.3270 C.ar   68  TYR68      -0.0009
     36  CD2       36.5930  -20.5450  -37.7730 C.ar   68  TYR68      -0.0009
     37  CE1       38.8430  -20.4940  -36.1590 C.ar   68  TYR68       0.0417
     38  CE2       37.3060  -19.3550  -37.6190 C.ar   68  TYR68       0.0417
     39  CZ        38.4270  -19.3410  -36.7940 C.ar   68  TYR68       0.1957
     40  OH        39.1720  -18.2100  -36.6070 O.3    68  TYR68      -0.2866
     41  N         52.1140  -27.5650  -34.2620 N.3   119  ARG119     -0.1245
     42  CA        51.0580  -27.7700  -35.2450 C.3   119  ARG119      0.1563
     43  C         51.7410  -28.1620  -36.5530 C.2   119  ARG119      0.2260
     44  O         51.8790  -27.3390  -37.4380 O.2   119  ARG119     -0.2867
     45  CB        50.2450  -26.4900  -35.4150 C.3   119  ARG119      0.0307
     46  CG        49.5040  -26.0510  -34.1680 C.3   119  ARG119      0.0489
     47  CD        48.6680  -24.8150  -34.4400 C.3   119  ARG119      0.2205
     48  NE        47.4670  -25.1210  -35.2080 N.pl3 119  ARG119     -0.0865
     49  CZ        46.6000  -24.2170  -35.6530 C.cat 119  ARG119      0.5346
     50  NH1       46.7830  -22.9030  -35.4420 N.pl3 119  ARG119      0.1354
     51  NH2       45.5560  -24.6230  -36.3370 N.pl3 119  ARG119      0.1354
     52  N         51.2670  -26.8130  -40.3080 N.3   122  PHE122     -0.1241
     53  CA        50.4370  -25.6020  -40.2800 C.3   122  PHE122      0.1605
     54  C         50.8290  -24.5760  -41.3510 C.2   122  PHE122      0.2264
     55  O         49.9730  -24.1580  -42.1250 O.2   122  PHE122     -0.2867
     56  CB        50.4710  -24.9660  -38.8960 C.3   122  PHE122      0.0534
     57  CG        49.6450  -23.7180  -38.7700 C.ar  122  PHE122     -0.0203
     58  CD1       48.2780  -23.7610  -38.9350 C.ar  122  PHE122     -0.0042
     59  CD2       50.2430  -22.4870  -38.4960 C.ar  122  PHE122     -0.0042
     60  CE1       47.5200  -22.6050  -38.8240 C.ar  122  PHE122     -0.0003
     61  CE2       49.4810  -21.3270  -38.3520 C.ar  122  PHE122     -0.0003
     62  CZ        48.1220  -21.3890  -38.5200 C.ar  122  PHE122     -0.0000
     63  N         49.1680  -10.2580  -34.1040 N.3   147  LYS147     -0.1231
     64  CA        48.6350  -11.3040  -33.2210 C.3   147  LYS147      0.1693
     65  C         49.1330  -12.7040  -33.6460 C.2   147  LYS147      0.2592
     66  O         49.4840  -13.5170  -32.8050 O.2   147  LYS147     -0.2718
     67  CB        47.0830  -11.2010  -33.1760 C.3   147  LYS147      0.0285
     68  CG        46.2810  -12.4750  -32.8730 C.3   147  LYS147      0.0035
     69  CD        45.9820  -12.6720  -31.4220 C.3   147  LYS147      0.0206
     70  CE        44.9870  -13.8240  -31.2000 C.3   147  LYS147      0.1093
     71  NZ        45.2420  -15.1540  -31.8370 N.3   147  LYS147     -0.1314
     72  N         49.1540  -12.9630  -34.9420 N.am  148  ASP148     -0.1974
     73  CA        49.8160  -14.1200  -35.4990 C.3   148  ASP148      0.1709
     74  C         51.1720  -13.6810  -36.0110 C.2   148  ASP148      0.2293
     75  O         51.3960  -13.5040  -37.1950 O.2   148  ASP148     -0.2864
     76  CB        48.9450  -14.7350  -36.5830 C.3   148  ASP148      0.1436
     77  CG        47.6030  -15.1610  -36.0410 C.2   148  ASP148      0.3671
     78  OD1       47.5150  -16.2590  -35.4060 O.co2 148  ASP148     -0.2456
     79  OD2       46.6430  -14.3730  -36.2160 O.co2 148  ASP148     -0.2456
     80  N         53.1580  -16.1140  -38.3430 N.3   151  GLN151     -0.1245
     81  CA        52.4370  -16.0110  -39.6050 C.3   151  GLN151      0.1566
     82  C         52.8030  -14.7700  -40.3960 C.2   151  GLN151      0.2260
     83  O         53.0870  -14.8480  -41.5930 O.2   151  GLN151     -0.2867
     84  CB        50.9060  -15.9870  -39.3930 C.3   151  GLN151      0.0367
     85  CG        50.1220  -15.8190  -40.7050 C.3   151  GLN151      0.0905
     86  CD        48.6280  -16.0110  -40.5540 C.2   151  GLN151      0.2608
     87  OE1       48.0970  -17.1070  -40.8020 O.2   151  GLN151     -0.2717
     88  NE2       47.9370  -14.9690  -40.1140 N.am  151  GLN151     -0.0878
     89  N         38.0880  -17.9440  -31.5580 N.3   185  ARG185     -0.1245
     90  CA        38.1840  -19.0890  -30.6640 C.3   185  ARG185      0.1563
     91  C         37.9250  -18.7400  -29.1950 C.2   185  ARG185      0.2260
     92  O         37.6260  -19.6400  -28.4040 O.2   185  ARG185     -0.2867
     93  CB        39.5380  -19.7870  -30.7810 C.3   185  ARG185      0.0307
     94  CG        39.9130  -20.3180  -32.1680 C.3   185  ARG185      0.0489
     95  CD        41.1100  -21.2430  -32.0430 C.3   185  ARG185      0.2205
     96  NE        41.2680  -22.1710  -33.1690 N.pl3 185  ARG185     -0.0865
     97  CZ        41.9720  -21.9470  -34.2770 C.cat 185  ARG185      0.5346
     98  NH1       42.6410  -20.8010  -34.4720 N.pl3 185  ARG185      0.1354
     99  NH2       42.0290  -22.9010  -35.2050 N.pl3 185  ARG185      0.1354
    100  N         46.9660  -18.0980  -28.2930 N.3   275  ILE275     -0.1245
    101  CA        48.2960  -17.6010  -28.5950 C.3   275  ILE275      0.1561
    102  C         48.2740  -16.0960  -28.4280 C.2   275  ILE275      0.2260
    103  O         47.2200  -15.4730  -28.5040 O.2   275  ILE275     -0.2867
    104  CB        48.8030  -18.0490  -29.9830 C.3   275  ILE275      0.0252
    105  CG1       48.2270  -17.2140  -31.1220 C.3   275  ILE275      0.0019
    106  CG2       48.5270  -19.5470  -30.2240 C.3   275  ILE275      0.0019
    107  CD1       48.9130  -17.5160  -32.4430 C.3   275  ILE275      0.0001
@<TRIPOS>BOND
     1     9    10    1
     2    16    15    2
     3    55    54    2
     4    15    14    1
     5    15    17   am
     6    10    13    1
     7    10    11    1
     8    13    14    1
     9     1     2    1
    10     2     3    1
    11     2     5    1
    12    83    82    2
    13     6     7    1
    14     6     5    1
    15    54    53    1
    16     7     8    1
    17     3     4    2
    18    18    11   am
    19    18    19    1
    20    87    86    2
    21    11    12    2
    22    85    86    1
    23    85    84    1
    24    21    20    2
    25    86    88   am
    26    82    81    1
    27    52    53    1
    28    24    26   ar
    29    24    23   ar
    30    53    56    1
    31    26    28   ar
    32    20    19    1
    33    19    22    1
    34    81    84    1
    35    81    80    1
    36    22    23    1
    37    23    25   ar
    38    58    60   ar
    39    58    57   ar
    40    56    57    1
    41    28    27   ar
    42    60    62   ar
    43    57    59   ar
    44    62    61   ar
    45    59    61   ar
    46    25    27   ar
    47    36    38   ar
    48    36    34   ar
    49    38    39   ar
    50    44    43    2
    51    33    34    1
    52    33    30    1
    53    75    74    2
    54    34    35   ar
    55    32    31    2
    56    39    40    1
    57    39    37   ar
    58    76    77    1
    59    76    73    1
    60    43    42    1
    61    31    30    1
    62    51    49    1
    63    35    37   ar
    64    79    77   ar
    65    30    29    1
    66    77    78   ar
    67    74    73    1
    68    49    50    1
    69    49    48    2
    70    73    72    1
    71    45    42    1
    72    45    46    1
    73    42    41    1
    74    48    47    1
    75    99    97    1
    76    72    65   am
    77    98    97    1
    78    47    46    1
    79    97    96    2
    80    63    64    1
    81    65    64    1
    82    65    66    2
    83    64    67    1
    84    67    68    1
    85    96    95    1
    86    68    69    1
    87   107   105    1
    88    94    95    1
    89    94    93    1
    90    71    70    1
    91    89    90    1
    92    69    70    1
    93   105   104    1
    94    93    90    1
    95    90    91    1
    96   106   104    1
    97   104   101    1
    98    91    92    2
    99   101   102    1
   100   101   100    1
   101   103   102    2
