@<TRIPOS>MOLECULE
tmp/3uk2A00.pdb
 181 175 0 0 0
SMALL
GASTEIGER

@<TRIPOS>ATOM
      1  N         42.8980  -10.9180  -45.7950 N.3    25  PRO25      -0.2102
      2  CA        42.3690  -12.2720  -45.6240 C.3    25  PRO25       0.1504
      3  C         42.0110  -12.6180  -44.1680 C.2    25  PRO25       0.2576
      4  O         42.7760  -12.3330  -43.2370 O.2    25  PRO25      -0.2718
      5  CB        43.5050  -13.1750  -46.1090 C.3    25  PRO25       0.0282
      6  CG        44.7610  -12.3640  -45.9810 C.3    25  PRO25       0.0208
      7  CD        44.3280  -10.9250  -46.1540 C.3    25  PRO25       0.0893
      8  N         40.8460  -13.2460  -44.0050 N.am   26  THR26      -0.1939
      9  CA        40.3550  -13.6680  -42.7110 C.3    26  THR26       0.2028
     10  C         39.6880  -15.0520  -42.8320 C.2    26  THR26       0.2642
     11  O         39.4070  -15.5550  -43.9340 O.2    26  THR26      -0.2714
     12  CB        39.3520  -12.6650  -42.0830 C.3    26  THR26       0.1808
     13  OG1       38.0110  -12.8910  -42.5610 O.3    26  THR26      -0.2208
     14  CG2       39.7380  -11.1810  -42.3150 C.3    26  THR26       0.0379
     15  N         39.4610  -15.6710  -41.6740 N.am   27  MET27      -0.1962
     16  CA        38.6730  -16.9000  -41.5950 C.3    27  MET27       0.1736
     17  C         37.2600  -16.6270  -41.0430 C.2    27  MET27       0.2617
     18  O         36.5620  -17.5480  -40.6200 O.2    27  MET27      -0.2715
     19  CB        39.4150  -17.9620  -40.7710 C.3    27  MET27       0.0427
     20  CG        40.7550  -18.4070  -41.3670 C.3    27  MET27       0.0599
     21  SD        41.1720  -20.1800  -41.1230 S.3    27  MET27      -0.1393
     22  CE        41.3370  -20.1430  -39.3380 C.3    27  MET27       0.0692
     23  N         36.8170  -15.3720  -41.0690 N.am   28  GLY28      -0.1955
     24  CA        35.4500  -15.0440  -40.6650 C.3    28  GLY28       0.1869
     25  C         35.1940  -14.9710  -39.1650 C.2    28  GLY28       0.2309
     26  O         36.1350  -14.9700  -38.3290 O.2    28  GLY28      -0.2863
     27  N         35.3960   -9.9010  -35.5090 N.3    31  HIS31      -0.1241
     28  CA        35.4770   -9.1320  -34.2720 C.3    31  HIS31       0.1621
     29  C         36.2730   -7.8290  -34.4680 C.2    31  HIS31       0.2264
     30  O         36.7320   -7.5010  -35.5690 O.2    31  HIS31      -0.2867
     31  CB        36.0700   -9.9940  -33.1680 C.3    31  HIS31       0.0745
     32  CG        37.3850  -10.6310  -33.5330 C.ar   31  HIS31       0.0817
     33  ND1       38.5080   -9.9100  -33.7460 N.ar   31  HIS31      -0.2268
     34  CD2       37.7300  -11.9700  -33.7270 C.ar   31  HIS31       0.1154
     35  CE1       39.5160  -10.7420  -34.0550 C.ar   31  HIS31       0.1986
     36  NE2       39.0360  -12.0080  -34.0500 N.ar   31  HIS31      -0.2212
     37  N         39.1860   -6.9220  -33.8370 N.3    33  GLY33      -0.1210
     38  CA        40.5270   -7.0680  -34.3870 C.3    33  GLY33       0.1956
     39  C         40.5170   -7.0340  -35.9130 C.2    33  GLY33       0.2611
     40  O         41.2800   -6.2940  -36.5280 O.2    33  GLY33      -0.2717
     41  N         39.6290   -7.8180  -36.5130 N.am   34  HIS34      -0.1975
     42  CA        39.4400   -7.7760  -37.9850 C.3    34  HIS34       0.1656
     43  C         39.0380   -6.4290  -38.4850 C.2    34  HIS34       0.2291
     44  O         39.5170   -5.9700  -39.5190 O.2    34  HIS34      -0.2864
     45  CB        38.3630   -8.7420  -38.4440 C.3    34  HIS34       0.0771
     46  CG        38.6070  -10.1890  -38.0620 C.ar   34  HIS34       0.0820
     47  ND1       37.8890  -10.8140  -37.1130 N.ar   34  HIS34      -0.2267
     48  CD2       39.4860  -11.1350  -38.5710 C.ar   34  HIS34       0.1154
     49  CE1       38.2880  -12.1110  -37.0320 C.ar   34  HIS34       0.1986
     50  NE2       39.2680  -12.2960  -37.9060 N.ar   34  HIS34      -0.2212
     51  N         41.8110   -4.0820  -38.8410 N.3    37  LEU37      -0.1245
     52  CA        42.5990   -4.3340  -40.0550 C.3    37  LEU37       0.1561
     53  C         41.9310   -3.7240  -41.2830 C.2    37  LEU37       0.2260
     54  O         42.6200   -3.1920  -42.1480 O.2    37  LEU37      -0.2867
     55  CB        42.8570   -5.8390  -40.2970 C.3    37  LEU37       0.0270
     56  CG        44.1540   -6.4050  -39.6290 C.3    37  LEU37       0.0019
     57  CD1       44.0430   -6.3880  -38.1190 C.3    37  LEU37       0.0001
     58  CD2       44.4390   -7.8270  -40.1040 C.3    37  LEU37       0.0001
     59  N         45.0060  -25.6920  -43.2910 N.3    58  GLN58      -0.1245
     60  CA        45.7130  -25.2850  -42.0820 C.3    58  GLN58       0.1566
     61  C         45.0910  -25.7990  -40.7610 C.2    58  GLN58       0.2260
     62  O         45.3870  -25.2640  -39.6900 O.2    58  GLN58      -0.2867
     63  CB        45.9300  -23.7650  -42.0540 C.3    58  GLN58       0.0367
     64  CG        44.7050  -22.9200  -41.8130 C.3    58  GLN58       0.0905
     65  CD        44.9380  -21.4570  -42.1060 C.2    58  GLN58       0.2608
     66  OE1       45.0060  -21.0260  -43.2750 O.2    58  GLN58      -0.2717
     67  NE2       45.0180  -20.6730  -41.0470 N.am   58  GLN58      -0.0878
     68  N         34.6200  -24.5410  -35.9840 N.3    68  TYR68      -0.1241
     69  CA        35.1780  -23.1700  -36.1160 C.3    68  TYR68       0.1605
     70  C         34.0150  -22.2300  -36.3380 C.2    68  TYR68       0.2264
     71  O         33.1100  -22.5490  -37.0820 O.2    68  TYR68      -0.2867
     72  CB        36.2060  -23.0120  -37.2510 C.3    68  TYR68       0.0534
     73  CG        36.9990  -21.7220  -37.1320 C.ar   68  TYR68      -0.0201
     74  CD1       38.1310  -21.6640  -36.3270 C.ar   68  TYR68      -0.0009
     75  CD2       36.5930  -20.5450  -37.7730 C.ar   68  TYR68      -0.0009
     76  CE1       38.8430  -20.4940  -36.1590 C.ar   68  TYR68       0.0417
     77  CE2       37.3060  -19.3550  -37.6190 C.ar   68  TYR68       0.0417
     78  CZ        38.4270  -19.3410  -36.7940 C.ar   68  TYR68       0.1957
     79  OH        39.1720  -18.2100  -36.6070 O.3    68  TYR68      -0.2866
     80  N         47.0940   -6.7420  -45.5930 N.3   143  VAL143     -0.1231
     81  CA        47.2530   -6.4700  -44.1620 C.3   143  VAL143      0.1692
     82  C         47.1560   -7.7880  -43.3460 C.2   143  VAL143      0.2592
     83  O         46.1660   -8.5360  -43.4520 O.2   143  VAL143     -0.2718
     84  CB        46.2000   -5.4480  -43.6520 C.3   143  VAL143      0.0266
     85  CG1       46.3780   -5.1620  -42.1670 C.3   143  VAL143      0.0020
     86  CG2       46.2630   -4.1550  -44.4620 C.3   143  VAL143      0.0020
     87  N         48.1870   -8.0490  -42.5440 N.am  144  PHE144     -0.1962
     88  CA        48.2260   -9.1770  -41.6030 C.3   144  PHE144      0.1771
     89  C         48.4710   -8.6760  -40.1660 C.2   144  PHE144      0.2620
     90  O         49.1280   -7.6510  -39.9450 O.2   144  PHE144     -0.2715
     91  CB        49.2850  -10.2040  -42.0230 C.3   144  PHE144      0.0574
     92  CG        48.8790  -11.0600  -43.2090 C.ar  144  PHE144     -0.0200
     93  CD1       48.9460  -10.5570  -44.4960 C.ar  144  PHE144     -0.0042
     94  CD2       48.4500  -12.3660  -43.0370 C.ar  144  PHE144     -0.0042
     95  CE1       48.5640  -11.3280  -45.5860 C.ar  144  PHE144     -0.0003
     96  CE2       48.0850  -13.1600  -44.1290 C.ar  144  PHE144     -0.0003
     97  CZ        48.1380  -12.6400  -45.4030 C.ar  144  PHE144     -0.0000
     98  N         47.9170   -9.3940  -39.1880 N.am  145  GLY145     -0.1954
     99  CA        47.9690   -8.9510  -37.7820 C.3   145  GLY145      0.1869
    100  C         49.2120   -9.4280  -37.0700 C.2   145  GLY145      0.2309
    101  O         49.6570  -10.5290  -37.3080 O.2   145  GLY145     -0.2863
    102  N         49.1680  -10.2580  -34.1040 N.3   147  LYS147     -0.1231
    103  CA        48.6350  -11.3040  -33.2210 C.3   147  LYS147      0.1693
    104  C         49.1330  -12.7040  -33.6460 C.2   147  LYS147      0.2592
    105  O         49.4840  -13.5170  -32.8050 O.2   147  LYS147     -0.2718
    106  CB        47.0830  -11.2010  -33.1760 C.3   147  LYS147      0.0285
    107  CG        46.2810  -12.4750  -32.8730 C.3   147  LYS147      0.0035
    108  CD        45.9820  -12.6720  -31.4220 C.3   147  LYS147      0.0206
    109  CE        44.9870  -13.8240  -31.2000 C.3   147  LYS147      0.1093
    110  NZ        45.2420  -15.1540  -31.8370 N.3   147  LYS147     -0.1314
    111  N         49.1540  -12.9630  -34.9420 N.am  148  ASP148     -0.1974
    112  CA        49.8160  -14.1200  -35.4990 C.3   148  ASP148      0.1709
    113  C         51.1720  -13.6810  -36.0110 C.2   148  ASP148      0.2293
    114  O         51.3960  -13.5040  -37.1950 O.2   148  ASP148     -0.2864
    115  CB        48.9450  -14.7350  -36.5830 C.3   148  ASP148      0.1436
    116  CG        47.6030  -15.1610  -36.0410 C.2   148  ASP148      0.3671
    117  OD1       47.5150  -16.2590  -35.4060 O.co2 148  ASP148     -0.2456
    118  OD2       46.6430  -14.3730  -36.2160 O.co2 148  ASP148     -0.2456
    119  N         53.1580  -16.1140  -38.3430 N.3   151  GLN151     -0.1245
    120  CA        52.4370  -16.0110  -39.6050 C.3   151  GLN151      0.1566
    121  C         52.8030  -14.7700  -40.3960 C.2   151  GLN151      0.2260
    122  O         53.0870  -14.8480  -41.5930 O.2   151  GLN151     -0.2867
    123  CB        50.9060  -15.9870  -39.3930 C.3   151  GLN151      0.0367
    124  CG        50.1220  -15.8190  -40.7050 C.3   151  GLN151      0.0905
    125  CD        48.6280  -16.0110  -40.5540 C.2   151  GLN151      0.2608
    126  OE1       48.0970  -17.1070  -40.8020 O.2   151  GLN151     -0.2717
    127  NE2       47.9370  -14.9690  -40.1140 N.am  151  GLN151     -0.0878
    128  N         48.7110   -3.8230  -35.4960 N.3   172  GLU172     -0.1231
    129  CA        48.7880   -4.1340  -34.0610 C.3   172  GLU172      0.1699
    130  C         47.6310   -5.0170  -33.5860 C.2   172  GLU172      0.2593
    131  O         46.4940   -4.9270  -34.0820 O.2   172  GLU172     -0.2718
    132  CB        48.8480   -2.8790  -33.1790 C.3   172  GLU172      0.0402
    133  CG        50.0570   -1.9640  -33.4340 C.3   172  GLU172      0.1161
    134  CD        51.4090   -2.5810  -33.0450 C.2   172  GLU172      0.3649
    135  OE1       51.5580   -3.1790  -31.9580 O.co2 172  GLU172     -0.2457
    136  OE2       52.3580   -2.4440  -33.8320 O.co2 172  GLU172     -0.2457
    137  N         47.9540   -5.8470  -32.5960 N.am  173  THR173     -0.1939
    138  CA        47.0090   -6.7340  -31.9750 C.3   173  THR173      0.2028
    139  C         45.9780   -5.9250  -31.2190 C.2   173  THR173      0.2642
    140  O         46.3380   -5.0370  -30.4150 O.2   173  THR173     -0.2714
    141  CB        47.7330   -7.7210  -31.0210 C.3   173  THR173      0.1808
    142  OG1       48.6360   -8.5360  -31.7950 O.3   173  THR173     -0.2208
    143  CG2       46.7330   -8.6240  -30.2780 C.3   173  THR173      0.0379
    144  N         44.7070   -6.2360  -31.4790 N.am  174  VAL174     -0.1977
    145  CA        43.6000   -5.6850  -30.7060 C.3   174  VAL174      0.1596
    146  C         43.1650   -6.6150  -29.5630 C.2   174  VAL174      0.2287
    147  O         42.9290   -7.7940  -29.7720 O.2   174  VAL174     -0.2864
    148  CB        42.3920   -5.4110  -31.6100 C.3   174  VAL174      0.0276
    149  CG1       41.2320   -4.8740  -30.7890 C.3   174  VAL174      0.0022
    150  CG2       42.7930   -4.4410  -32.7230 C.3   174  VAL174      0.0022
    151  N         41.8670  -10.5910  -28.9150 N.3   182  LEU182     -0.1231
    152  CA        40.5930  -10.9970  -29.5390 C.3   182  LEU182      0.1693
    153  C         40.8220  -12.1300  -30.5330 C.2   182  LEU182      0.2593
    154  O         41.8170  -12.1510  -31.2630 O.2   182  LEU182     -0.2718
    155  CB        39.8990   -9.8200  -30.2360 C.3   182  LEU182      0.0284
    156  CG        39.4810   -8.6580  -29.3230 C.3   182  LEU182      0.0019
    157  CD1       38.8080   -7.5530  -30.1410 C.3   182  LEU182      0.0001
    158  CD2       38.5670   -9.1590  -28.1810 C.3   182  LEU182      0.0001
    159  N         39.9250  -13.1050  -30.4890 N.am  183  SER183     -0.1938
    160  CA        39.9900  -14.2660  -31.3590 C.3   183  SER183      0.2055
    161  C         38.6200  -14.9100  -31.3450 C.2   183  SER183      0.2644
    162  O         37.9780  -15.0050  -30.3050 O.2   183  SER183     -0.2714
    163  CB        41.0700  -15.2840  -30.9250 C.3   183  SER183      0.2130
    164  OG        41.0500  -16.5000  -31.7300 O.3   183  SER183     -0.2179
    165  N         38.1940  -15.3370  -32.5190 N.am  184  SER184     -0.1935
    166  CA        36.9600  -16.0830  -32.6740 C.3   184  SER184      0.2055
    167  C         36.9230  -17.3240  -31.7820 C.2   184  SER184      0.2642
    168  O         35.8580  -17.7040  -31.3130 O.2   184  SER184     -0.2714
    169  CB        36.8160  -16.5180  -34.1290 C.3   184  SER184      0.2130
    170  OG        36.7220  -15.3860  -34.9620 O.3   184  SER184     -0.2179
    171  N         38.0880  -17.9440  -31.5580 N.am  185  ARG185     -0.1977
    172  CA        38.1840  -19.0890  -30.6640 C.3   185  ARG185      0.1597
    173  C         37.9250  -18.7400  -29.1950 C.2   185  ARG185      0.2287
    174  O         37.6260  -19.6400  -28.4040 O.2   185  ARG185     -0.2864
    175  CB        39.5380  -19.7870  -30.7810 C.3   185  ARG185      0.0334
    176  CG        39.9130  -20.3180  -32.1680 C.3   185  ARG185      0.0492
    177  CD        41.1100  -21.2430  -32.0430 C.3   185  ARG185      0.2205
    178  NE        41.2680  -22.1710  -33.1690 N.pl3 185  ARG185     -0.0865
    179  CZ        41.9720  -21.9470  -34.2770 C.cat 185  ARG185      0.5346
    180  NH1       42.6410  -20.8010  -34.4720 N.pl3 185  ARG185      0.1354
    181  NH2       42.0290  -22.9010  -35.2050 N.pl3 185  ARG185      0.1354
@<TRIPOS>BOND
     1     7     6    1
     2     7     1    1
     3     5     6    1
     4     5     2    1
     5     1     2    1
     6     2     3    1
     7    80    81    1
     8    95    97   ar
     9    95    93   ar
    10    97    96   ar
    11    93    92   ar
    12    86    84    1
    13     3     8   am
    14     3     4    2
    15    81    84    1
    16    81    82    1
    17    96    94   ar
    18     8     9    1
    19    11    10    2
    20    84    85    1
    21    83    82    2
    22    82    87   am
    23    59    60    1
    24    66    65    2
    25    92    94   ar
    26    92    91    1
    27    10     9    1
    28    10    15   am
    29     9    12    1
    30    13    12    1
    31    87    88    1
    32    14    12    1
    33    54    53    2
    34    65    64    1
    35    65    67   am
    36    60    63    1
    37    60    61    1
    38    63    64    1
    39    91    88    1
    40    15    16    1
    41    88    89    1
    42    16    17    1
    43    16    19    1
    44   122   121    2
    45    20    21    1
    46    20    19    1
    47    53    52    1
    48    21    22    1
    49    23    17   am
    50    23    24    1
    51    17    18    2
    52   126   125    2
    53    61    62    2
    54   124   125    1
    55   124   123    1
    56    24    25    1
    57   125   127   am
    58   121   120    1
    59    55    52    1
    60    55    56    1
    61    89    90    2
    62    89    98   am
    63    58    56    1
    64    52    51    1
    65    56    57    1
    66   120   123    1
    67   120   119    1
    68    44    43    2
    69    98    99    1
    70    25    26    2
    71    48    46   ar
    72    48    50   ar
    73    43    42    1
    74    45    46    1
    75    45    42    1
    76    46    47   ar
    77    42    41    1
    78    50    49   ar
    79    99   100    1
    80    75    77   ar
    81    75    73   ar
    82    77    78   ar
    83   101   100    2
    84    72    73    1
    85    72    69    1
    86   114   113    2
    87    73    74   ar
    88    47    49   ar
    89    71    70    2
    90    78    79    1
    91    78    76   ar
    92   115   116    1
    93   115   112    1
    94    40    39    2
    95    41    39   am
    96    70    69    1
    97    74    76   ar
    98   118   116   ar
    99    69    68    1
   100   116   117   ar
   101   113   112    1
   102    39    38    1
   103    30    29    2
   104    27    28    1
   105   112   111    1
   106   128   129    1
   107   181   179    1
   108   170   169    1
   109   111   104   am
   110   180   179    1
   111    29    28    1
   112    38    37    1
   113   179   178    2
   114    28    31    1
   115   169   166    1
   116   102   103    1
   117   131   130    2
   118   129   130    1
   119   129   132    1
   120    35    36   ar
   121    35    33   ar
   122    36    34   ar
   123   136   134   ar
   124    33    32   ar
   125    34    32   ar
   126   104   103    1
   127   104   105    2
   128   130   137   am
   129    32    31    1
   130   133   132    1
   131   133   134    1
   132   103   106    1
   133   106   107    1
   134   178   177    1
   135   134   135   ar
   136   107   108    1
   137   150   148    1
   138   166   165    1
   139   166   167    1
   140   137   138    1
   141   165   161   am
   142   176   177    1
   143   176   175    1
   144   138   139    1
   145   138   141    1
   146   110   109    1
   147   142   141    1
   148   167   171   am
   149   167   168    2
   150   164   163    1
   151   148   149    1
   152   148   145    1
   153   171   172    1
   154   144   139   am
   155   144   145    1
   156   108   109    1
   157   160   161    1
   158   160   163    1
   159   160   159    1
   160   161   162    2
   161   154   153    2
   162   139   140    2
   163   141   143    1
   164   175   172    1
   165   145   146    1
   166   172   173    1
   167   153   159   am
   168   153   152    1
   169   155   152    1
   170   155   156    1
   171   157   156    1
   172   147   146    2
   173   152   151    1
   174   156   158    1
   175   173   174    2
