@<TRIPOS>MOLECULE
tmp/3uk6G00.pdb
 190 184 0 0 0
SMALL
GASTEIGER

@<TRIPOS>ATOM
      1  N        -55.3960    8.7330   87.0480 N.3    18  ALA18      -0.1231
      2  CA       -55.4810    7.8710   85.8620 C.3    18  ALA18       0.1694
      3  C        -56.2340    6.5460   86.0690 C.2    18  ALA18       0.2592
      4  O        -56.6130    5.9440   85.0760 O.2    18  ALA18      -0.2718
      5  CB       -54.0760    7.5770   85.3460 C.3    18  ALA18       0.0304
      6  N        -56.4250    6.0820   87.3350 N.am   19  HIS19      -0.1976
      7  CA       -57.0660    4.8030   87.6340 C.3    19  HIS19       0.1656
      8  C        -58.2960    4.9560   88.5450 C.2    19  HIS19       0.2291
      9  O        -58.6880    4.0130   89.2590 O.2    19  HIS19      -0.2864
     10  CB       -56.0370    3.7960   88.2030 C.3    19  HIS19       0.0771
     11  CG       -54.7800    3.6870   87.3980 C.ar   19  HIS19       0.0820
     12  ND1      -54.6830    2.8240   86.3320 N.ar   19  HIS19      -0.2267
     13  CD2      -53.6150    4.3630   87.5150 C.ar   19  HIS19       0.1154
     14  CE1      -53.4610    2.9910   85.8420 C.ar   19  HIS19       0.1986
     15  NE2      -52.7890    3.9120   86.5160 N.ar   19  HIS19      -0.2212
     16  N        -61.4540    4.9720   87.9210 N.3    21  HIS21      -0.1226
     17  CA       -62.4640    3.9750   87.5790 C.3    21  HIS21       0.1752
     18  C        -62.1950    2.5860   88.1290 C.2    21  HIS21       0.2595
     19  O        -63.1580    1.8610   88.4070 O.2    21  HIS21      -0.2718
     20  CB       -62.6240    3.9000   86.0700 C.3    21  HIS21       0.0759
     21  CG       -61.3410    3.6720   85.3540 C.ar   21  HIS21       0.0818
     22  ND1      -60.3670    4.6420   85.3110 N.ar   21  HIS21      -0.2268
     23  CD2      -60.9090    2.5880   84.6780 C.ar   21  HIS21       0.1154
     24  CE1      -59.3700    4.1180   84.6220 C.ar   21  HIS21       0.1986
     25  NE2      -59.6530    2.8820   84.2220 N.ar   21  HIS21      -0.2212
     26  N        -60.9050    2.1950   88.2480 N.am   22  ILE22      -0.1980
     27  CA       -60.5170    0.8800   88.7630 C.3    22  ILE22       0.1595
     28  C        -61.0130    0.7070   90.2210 C.2    22  ILE22       0.2287
     29  O        -60.5030    1.3590   91.1390 O.2    22  ILE22      -0.2864
     30  CB       -59.0090    0.5630   88.5330 C.3    22  ILE22       0.0276
     31  CG1      -58.6040    0.7870   87.0640 C.3    22  ILE22       0.0022
     32  CG2      -58.6680   -0.8350   88.9870 C.3    22  ILE22       0.0022
     33  CD1      -59.2260   -0.1440   85.9950 C.3    22  ILE22       0.0001
     34  N        -64.7360   -1.1210   86.6560 N.3    39  GLY39      -0.1210
     35  CA       -63.8460   -0.2190   85.9380 C.3    39  GLY39       0.1956
     36  C        -62.9820   -0.8900   84.8930 C.2    39  GLY39       0.2612
     37  O        -62.6270   -0.2470   83.9080 O.2    39  GLY39      -0.2717
     38  N        -62.6570   -2.1840   85.0840 N.am   40  MET40      -0.1965
     39  CA       -61.7950   -2.9500   84.1790 C.3    40  MET40       0.1736
     40  C        -62.4910   -3.3550   82.8860 C.2    40  MET40       0.2616
     41  O        -63.6160   -3.8340   82.9290 O.2    40  MET40      -0.2715
     42  CB       -61.2070   -4.1760   84.8930 C.3    40  MET40       0.0427
     43  CG       -60.4080   -3.8180   86.1290 C.3    40  MET40       0.0599
     44  SD       -58.6670   -4.2990   86.1370 S.3    40  MET40      -0.1393
     45  CE       -58.0730   -3.4380   84.7260 C.3    40  MET40       0.0692
     46  N        -61.8190   -3.1610   81.7420 N.am   41  VAL41      -0.1963
     47  CA       -62.3070   -3.4590   80.3850 C.3    41  VAL41       0.1727
     48  C        -61.3430   -4.3990   79.6550 C.2    41  VAL41       0.2617
     49  O        -60.1430   -4.1140   79.5820 O.2    41  VAL41      -0.2715
     50  CB       -62.5880   -2.1350   79.5980 C.3    41  VAL41       0.0290
     51  CG1      -62.4140   -2.2880   78.0820 C.3    41  VAL41       0.0023
     52  CG2      -63.9740   -1.6200   79.9230 C.3    41  VAL41       0.0023
     53  N        -61.8800   -5.4900   79.1150 N.am   42  GLY42      -0.1940
     54  CA       -61.1070   -6.4830   78.3780 C.3    42  GLY42       0.2014
     55  C        -59.9650   -7.0630   79.1910 C.2    42  GLY42       0.2638
     56  O        -60.1430   -7.3130   80.3870 O.2    42  GLY42      -0.2714
     57  N        -58.7730   -7.2580   78.5550 N.am   43  GLN43      -0.1977
     58  CA       -57.5630   -7.8270   79.1790 C.3    43  GLN43       0.1601
     59  C        -57.9530   -9.0510   80.0180 C.2    43  GLN43       0.2287
     60  O        -57.6380   -9.1260   81.2080 O.2    43  GLN43      -0.2864
     61  CB       -56.8470   -6.7450   80.0330 C.3    43  GLN43       0.0394
     62  CG       -55.3710   -6.9910   80.3220 C.3    43  GLN43       0.0908
     63  CD       -54.5250   -6.8490   79.0860 C.2    43  GLN43       0.2608
     64  OE1      -54.1000   -7.8260   78.4710 O.2    43  GLN43      -0.2717
     65  NE2      -54.2420   -5.6270   78.6920 N.am   43  GLN43      -0.0878
     66  N        -46.0680   -0.7640   76.9620 N.3    73  PRO73      -0.2102
     67  CA       -46.6970    0.3320   77.7210 C.3    73  PRO73       0.1504
     68  C        -48.1720    0.5960   77.3860 C.2    73  PRO73       0.2576
     69  O        -48.6010    0.4300   76.2440 O.2    73  PRO73      -0.2718
     70  CB       -45.8230    1.5160   77.3640 C.3    73  PRO73       0.0282
     71  CG       -44.5070    0.9190   77.0160 C.3    73  PRO73       0.0208
     72  CD       -44.8900   -0.2690   76.2290 C.3    73  PRO73       0.0893
     73  N        -48.9420    0.9690   78.3960 N.am   74  GLY74      -0.1943
     74  CA       -50.3700    1.2390   78.2540 C.3    74  GLY74       0.2014
     75  C        -51.2430    0.0160   78.0580 C.2    74  GLY74       0.2640
     76  O        -52.2790    0.1210   77.3990 O.2    74  GLY74      -0.2714
     77  N        -50.8540   -1.1470   78.6380 N.am   75  THR75      -0.1936
     78  CA       -51.6430   -2.3950   78.5450 C.3    75  THR75       0.2028
     79  C        -52.3010   -2.7930   79.8910 C.2    75  THR75       0.2643
     80  O        -52.5710   -3.9640   80.1360 O.2    75  THR75      -0.2714
     81  CB       -50.8470   -3.5340   77.8700 C.3    75  THR75       0.1808
     82  OG1      -49.6700   -3.8260   78.6250 O.3    75  THR75      -0.2208
     83  CG2      -50.4930   -3.2320   76.4380 C.3    75  THR75       0.0379
     84  N        -52.5580   -1.8120   80.7440 N.am   76  GLY76      -0.1939
     85  CA       -53.1770   -2.0430   82.0380 C.3    76  GLY76       0.2014
     86  C        -52.3510   -2.7260   83.1010 C.2    76  GLY76       0.2639
     87  O        -52.9340   -3.2570   84.0350 O.2    76  GLY76      -0.2714
     88  N        -51.0130   -2.7230   83.0020 N.am   77  LYS77      -0.1963
     89  CA       -50.1490   -3.3330   84.0260 C.3    77  LYS77       0.1728
     90  C        -50.3890   -2.6360   85.3750 C.2    77  LYS77       0.2617
     91  O        -50.7100   -3.3190   86.3510 O.2    77  LYS77      -0.2715
     92  CB       -48.6710   -3.3010   83.6380 C.3    77  LYS77       0.0311
     93  CG       -48.3380   -4.0090   82.3060 C.3    77  LYS77       0.0038
     94  CD       -46.8090   -4.1300   82.0210 C.3    77  LYS77       0.0206
     95  CE       -46.1710   -2.8070   81.6830 C.3    77  LYS77       0.1093
     96  NZ       -46.6130   -2.2730   80.3550 N.3    77  LYS77      -0.1314
     97  N        -50.3780   -1.2710   85.3920 N.am   78  THR78      -0.1937
     98  CA       -50.6840   -0.4720   86.5970 C.3    78  THR78       0.2028
     99  C        -52.1440   -0.6440   87.0220 C.2    78  THR78       0.2642
    100  O        -52.4040   -0.7580   88.2280 O.2    78  THR78      -0.2714
    101  CB       -50.3400    0.9900   86.4010 C.3    78  THR78       0.1808
    102  OG1      -49.0810    1.0650   85.7350 O.3    78  THR78      -0.2208
    103  CG2      -50.2750    1.7570   87.7230 C.3    78  THR78       0.0379
    104  N        -53.0800   -0.6850   86.0370 N.am   79  ALA79      -0.1963
    105  CA       -54.5070   -0.8770   86.2800 C.3    79  ALA79       0.1728
    106  C        -54.7850   -2.2180   86.9950 C.2    79  ALA79       0.2616
    107  O        -55.5410   -2.2330   87.9690 O.2    79  ALA79      -0.2715
    108  CB       -55.2870   -0.7940   84.9730 C.3    79  ALA79       0.0334
    109  N        -54.1330   -3.3230   86.5480 N.am   80  ILE80      -0.1977
    110  CA       -54.2620   -4.6540   87.1650 C.3    80  ILE80       0.1596
    111  C        -53.7240   -4.6190   88.5970 C.2    80  ILE80       0.2287
    112  O        -54.3780   -5.1700   89.4860 O.2    80  ILE80      -0.2864
    113  CB       -53.6920   -5.7990   86.2740 C.3    80  ILE80       0.0276
    114  CG1      -54.6510   -6.0730   85.1090 C.3    80  ILE80       0.0022
    115  CG2      -53.4360   -7.0900   87.0750 C.3    80  ILE80       0.0022
    116  CD1      -54.0090   -6.4750   83.8630 C.3    80  ILE80       0.0001
    117  N        -42.9030   -0.3000   88.6620 N.3   185  ASP185     -0.1239
    118  CA       -42.8720   -0.2430   87.2200 C.3   185  ASP185      0.1674
    119  C        -41.4020   -0.0780   86.7970 C.2   185  ASP185      0.2266
    120  O        -40.5570    0.2500   87.6480 O.2   185  ASP185     -0.2867
    121  CB       -43.6780    0.9650   86.7670 C.3   185  ASP185      0.1410
    122  CG       -44.3360    0.7730   85.4210 C.2   185  ASP185      0.3668
    123  OD1      -43.7970   -0.0080   84.6000 O.co2 185  ASP185     -0.2456
    124  OD2      -45.4100    1.3850   85.1890 O.co2 185  ASP185     -0.2456
    125  N        -54.5380   -3.5150   73.5090 N.3   248  TYR248     -0.1241
    126  CA       -55.9740   -3.3480   73.2820 C.3   248  TYR248      0.1605
    127  C        -56.4090   -3.1760   71.8330 C.2   248  TYR248      0.2264
    128  O        -55.7140   -2.5630   71.0210 O.2   248  TYR248     -0.2867
    129  CB       -56.5640   -2.2230   74.1470 C.3   248  TYR248      0.0534
    130  CG       -56.4320   -2.4810   75.6260 C.ar  248  TYR248     -0.0201
    131  CD1      -57.2270   -3.4270   76.2640 C.ar  248  TYR248     -0.0009
    132  CD2      -55.5040   -1.7890   76.3900 C.ar  248  TYR248     -0.0009
    133  CE1      -57.0810   -3.6960   77.6200 C.ar  248  TYR248      0.0417
    134  CE2      -55.3580   -2.0420   77.7510 C.ar  248  TYR248      0.0417
    135  CZ       -56.1520   -2.9960   78.3610 C.ar  248  TYR248      0.1957
    136  OH       -56.0070   -3.2640   79.6960 O.3   248  TYR248     -0.2866
    137  N        -62.3050    2.0880   77.1690 N.3   256  ILE256     -0.1245
    138  CA       -61.4420    2.6910   78.1830 C.3   256  ILE256      0.1561
    139  C        -61.5200    4.2360   78.0690 C.2   256  ILE256      0.2260
    140  O        -61.6420    4.9200   79.0940 O.2   256  ILE256     -0.2867
    141  CB       -59.9890    2.1190   78.1240 C.3   256  ILE256      0.0252
    142  CG1      -59.9550    0.6240   78.5430 C.3   256  ILE256      0.0019
    143  CG2      -59.0480    2.9250   79.0120 C.3   256  ILE256      0.0019
    144  CD1      -58.9060   -0.2140   77.8980 C.3   256  ILE256      0.0001
    145  N        -64.8450    5.5260   79.4660 N.3   259  ILE259     -0.1231
    146  CA       -64.7660    5.4520   80.9320 C.3   259  ILE259      0.1692
    147  C        -64.0040    6.6680   81.4750 C.2   259  ILE259      0.2591
    148  O        -64.4160    7.2430   82.4860 O.2   259  ILE259     -0.2718
    149  CB       -64.1140    4.1310   81.4190 C.3   259  ILE259      0.0266
    150  CG1      -64.9390    2.9000   81.0320 C.3   259  ILE259      0.0019
    151  CG2      -63.8860    4.1660   82.9220 C.3   259  ILE259      0.0020
    152  CD1      -64.1540    1.6280   81.0440 C.3   259  ILE259      0.0001
    153  N        -62.8900    7.0380   80.8200 N.am  260  ARG260     -0.1980
    154  CA       -62.0810    8.1750   81.2420 C.3   260  ARG260      0.1597
    155  C        -62.8210    9.5060   81.1000 C.2   260  ARG260      0.2287
    156  O        -62.7160   10.3500   81.9930 O.2   260  ARG260     -0.2864
    157  CB       -60.7000    8.1820   80.5600 C.3   260  ARG260      0.0334
    158  CG       -59.7300    7.0760   81.0380 C.3   260  ARG260      0.0492
    159  CD       -59.5680    6.9310   82.5560 C.3   260  ARG260      0.2205
    160  NE       -59.2690    8.1990   83.2230 N.pl3 260  ARG260     -0.0865
    161  CZ       -59.3700    8.4010   84.5310 C.cat 260  ARG260      0.5346
    162  NH1      -59.7910    7.4310   85.3290 N.pl3 260  ARG260      0.1354
    163  NH2      -59.0890    9.5870   85.0470 N.pl3 260  ARG260      0.1354
    164  N        -52.2970    4.7930   74.7220 N.3   285  LEU285     -0.1231
    165  CA       -53.5130    5.0190   75.4840 C.3   285  LEU285      0.1693
    166  C        -53.3170    6.2220   76.4390 C.2   285  LEU285      0.2591
    167  O        -54.2400    7.0180   76.5930 O.2   285  LEU285     -0.2718
    168  CB       -53.8810    3.7330   76.2440 C.3   285  LEU285      0.0284
    169  CG       -55.2660    3.6180   76.8730 C.3   285  LEU285      0.0019
    170  CD1      -56.4090    3.7930   75.8460 C.3   285  LEU285      0.0001
    171  CD2      -55.3880    2.3030   77.5650 C.3   285  LEU285      0.0001
    172  N        -52.0990    6.3890   77.0150 N.am  286  ARG286     -0.1980
    173  CA       -51.7710    7.5110   77.8960 C.3   286  ARG286      0.1597
    174  C        -51.8880    8.8440   77.1610 C.2   286  ARG286      0.2287
    175  O        -52.4560    9.7920   77.7170 O.2   286  ARG286     -0.2864
    176  CB       -50.3600    7.3710   78.4960 C.3   286  ARG286      0.0334
    177  CG       -50.1900    6.1510   79.4240 C.3   286  ARG286      0.0492
    178  CD       -50.7920    6.4920   80.7490 C.3   286  ARG286      0.2205
    179  NE       -50.7390    5.4680   81.7890 N.pl3 286  ARG286     -0.0865
    180  CZ       -51.4600    4.3440   81.7830 C.cat 286  ARG286      0.5346
    181  NH1      -52.3260    4.0510   80.8020 N.pl3 286  ARG286      0.1354
    182  NH2      -51.3050    3.5020   82.8030 N.pl3 286  ARG286      0.1354
    183  N        -55.5320    9.6440   76.4950 N.3   289  ILE289     -0.1245
    184  CA       -56.1140   10.0750   77.7790 C.3   289  ILE289      0.1561
    185  C        -55.6880   11.5040   78.1680 C.2   289  ILE289      0.2260
    186  O        -56.5180   12.2790   78.6660 O.2   289  ILE289     -0.2867
    187  CB       -55.9420    9.0120   78.8960 C.3   289  ILE289      0.0252
    188  CG1      -56.7240    7.7230   78.5170 C.3   289  ILE289      0.0019
    189  CG2      -56.3860    9.5510   80.2750 C.3   289  ILE289      0.0019
    190  CD1      -56.3080    6.4720   79.2710 C.3   289  ILE289      0.0001
@<TRIPOS>BOND
     1   128   127    2
     2   127   126    1
     3   126   125    1
     4   126   129    1
     5   129   130    1
     6   164   165    1
     7   165   168    1
     8   165   166    1
     9   130   131   ar
    10   130   132   ar
    11   170   169    1
    12    72    66    1
    13    72    71    1
    14    69    68    2
    15   168   169    1
    16   131   133   ar
    17   132   134   ar
    18    83    81    1
    19   166   167    2
    20   166   172   am
    21   183   184    1
    22   169   171    1
    23    66    67    1
    24   172   173    1
    25    71    70    1
    26   174   175    2
    27   174   173    1
    28   137   138    1
    29    70    67    1
    30    68    67    1
    31    68    73   am
    32    76    75    2
    33   133   135   ar
    34   134   135   ar
    35   184   185    1
    36   184   187    1
    37    81    78    1
    38    81    82    1
    39   173   176    1
    40   144   142    1
    41    75    74    1
    42    75    77   am
    43   139   138    1
    44   139   140    2
    45    51    50    1
    46   141   138    1
    47   141   142    1
    48   141   143    1
    49   185   186    2
    50    74    73    1
    51   135   136    1
    52    54    53    1
    53    54    55    1
    54    64    63    2
    55   176   177    1
    56   188   187    1
    57   188   190    1
    58    78    77    1
    59    78    79    1
    60    57    58    1
    61    57    55   am
    62    65    63   am
    63   187   189    1
    64    63    62    1
    65    53    48   am
    66    58    59    1
    67    58    61    1
    68    55    56    2
    69   177   178    1
    70   145   146    1
    71    49    48    2
    72    50    52    1
    73    50    47    1
    74    48    47    1
    75    79    80    2
    76    79    84   am
    77    59    60    2
    78    61    62    1
    79    96    95    1
    80    47    46    1
    81   157   158    1
    82   157   154    1
    83    84    85    1
    84   178   179    1
    85   181   180    1
    86   153   154    1
    87   153   147   am
    88   146   149    1
    89   146   147    1
    90   150   152    1
    91   150   149    1
    92   158   159    1
    93   155   154    1
    94   155   156    2
    95   149   151    1
    96   147   148    2
    97    95    94    1
    98    46    40   am
    99   180   179    2
   100   180   182    1
   101    94    93    1
   102    85    86    1
   103    93    92    1
   104   159   160    1
   105    40    41    2
   106    40    39    1
   107    88    86   am
   108    88    89    1
   109    86    87    2
   110   160   161    2
   111    92    89    1
   112   116   114    1
   113    37    36    2
   114    89    90    1
   115    39    42    1
   116    39    38    1
   117    25    24   ar
   118    25    23   ar
   119   161   163    1
   120   161   162    1
   121   123   122   ar
   122    24    22   ar
   123    23    21   ar
   124    45    44    1
   125    42    43    1
   126    36    38   am
   127    36    35    1
   128   108   105    1
   129     4     3    2
   130   114   113    1
   131   124   122   ar
   132    22    21   ar
   133     5     2    1
   134    21    20    1
   135    90    97   am
   136    90    91    2
   137    97    98    1
   138   122   121    1
   139   102   101    1
   140    14    12   ar
   141    14    15   ar
   142     2     3    1
   143     2     1    1
   144    35    34    1
   145    33    31    1
   146   104   105    1
   147   104    99   am
   148     3     6   am
   149    20    17    1
   150    43    44    1
   151   113   115    1
   152   113   110    1
   153   105   106    1
   154    12    11   ar
   155   101    98    1
   156   101   103    1
   157    15    13   ar
   158   109   106   am
   159   109   110    1
   160    98    99    1
   161   121   118    1
   162   119   118    1
   163   119   120    2
   164   106   107    2
   165    99   100    2
   166    31    30    1
   167   110   111    1
   168   118   117    1
   169     6     7    1
   170    11    13   ar
   171    11    10    1
   172    17    16    1
   173    17    18    1
   174     7    10    1
   175     7     8    1
   176    18    26   am
   177    18    19    2
   178    26    27    1
   179    30    27    1
   180    30    32    1
   181     8     9    2
   182   111   112    2
   183    27    28    1
   184    28    29    2
