@<TRIPOS>MOLECULE
tmp/3uk6H00.pdb
 190 184 0 0 0
SMALL
GASTEIGER

@<TRIPOS>ATOM
      1  N        -38.5100  -26.3890   99.8100 N.3     3  ALA3       -0.1231
      2  CA       -38.2920  -27.0260   98.5090 C.3     3  ALA3        0.1694
      3  C        -37.5480  -28.3990   98.5740 C.2     3  ALA3        0.2592
      4  O        -37.5900  -29.1540   97.5990 O.2     3  ALA3       -0.2718
      5  CB       -37.5520  -26.0710   97.5890 C.3     3  ALA3        0.0304
      6  N        -36.8760  -28.7100   99.7080 N.am    4  HIS4       -0.1976
      7  CA       -36.1040  -29.9430   99.8660 C.3     4  HIS4        0.1656
      8  C        -36.5740  -30.7790  101.0830 C.2     4  HIS4        0.2291
      9  O        -35.8020  -31.5600  101.6540 O.2     4  HIS4       -0.2864
     10  CB       -34.6000  -29.6230   99.8840 C.3     4  HIS4        0.0771
     11  CG       -34.1780  -28.7530   98.7360 C.ar    4  HIS4        0.0820
     12  ND1      -33.8480  -29.2900   97.4940 N.ar    4  HIS4       -0.2267
     13  CD2      -34.0840  -27.4050   98.6640 C.ar    4  HIS4        0.1154
     14  CE1      -33.5480  -28.2570   96.7230 C.ar    4  HIS4        0.1986
     15  NE2      -33.6730  -27.1010   97.3800 N.ar    4  HIS4       -0.2212
     16  N        -38.4040  -33.4160  101.3200 N.3     6  HIS6       -0.1226
     17  CA       -38.2440  -34.8390  101.0700 C.3     6  HIS6        0.1752
     18  C        -36.8090  -35.3460  101.2380 C.2     6  HIS6        0.2595
     19  O        -36.6260  -36.5020  101.6400 O.2     6  HIS6       -0.2718
     20  CB       -38.7700  -35.1600   99.6690 C.3     6  HIS6        0.0759
     21  CG       -38.1460  -34.3250   98.6060 C.ar    6  HIS6        0.0818
     22  ND1      -38.4210  -32.9830   98.5020 N.ar    6  HIS6       -0.2268
     23  CD2      -37.2550  -34.6660   97.6490 C.ar    6  HIS6        0.1154
     24  CE1      -37.7050  -32.5490   97.4850 C.ar    6  HIS6        0.1986
     25  NE2      -36.9830  -33.5280   96.9460 N.ar    6  HIS6       -0.2212
     26  N        -35.7980  -34.5080  100.8840 N.am    7  ILE7       -0.1980
     27  CA       -34.3760  -34.8780  100.9500 C.3     7  ILE7        0.1595
     28  C        -33.9980  -35.2020  102.4000 C.2     7  ILE7        0.2287
     29  O        -33.9820  -34.3070  103.2570 O.2     7  ILE7       -0.2864
     30  CB       -33.4320  -33.8500  100.2450 C.3     7  ILE7        0.0276
     31  CG1      -33.8240  -33.5470   98.7920 C.3     7  ILE7        0.0022
     32  CG2      -31.9700  -34.3760  100.3480 C.3     7  ILE7        0.0022
     33  CD1      -33.8400  -34.7280   97.8660 C.3     7  ILE7        0.0001
     34  N        -35.6760  -39.7430   99.8310 N.3    16  GLY16      -0.1210
     35  CA       -36.2010  -38.5990   99.0870 C.3    16  GLY16       0.1956
     36  C        -35.5790  -38.3760   97.7200 C.2    16  GLY16       0.2612
     37  O        -36.2430  -37.8250   96.8370 O.2    16  GLY16      -0.2717
     38  N        -34.2990  -38.7890   97.5320 N.am   17  MET17      -0.1965
     39  CA       -33.5610  -38.5970   96.2800 C.3    17  MET17       0.1736
     40  C        -34.0050  -39.5600   95.1780 C.2    17  MET17       0.2616
     41  O        -34.1680  -40.7560   95.4320 O.2    17  MET17      -0.2715
     42  CB       -32.0480  -38.6390   96.5240 C.3    17  MET17       0.0427
     43  CG       -31.6920  -37.4670   97.4460 C.3    17  MET17       0.0599
     44  SD       -29.9680  -37.1810   97.4820 S.3    17  MET17      -0.1393
     45  CE       -29.4280  -36.8720   95.8460 C.3    17  MET17       0.0692
     46  N        -34.2200  -39.0230   93.9590 N.am   18  VAL18      -0.1963
     47  CA       -34.6670  -39.7630   92.7700 C.3    18  VAL18       0.1727
     48  C        -33.6830  -39.6020   91.6070 C.2    18  VAL18       0.2617
     49  O        -33.3340  -38.4670   91.2590 O.2    18  VAL18      -0.2715
     50  CB       -36.1210  -39.3590   92.3920 C.3    18  VAL18       0.0290
     51  CG1      -36.3900  -39.4700   90.8850 C.3    18  VAL18       0.0023
     52  CG2      -37.1250  -40.1910   93.1840 C.3    18  VAL18       0.0023
     53  N        -33.2730  -40.7360   91.0200 N.am   19  GLY19      -0.1940
     54  CA       -32.3480  -40.7760   89.8900 C.3    19  GLY19       0.2014
     55  C        -31.0360  -40.0830   90.1950 C.2    19  GLY19       0.2638
     56  O        -30.5290  -40.1890   91.3220 O.2    19  GLY19      -0.2714
     57  N        -30.5030  -39.3220   89.1960 N.am   20  GLN20      -0.1977
     58  CA       -29.2300  -38.5800   89.2680 C.3    20  GLN20       0.1601
     59  C        -28.1670  -39.4610   89.9570 C.2    20  GLN20       0.2287
     60  O        -27.5640  -39.0610   90.9620 O.2    20  GLN20      -0.2864
     61  CB       -29.4270  -37.2330   90.0000 C.3    20  GLN20       0.0394
     62  CG       -28.1870  -36.3550   89.9150 C.3    20  GLN20       0.0908
     63  CD       -27.8390  -35.9810   88.4760 C.2    20  GLN20       0.2608
     64  OE1      -28.3380  -34.9900   87.9590 O.2    20  GLN20      -0.2717
     65  NE2      -26.9890  -36.7740   87.8300 N.am   20  GLN20      -0.0878
     66  N        -29.9460  -25.5170   85.1640 N.3    43  PRO43      -0.2102
     67  CA       -30.8940  -25.2700   86.2810 C.3    43  PRO43       0.1504
     68  C        -31.8950  -26.3940   86.5350 C.2    43  PRO43       0.2576
     69  O        -32.3440  -27.0550   85.5900 O.2    43  PRO43      -0.2718
     70  CB       -31.6070  -23.9970   85.8540 C.3    43  PRO43       0.0282
     71  CG       -30.6470  -23.3440   84.9250 C.3    43  PRO43       0.0208
     72  CD       -30.0290  -24.4390   84.1640 C.3    43  PRO43       0.0893
     73  N        -32.2010  -26.6150   87.8080 N.am   44  GLY44      -0.1943
     74  CA       -33.1350  -27.6480   88.2360 C.3    44  GLY44       0.2014
     75  C        -32.6510  -29.0750   88.0240 C.2    44  GLY44       0.2640
     76  O        -33.4390  -29.9480   87.6540 O.2    44  GLY44      -0.2714
     77  N        -31.3560  -29.3290   88.2470 N.am   45  THR45      -0.1936
     78  CA       -30.8020  -30.6770   88.1260 C.3    45  THR45       0.2028
     79  C        -30.3770  -31.2540   89.4950 C.2    45  THR45       0.2643
     80  O        -29.5050  -32.1250   89.5620 O.2    45  THR45      -0.2714
     81  CB       -29.7310  -30.7770   87.0340 C.3    45  THR45       0.1808
     82  OG1      -28.6700  -29.8800   87.3390 O.3    45  THR45      -0.2208
     83  CG2      -30.2790  -30.5330   85.6400 C.3    45  THR45       0.0379
     84  N        -31.0240  -30.7910   90.5670 N.am   46  GLY46      -0.1939
     85  CA       -30.7620  -31.2690   91.9210 C.3    46  GLY46       0.2014
     86  C        -29.4310  -30.8800   92.5320 C.2    46  GLY46       0.2639
     87  O        -28.9740  -31.5610   93.4570 O.2    46  GLY46      -0.2714
     88  N        -28.8020  -29.7710   92.0420 N.am   47  LYS47      -0.1963
     89  CA       -27.5430  -29.2830   92.6070 C.3    47  LYS47       0.1728
     90  C        -27.7750  -28.9260   94.0870 C.2    47  LYS47       0.2617
     91  O        -27.0620  -29.4360   94.9580 O.2    47  LYS47      -0.2715
     92  CB       -26.9930  -28.1010   91.8070 C.3    47  LYS47       0.0311
     93  CG       -26.5870  -28.4530   90.3810 C.3    47  LYS47       0.0038
     94  CD       -26.2440  -27.1850   89.6010 C.3    47  LYS47       0.0206
     95  CE       -27.4850  -26.2950   89.4110 C.3    47  LYS47       0.1093
     96  NZ       -27.1400  -24.8750   89.1480 N.3    47  LYS47      -0.1314
     97  N        -28.8500  -28.1620   94.3750 N.am   48  THR48      -0.1937
     98  CA       -29.2280  -27.7980   95.7400 C.3    48  THR48       0.2028
     99  C        -29.6400  -29.0500   96.5410 C.2    48  THR48       0.2642
    100  O        -29.2710  -29.1640   97.7120 O.2    48  THR48      -0.2714
    101  CB       -30.3270  -26.7320   95.7500 C.3    48  THR48       0.1808
    102  OG1      -30.0290  -25.7460   94.7730 O.3    48  THR48      -0.2208
    103  CG2      -30.4650  -26.0630   97.0930 C.3    48  THR48       0.0379
    104  N        -30.3940  -29.9790   95.9000 N.am   49  ALA49      -0.1963
    105  CA       -30.8690  -31.2170   96.5170 C.3    49  ALA49       0.1728
    106  C        -29.6910  -32.0960   96.9840 C.2    49  ALA49       0.2616
    107  O        -29.7160  -32.5860   98.1100 O.2    49  ALA49      -0.2715
    108  CB       -31.7600  -31.9780   95.5470 C.3    49  ALA49       0.0334
    109  N        -28.6330  -32.2290   96.1520 N.am   50  ILE50      -0.1977
    110  CA       -27.4290  -32.9880   96.5050 C.3    50  ILE50       0.1596
    111  C        -26.7020  -32.3100   97.6730 C.2    50  ILE50       0.2287
    112  O        -26.2430  -32.9960   98.5850 O.2    50  ILE50      -0.2864
    113  CB       -26.5440  -33.2980   95.2780 C.3    50  ILE50       0.0276
    114  CG1      -27.2130  -34.3970   94.4350 C.3    50  ILE50       0.0022
    115  CG2      -25.1220  -33.7120   95.6910 C.3    50  ILE50       0.0022
    116  CD1      -27.0530  -34.2560   92.9650 C.3    50  ILE50       0.0001
    117  N        -24.9950  -20.8940   95.2620 N.3   132  ASP132     -0.1239
    118  CA       -25.5010  -21.0250   93.9050 C.3   132  ASP132      0.1674
    119  C        -25.0760  -19.7710   93.1100 C.2   132  ASP132      0.2266
    120  O        -24.6980  -18.7630   93.7260 O.2   132  ASP132     -0.2867
    121  CB       -27.0360  -21.1180   93.9460 C.3   132  ASP132      0.1410
    122  CG       -27.6130  -21.9700   92.8340 C.2   132  ASP132      0.3668
    123  OD1      -26.9960  -22.0220   91.7350 O.co2 132  ASP132     -0.2456
    124  OD2      -28.6680  -22.6010   93.0600 O.co2 132  ASP132     -0.2456
    125  N        -32.9510  -34.3830   83.9390 N.3   195  TYR195     -0.1241
    126  CA       -33.8250  -35.5280   84.1830 C.3   195  TYR195      0.1605
    127  C        -34.6340  -36.0400   82.9960 C.2   195  TYR195      0.2264
    128  O        -35.0610  -35.2560   82.1370 O.2   195  TYR195     -0.2867
    129  CB       -34.7320  -35.2650   85.3850 C.3   195  TYR195      0.0534
    130  CG       -33.9670  -35.0760   86.6750 C.ar  195  TYR195     -0.0201
    131  CD1      -33.3990  -36.1610   87.3370 C.ar  195  TYR195     -0.0009
    132  CD2      -33.8500  -33.8190   87.2630 C.ar  195  TYR195     -0.0009
    133  CE1      -32.7090  -35.9970   88.5390 C.ar  195  TYR195      0.0417
    134  CE2      -33.1630  -33.6430   88.4650 C.ar  195  TYR195      0.0417
    135  CZ       -32.5900  -34.7360   89.0980 C.ar  195  TYR195      0.1957
    136  OH       -31.9130  -34.5760   90.2840 O.3   195  TYR195     -0.2866
    137  N        -40.0070  -36.9450   90.7670 N.3   203  ILE203     -0.1245
    138  CA       -39.6990  -35.7470   91.5630 C.3   203  ILE203      0.1561
    139  C        -40.9630  -34.9010   91.7720 C.2   203  ILE203      0.2260
    140  O        -41.2380  -34.4820   92.8990 O.2   203  ILE203     -0.2867
    141  CB       -38.5220  -34.9330   90.9730 C.3   203  ILE203      0.0252
    142  CG1      -37.2180  -35.7340   91.0750 C.3   203  ILE203      0.0019
    143  CG2      -38.3790  -33.5600   91.6900 C.3   203  ILE203      0.0019
    144  CD1      -36.2420  -35.4720   89.9950 C.3   203  ILE203      0.0001
    145  N        -43.3170  -36.5650   94.2570 N.3   206  ILE206     -0.1231
    146  CA       -42.7670  -36.3820   95.6150 C.3   206  ILE206      0.1692
    147  C        -43.1290  -34.9930   96.1310 C.2   206  ILE206      0.2591
    148  O        -43.5050  -34.8620   97.2960 O.2   206  ILE206     -0.2718
    149  CB       -41.2310  -36.6020   95.6670 C.3   206  ILE206      0.0266
    150  CG1      -40.8480  -38.0330   95.3180 C.3   206  ILE206      0.0019
    151  CG2      -40.6730  -36.2420   97.0410 C.3   206  ILE206      0.0020
    152  CD1      -39.4190  -38.1510   94.8800 C.3   206  ILE206      0.0001
    153  N        -42.9990  -33.9570   95.2670 N.am  207  ARG207     -0.1980
    154  CA       -43.3060  -32.5790   95.6350 C.3   207  ARG207      0.1597
    155  C        -44.7890  -32.3840   95.9310 C.2   207  ARG207      0.2287
    156  O        -45.1150  -31.7140   96.8980 O.2   207  ARG207     -0.2864
    157  CB       -42.7540  -31.5640   94.6040 C.3   207  ARG207      0.0334
    158  CG       -41.2190  -31.3730   94.6140 C.3   207  ARG207      0.0492
    159  CD       -40.5690  -31.1770   95.9940 C.3   207  ARG207      0.2205
    160  NE       -41.1900  -30.1160   96.7990 N.pl3 207  ARG207     -0.0865
    161  CZ       -41.0430  -29.9690   98.1200 C.cat 207  ARG207      0.5346
    162  NH1      -40.2730  -30.8040   98.8100 N.pl3 207  ARG207      0.1354
    163  NH2      -41.6640  -28.9870   98.7570 N.pl3 207  ARG207      0.1354
    164  N        -37.8240  -27.7480   85.6340 N.3   232  LEU232     -0.1231
    165  CA       -38.4110  -28.4630   86.7820 C.3   232  LEU232      0.1693
    166  C        -38.9420  -27.4380   87.7930 C.2   232  LEU232      0.2591
    167  O        -39.9820  -27.6690   88.3860 O.2   232  LEU232     -0.2718
    168  CB       -37.3790  -29.4210   87.4200 C.3   232  LEU232      0.0284
    169  CG       -37.8420  -30.4170   88.4950 C.3   232  LEU232      0.0019
    170  CD1      -38.8210  -31.4340   87.9450 C.3   232  LEU232      0.0001
    171  CD2      -36.6580  -31.1510   89.0890 C.3   232  LEU232      0.0001
    172  N        -38.2710  -26.2840   87.9240 N.am  233  ARG233     -0.1980
    173  CA       -38.6750  -25.2280   88.8440 C.3   233  ARG233      0.1597
    174  C        -40.0430  -24.6350   88.4450 C.2   233  ARG233      0.2287
    175  O        -40.9070  -24.4330   89.3120 O.2   233  ARG233     -0.2864
    176  CB       -37.5730  -24.1570   88.9210 C.3   233  ARG233      0.0334
    177  CG       -36.2420  -24.6660   89.5090 C.3   233  ARG233      0.0492
    178  CD       -36.3850  -24.7210   90.9960 C.3   233  ARG233      0.2205
    179  NE       -35.2290  -25.1800   91.7620 N.pl3 233  ARG233     -0.0865
    180  CZ       -34.7890  -26.4400   91.7870 C.cat 233  ARG233      0.5346
    181  NH1      -35.3890  -27.4250   91.1020 N.pl3 233  ARG233      0.1354
    182  NH2      -33.7190  -26.7100   92.5340 N.pl3 233  ARG233      0.1354
    183  N        -42.7590  -27.1770   89.1610 N.3   236  ILE236     -0.1245
    184  CA       -42.9950  -27.1700   90.6120 C.3   236  ILE236      0.1561
    185  C        -43.8040  -25.9360   91.0450 C.2   236  ILE236      0.2260
    186  O        -44.6910  -26.0490   91.9060 O.2   236  ILE236     -0.2867
    187  CB       -41.6970  -27.4510   91.4430 C.3   236  ILE236      0.0252
    188  CG1      -41.1900  -28.8800   91.1560 C.3   236  ILE236      0.0019
    189  CG2      -41.9200  -27.2860   92.9640 C.3   236  ILE236      0.0019
    190  CD1      -39.8000  -29.1560   91.5170 C.3   236  ILE236      0.0001
@<TRIPOS>BOND
     1   128   127    2
     2   127   126    1
     3   125   126    1
     4    72    71    1
     5    72    66    1
     6   126   129    1
     7    71    70    1
     8    66    67    1
     9   129   130    1
    10    69    68    2
    11   164   165    1
    12    83    81    1
    13    70    67    1
    14    67    68    1
    15    68    73   am
    16   130   132   ar
    17   130   131   ar
    18   165   168    1
    19   165   166    1
    20    81    82    1
    21    81    78    1
    22   132   134   ar
    23   131   133   ar
    24   168   169    1
    25    76    75    2
    26   166   172   am
    27   166   167    2
    28    73    74    1
    29    65    63   am
    30   172   173    1
    31   170   169    1
    32    64    63    2
    33    75    74    1
    34    75    77   am
    35    78    77    1
    36    78    79    1
    37   174   173    1
    38   174   175    2
    39   134   135   ar
    40    63    62    1
    41   169   171    1
    42   133   135   ar
    43   173   176    1
    44   176   177    1
    45   135   136    1
    46    96    95    1
    47   183   184    1
    48    57    58    1
    49    57    55   am
    50    58    59    1
    51    58    61    1
    52    95    94    1
    53    79    80    2
    54    79    84   am
    55   177   178    1
    56    94    93    1
    57    54    55    1
    58    54    53    1
    59    62    61    1
    60    59    60    2
    61   144   142    1
    62    55    56    2
    63    93    92    1
    64    84    85    1
    65   184   185    1
    66   184   187    1
    67   137   138    1
    68    51    50    1
    69   141   142    1
    70   141   138    1
    71   141   143    1
    72   178   179    1
    73    53    48   am
    74   185   186    2
    75   181   180    1
    76   188   187    1
    77   188   190    1
    78    49    48    2
    79   187   189    1
    80   138   139    1
    81    48    47    1
    82   123   122   ar
    83   179   180    2
    84   139   140    2
    85   180   182    1
    86    92    89    1
    87    85    86    1
    88    88    86   am
    89    88    89    1
    90    50    47    1
    91    50    52    1
    92    86    87    2
    93    89    90    1
    94    47    46    1
    95   122   124   ar
    96   122   121    1
    97   116   114    1
    98   119   120    2
    99   119   118    1
   100   118   121    1
   101   118   117    1
   102    46    40   am
   103    90    97   am
   104    90    91    2
   105   145   146    1
   106    97    98    1
   107   114   113    1
   108   157   158    1
   109   157   154    1
   110   158   159    1
   111   102   101    1
   112   152   150    1
   113    40    41    2
   114    40    39    1
   115   153   154    1
   116   153   147   am
   117   113   115    1
   118   113   110    1
   119   150   149    1
   120   108   105    1
   121   146   149    1
   122   146   147    1
   123   154   155    1
   124   149   151    1
   125    98   101    1
   126    98    99    1
   127   101   103    1
   128    45    44    1
   129   104   105    1
   130   104    99   am
   131   155   156    2
   132   159   160    1
   133   147   148    2
   134   109   110    1
   135   109   106   am
   136    39    42    1
   137    39    38    1
   138   110   111    1
   139   105   106    1
   140    42    43    1
   141    99   100    2
   142    14    15   ar
   143    14    12   ar
   144   160   161    2
   145    37    36    2
   146    25    24   ar
   147    25    23   ar
   148   106   107    2
   149    15    13   ar
   150    43    44    1
   151    24    22   ar
   152    12    11   ar
   153    38    36   am
   154     5     2    1
   155     4     3    2
   156    23    21   ar
   157   111   112    2
   158    36    35    1
   159    33    31    1
   160   161   163    1
   161   161   162    1
   162    22    21   ar
   163     2     3    1
   164     2     1    1
   165     3     6   am
   166    21    20    1
   167    13    11   ar
   168    11    10    1
   169    31    30    1
   170    35    34    1
   171    20    17    1
   172     6     7    1
   173     7    10    1
   174     7     8    1
   175    30    32    1
   176    30    27    1
   177    26    27    1
   178    26    18   am
   179    27    28    1
   180    17    18    1
   181    17    16    1
   182     8     9    2
   183    18    19    2
   184    28    29    2
