@<TRIPOS>MOLECULE
tmp/3uk6K00.pdb
 155 148 0 0 0
SMALL
GASTEIGER

@<TRIPOS>ATOM
      1  N          0.1810  -31.4090   97.6870 N.3     2  ALA2       -0.1231
      2  CA         0.4100  -31.6770   96.2650 C.3     2  ALA2        0.1694
      3  C          1.8900  -31.8520   95.8620 C.2     2  ALA2        0.2592
      4  O          2.1600  -32.4190   94.7990 O.2     2  ALA2       -0.2718
      5  CB        -0.2370  -30.5850   95.4300 C.3     2  ALA2        0.0304
      6  N          2.8400  -31.3720   96.7020 N.am    3  HIS3       -0.1976
      7  CA         4.2800  -31.4400   96.4210 C.3     3  HIS3        0.1656
      8  C          5.0800  -32.1700   97.5260 C.2     3  HIS3        0.2291
      9  O          6.2840  -31.9250   97.7000 O.2     3  HIS3       -0.2864
     10  CB         4.8180  -30.0250   96.1200 C.3     3  HIS3        0.0771
     11  CG         4.0020  -29.2880   95.1010 C.ar    3  HIS3        0.0820
     12  ND1        4.2440  -29.4180   93.7440 N.ar    3  HIS3       -0.2267
     13  CD2        2.9460  -28.4540   95.2760 C.ar    3  HIS3        0.1154
     14  CE1        3.3470  -28.6400   93.1440 C.ar    3  HIS3        0.1986
     15  NE2        2.5380  -28.0530   94.0230 N.ar    3  HIS3       -0.2212
     16  N          6.3280  -35.1780   97.7480 N.3     5  HIS5       -0.1226
     17  CA         7.4790  -35.8790   97.1770 C.3     5  HIS5        0.1752
     18  C          8.6750  -34.9770   96.8390 C.2     5  HIS5        0.2595
     19  O          9.8130  -35.4670   96.8720 O.2     5  HIS5       -0.2718
     20  CB         7.0510  -36.6230   95.9190 C.3     5  HIS5        0.0759
     21  CG         6.3390  -35.7620   94.9230 C.ar    5  HIS5        0.0818
     22  ND1        5.0800  -35.2410   95.1820 N.ar    5  HIS5       -0.2268
     23  CD2        6.7460  -35.3370   93.7060 C.ar    5  HIS5        0.1154
     24  CE1        4.7730  -34.5070   94.1260 C.ar    5  HIS5        0.1986
     25  NE2        5.7420  -34.5380   93.2120 N.ar    5  HIS5       -0.2212
     26  N          8.4210  -33.6880   96.4630 N.am    6  ILE6       -0.1980
     27  CA         9.4710  -32.7390   96.1080 C.3     6  ILE6        0.1595
     28  C         10.3800  -32.4930   97.3230 C.2     6  ILE6        0.2287
     29  O          9.9470  -31.9040   98.3190 O.2     6  ILE6       -0.2864
     30  CB         8.9250  -31.4560   95.4080 C.3     6  ILE6        0.0276
     31  CG1        7.9860  -31.7930   94.2240 C.3     6  ILE6        0.0022
     32  CG2       10.0630  -30.5260   94.9780 C.3     6  ILE6        0.0022
     33  CD1        8.6190  -32.4810   92.9940 C.3     6  ILE6        0.0001
     34  N         12.3180  -36.5480   94.2180 N.3    23  GLY23      -0.1210
     35  CA        10.9080  -36.3920   93.8850 C.3    23  GLY23       0.1956
     36  C         10.6400  -35.8420   92.4950 C.2    23  GLY23       0.2612
     37  O          9.5700  -36.1130   91.9320 O.2    23  GLY23      -0.2717
     38  N         11.6000  -35.0610   91.9280 N.am   24  MET24      -0.1965
     39  CA        11.4850  -34.4470   90.5990 C.3    24  MET24       0.1736
     40  C         11.6820  -35.4540   89.4660 C.2    24  MET24       0.2616
     41  O         12.6400  -36.2240   89.4940 O.2    24  MET24      -0.2715
     42  CB        12.4490  -33.2660   90.4440 C.3    24  MET24       0.0427
     43  CG        12.1940  -32.1530   91.4530 C.3    24  MET24       0.0599
     44  SD        11.7750  -30.4860   90.8420 S.3    24  MET24      -0.1393
     45  CE        10.2610  -30.8310   89.9900 C.3    24  MET24       0.0692
     46  N         10.7530  -35.4540   88.4780 N.am   25  VAL25      -0.1963
     47  CA        10.7430  -36.3550   87.3170 C.3    25  VAL25       0.1727
     48  C         10.7660  -35.5620   86.0110 C.2    25  VAL25       0.2617
     49  O          9.9420  -34.6730   85.8310 O.2    25  VAL25      -0.2715
     50  CB         9.5680  -37.3780   87.4160 C.3    25  VAL25       0.0290
     51  CG1        9.1060  -37.8760   86.0570 C.3    25  VAL25       0.0023
     52  CG2        9.9600  -38.5580   88.2850 C.3    25  VAL25       0.0023
     53  N         11.7130  -35.8880   85.1290 N.am   26  GLY26      -0.1940
     54  CA        11.8730  -35.2470   83.8270 C.3    26  GLY26       0.2014
     55  C         12.0890  -33.7560   83.9400 C.2    26  GLY26       0.2638
     56  O         12.8130  -33.3350   84.8420 O.2    26  GLY26      -0.2714
     57  N         11.4470  -32.9420   83.0450 N.am   27  GLN27      -0.1977
     58  CA        11.5300  -31.4570   83.0210 C.3    27  GLN27       0.1601
     59  C         12.9980  -31.0130   83.1870 C.2    27  GLN27       0.2287
     60  O         13.3180  -30.1990   84.0530 O.2    27  GLN27      -0.2864
     61  CB        10.6110  -30.8460   84.1310 C.3    27  GLN27       0.0394
     62  CG        10.1750  -29.3990   83.9220 C.3    27  GLN27       0.0908
     63  CD         9.2160  -29.2530   82.7710 C.2    27  GLN27       0.2608
     64  OE1        8.0420  -29.6070   82.8660 O.2    27  GLN27      -0.2717
     65  NE2        9.7160  -28.7640   81.6460 N.am   27  GLN27      -0.0878
     66  N          2.6510  -28.1380   84.5070 N.3    56  THR56      -0.1203
     67  CA         4.0000  -28.4130   83.9900 C.3    56  THR56       0.1994
     68  C          5.1220  -28.2680   85.0390 C.2    56  THR56       0.2618
     69  O          6.2800  -28.0380   84.6900 O.2    56  THR56      -0.2717
     70  CB         4.2720  -27.6520   82.6700 C.3    56  THR56       0.1784
     71  OG1        4.2050  -26.2420   82.8770 O.3    56  THR56      -0.2211
     72  CG2        3.3450  -28.0740   81.5440 C.3    56  THR56       0.0376
     73  N          4.7740  -28.4230   86.3060 N.am   57  GLY57      -0.1956
     74  CA         5.7280  -28.3320   87.4020 C.3    57  GLY57       0.1869
     75  C          6.2750  -26.9570   87.7410 C.2    57  GLY57       0.2309
     76  O          7.3370  -26.8540   88.3560 O.2    57  GLY57      -0.2863
     77  N          6.1380  -27.0200   91.3620 N.3    60  ALA60      -0.1231
     78  CA         7.0750  -28.0870   91.7730 C.3    60  ALA60       0.1694
     79  C          8.5270  -27.5920   91.7460 C.2    60  ALA60       0.2591
     80  O          9.2680  -27.8460   92.6980 O.2    60  ALA60      -0.2718
     81  CB         6.9150  -29.3250   90.8930 C.3    60  ALA60       0.0304
     82  N          8.9060  -26.8250   90.6870 N.am   61  ILE61      -0.1980
     83  CA        10.2430  -26.2350   90.5450 C.3    61  ILE61       0.1595
     84  C         10.4710  -25.1950   91.6430 C.2    61  ILE61       0.2287
     85  O         11.5460  -25.1700   92.2510 O.2    61  ILE61      -0.2864
     86  CB        10.5290  -25.7600   89.0910 C.3    61  ILE61       0.0276
     87  CG1       10.8240  -26.9900   88.2020 C.3    61  ILE61       0.0022
     88  CG2       11.6940  -24.7630   89.0230 C.3    61  ILE61       0.0022
     89  CD1       10.3590  -26.9060   86.8250 C.3    61  ILE61       0.0001
     90  N          4.5320  -32.7470   79.8880 N.3   205  TYR205     -0.1241
     91  CA         5.0580  -34.1080   80.1200 C.3   205  TYR205      0.1605
     92  C          4.6930  -35.1750   79.1070 C.2   205  TYR205      0.2264
     93  O          3.5880  -35.1690   78.5720 O.2   205  TYR205     -0.2867
     94  CB         4.7640  -34.6080   81.5560 C.3   205  TYR205      0.0534
     95  CG         5.4320  -33.7520   82.6120 C.ar  205  TYR205     -0.0201
     96  CD1        6.8100  -33.8160   82.8230 C.ar  205  TYR205     -0.0009
     97  CD2        4.6990  -32.8200   83.3530 C.ar  205  TYR205     -0.0009
     98  CE1        7.4440  -32.9770   83.7370 C.ar  205  TYR205      0.0417
     99  CE2        5.3180  -32.0000   84.2980 C.ar  205  TYR205      0.0417
    100  CZ         6.6950  -32.0820   84.4840 C.ar  205  TYR205      0.1957
    101  OH         7.3390  -31.2850   85.4030 O.3   205  TYR205     -0.2866
    102  N          5.2860  -39.6100   87.5420 N.3   213  ILE213     -0.1245
    103  CA         4.7250  -38.6320   88.4990 C.3   213  ILE213      0.1561
    104  C          3.5050  -39.2350   89.2280 C.2   213  ILE213      0.2260
    105  O          3.4090  -39.1250   90.4560 O.2   213  ILE213     -0.2867
    106  CB         4.4100  -37.2530   87.8500 C.3   213  ILE213      0.0252
    107  CG1        5.7430  -36.5530   87.5130 C.3   213  ILE213      0.0019
    108  CG2        3.5330  -36.4110   88.7440 C.3   213  ILE213      0.0019
    109  CD1        5.5910  -35.3370   86.6420 C.3   213  ILE213      0.0001
    110  N          4.6220  -41.8940   91.7630 N.3   216  ILE216     -0.1231
    111  CA         5.1830  -41.1780   92.9230 C.3   216  ILE216      0.1692
    112  C          4.0360  -40.7100   93.8400 C.2   216  ILE216      0.2591
    113  O          4.1520  -40.8320   95.0650 O.2   216  ILE216     -0.2718
    114  CB         6.0700  -39.9680   92.5120 C.3   216  ILE216      0.0266
    115  CG1        7.3110  -40.4140   91.7500 C.3   216  ILE216      0.0019
    116  CG2        6.4550  -39.1300   93.7300 C.3   216  ILE216      0.0020
    117  CD1        7.9360  -39.3290   90.9210 C.3   216  ILE216      0.0001
    118  N          2.9500  -40.1570   93.2520 N.am  217  ARG217     -0.1980
    119  CA         1.7990  -39.6820   94.0180 C.3   217  ARG217      0.1597
    120  C          1.0760  -40.8210   94.7410 C.2   217  ARG217      0.2287
    121  O          0.7160  -40.6600   95.9080 O.2   217  ARG217     -0.2864
    122  CB         0.8580  -38.8400   93.1530 C.3   217  ARG217      0.0334
    123  CG         1.4590  -37.5120   92.7520 C.3   217  ARG217      0.0492
    124  CD         1.8120  -36.5260   93.8620 C.3   217  ARG217      0.2205
    125  NE         0.5740  -36.1380   94.5770 N.pl3 217  ARG217     -0.0865
    126  CZ         0.6150  -35.5870   95.7930 C.cat 217  ARG217      0.5346
    127  NH1        1.7150  -35.3210   96.4810 N.pl3 217  ARG217      0.1354
    128  NH2       -0.5710  -35.3040   96.3770 N.pl3 217  ARG217      0.1354
    129  N         -2.5100  -33.2370   84.7150 N.3   242  LEU242     -0.1231
    130  CA        -1.8340  -34.0110   85.7570 C.3   242  LEU242      0.1693
    131  C         -2.5560  -33.8030   87.1010 C.2   242  LEU242      0.2591
    132  O         -2.6690  -34.7500   87.8690 O.2   242  LEU242     -0.2718
    133  CB        -0.3470  -33.6240   85.8660 C.3   242  LEU242      0.0284
    134  CG         0.5550  -34.0590   84.7110 C.3   242  LEU242      0.0019
    135  CD1        1.9290  -33.4690   84.9240 C.3   242  LEU242      0.0001
    136  CD2        0.6690  -35.5580   84.6160 C.3   242  LEU242      0.0001
    137  N         -3.1050  -32.5940   87.3510 N.am  243  ARG243     -0.1980
    138  CA        -3.8710  -32.2950   88.5730 C.3   243  ARG243      0.1597
    139  C         -5.1490  -33.1260   88.6560 C.2   243  ARG243      0.2287
    140  O         -5.4470  -33.6700   89.7230 O.2   243  ARG243     -0.2864
    141  CB        -4.1980  -30.8030   88.6860 C.3   243  ARG243      0.0334
    142  CG        -2.9950  -29.8720   88.9000 C.3   243  ARG243      0.0492
    143  CD        -2.4140  -30.1260   90.2620 C.3   243  ARG243      0.2205
    144  NE        -1.2760  -29.2370   90.5300 N.pl3 243  ARG243     -0.0865
    145  CZ        -0.0130  -29.6850   90.4780 C.cat 243  ARG243      0.5346
    146  NH1        0.3180  -30.9840   90.2510 N.pl3 243  ARG243      0.1354
    147  NH2        0.9510  -28.8060   90.7470 N.pl3 243  ARG243      0.1354
    148  N         -4.2110  -36.7350   89.3690 N.3   246  ILE246     -0.1245
    149  CA        -3.8480  -36.8030   90.8030 C.3   246  ILE246      0.1561
    150  C         -5.1010  -36.7730   91.7100 C.2   246  ILE246      0.2260
    151  O         -5.1720  -37.5030   92.7090 O.2   246  ILE246     -0.2867
    152  CB        -2.7240  -35.7850   91.1930 C.3   246  ILE246      0.0252
    153  CG1       -1.4220  -36.1580   90.4650 C.3   246  ILE246      0.0019
    154  CG2       -2.4790  -35.7170   92.7130 C.3   246  ILE246      0.0019
    155  CD1       -0.3770  -35.0760   90.3870 C.3   246  ILE246      0.0001
@<TRIPOS>BOND
     1    93    92    2
     2    92    91    1
     3    90    91    1
     4    91    94    1
     5    72    70    1
     6    94    95    1
     7    65    63   am
     8    95    96   ar
     9    95    97   ar
    10    70    71    1
    11    70    67    1
    12    63    64    2
    13    63    62    1
    14    96    98   ar
    15    58    57    1
    16    58    59    1
    17    58    61    1
    18    57    55   am
    19    59    60    2
    20    97    99   ar
    21    98   100   ar
    22    54    55    1
    23    54    53    1
    24    62    61    1
    25    55    56    2
    26    67    66    1
    27    67    68    1
    28    99   100   ar
    29   100   101    1
    30   136   134    1
    31    69    68    2
    32   134   135    1
    33   134   133    1
    34   129   130    1
    35    68    73   am
    36    53    48   am
    37   130   133    1
    38   130   131    1
    39    49    48    2
    40    48    47    1
    41    51    50    1
    42    73    74    1
    43   109   107    1
    44    89    87    1
    45   131   137   am
    46   131   132    2
    47    47    50    1
    48    47    46    1
    49   137   138    1
    50    74    75    1
    51    50    52    1
    52   107   106    1
    53   102   103    1
    54    75    76    2
    55   106   103    1
    56   106   108    1
    57    87    86    1
    58    46    40   am
    59   103   104    1
    60   138   139    1
    61   138   141    1
    62   139   140    2
    63   141   142    1
    64   142   143    1
    65    88    86    1
    66    86    83    1
    67   104   105    2
    68   148   149    1
    69    40    41    2
    70    40    39    1
    71    45    44    1
    72   146   145    1
    73   143   144    1
    74   155   153    1
    75    42    39    1
    76    42    43    1
    77   153   152    1
    78   145   144    2
    79   145   147    1
    80    83    82    1
    81    83    84    1
    82    39    38    1
    83    82    79   am
    84   149   152    1
    85   149   150    1
    86    44    43    1
    87    81    78    1
    88   117   115    1
    89   152   154    1
    90    77    78    1
    91    84    85    2
    92   150   151    2
    93    79    78    1
    94    79    80    2
    95   115   114    1
    96   110   111    1
    97    38    36   am
    98    37    36    2
    99    36    35    1
   100   114   111    1
   101   114   116    1
   102   123   122    1
   103   123   124    1
   104   111   112    1
   105    33    31    1
   106    14    12   ar
   107    14    15   ar
   108   122   119    1
   109    25    23   ar
   110    25    24   ar
   111   118   112   am
   112   118   119    1
   113    23    21   ar
   114    12    11   ar
   115   112   113    2
   116   124   125    1
   117    35    34    1
   118   119   120    1
   119    15    13   ar
   120    24    22   ar
   121    31    30    1
   122   125   126    2
   123   120   121    2
   124     4     3    2
   125    21    22   ar
   126    21    20    1
   127    32    30    1
   128    11    13   ar
   129    11    10    1
   130    30    27    1
   131     5     2    1
   132   126   128    1
   133   126   127    1
   134     3     2    1
   135     3     6   am
   136    20    17    1
   137    27    26    1
   138    27    28    1
   139    10     7    1
   140     2     1    1
   141     7     6    1
   142     7     8    1
   143    26    18   am
   144    18    19    2
   145    18    17    1
   146    17    16    1
   147    28    29    2
   148     8     9    2
