@<TRIPOS>MOLECULE
tmp/3uk6L00.pdb
 125 120 0 0 0
SMALL
GASTEIGER

@<TRIPOS>ATOM
      1  N         14.6130    1.6140   74.3060 N.3    29  PRO29      -0.2102
      2  CA        15.2590    1.1370   75.5490 C.3    29  PRO29       0.1504
      3  C         16.7170    0.7020   75.3840 C.2    29  PRO29       0.2576
      4  O         17.1040    0.1520   74.3420 O.2    29  PRO29      -0.2718
      5  CB        14.3970   -0.0470   75.9590 C.3    29  PRO29       0.0282
      6  CG        13.0680    0.2040   75.2830 C.3    29  PRO29       0.0208
      7  CD        13.4360    0.7900   73.9690 C.3    29  PRO29       0.0893
      8  N         17.5140    0.9860   76.4110 N.am   30  GLY30      -0.1943
      9  CA        18.9310    0.6610   76.4440 C.3    30  GLY30       0.2014
     10  C         19.7800    1.4790   75.4940 C.2    30  GLY30       0.2640
     11  O         20.7280    0.9360   74.9250 O.2    30  GLY30      -0.2714
     12  N         19.4530    2.7810   75.3080 N.am   31  THR31      -0.1936
     13  CA        20.2300    3.6940   74.4590 C.3    31  THR31       0.2028
     14  C         20.9830    4.7820   75.2740 C.2    31  THR31       0.2643
     15  O         21.3220    5.8430   74.7390 O.2    31  THR31      -0.2714
     16  CB        19.4120    4.2510   73.2770 C.3    31  THR31       0.1808
     17  OG1       18.2960    4.9760   73.7720 O.3    31  THR31      -0.2208
     18  CG2       18.9770    3.1810   72.2970 C.3    31  THR31       0.0379
     19  N         21.2650    4.5020   76.5440 N.am   32  GLY32      -0.1939
     20  CA        21.9800    5.4370   77.4120 C.3    32  GLY32       0.2014
     21  C         21.2330    6.6810   77.8610 C.2    32  GLY32       0.2639
     22  O         21.8700    7.6740   78.2240 O.2    32  GLY32      -0.2714
     23  N         19.8680    6.6460   77.8550 N.am   33  LYS33      -0.1963
     24  CA        19.0460    7.7820   78.3150 C.3    33  LYS33       0.1728
     25  C         19.3680    8.0610   79.7870 C.2    33  LYS33       0.2617
     26  O         19.7340    9.1930   80.1300 O.2    33  LYS33      -0.2715
     27  CB        17.5500    7.5510   78.0820 C.3    33  LYS33       0.0311
     28  CG        17.0820    7.1060   76.7150 C.3    33  LYS33       0.0038
     29  CD        15.5860    6.8140   76.7160 C.3    33  LYS33       0.0206
     30  CE        15.1530    5.8230   77.7770 C.3    33  LYS33       0.1093
     31  NZ        13.8030    5.2740   77.4680 N.3    33  LYS33      -0.1314
     32  N         19.3640    6.9940   80.6270 N.am   34  THR34      -0.1937
     33  CA        19.7330    7.0800   82.0450 C.3    34  THR34       0.2028
     34  C         21.2110    7.4630   82.1960 C.2    34  THR34       0.2642
     35  O         21.5200    8.2840   83.0560 O.2    34  THR34      -0.2714
     36  CB        19.3880    5.7910   82.8030 C.3    34  THR34       0.1808
     37  OG1       18.1000    5.3230   82.3940 O.3    34  THR34      -0.2208
     38  CG2       19.3910    5.9920   84.3150 C.3    34  THR34       0.0379
     39  N         22.1010    6.8950   81.3500 N.am   35  ALA35      -0.1963
     40  CA        23.5580    7.1700   81.3650 C.3    35  ALA35       0.1728
     41  C         23.8560    8.6630   81.1210 C.2    35  ALA35       0.2616
     42  O         24.6460    9.2540   81.8630 O.2    35  ALA35      -0.2715
     43  CB        24.2930    6.2920   80.3460 C.3    35  ALA35       0.0334
     44  N         23.1630    9.2830   80.1310 N.am   36  ILE36      -0.1977
     45  CA        23.2940   10.7140   79.8320 C.3    36  ILE36       0.1596
     46  C         22.7850   11.5590   81.0180 C.2    36  ILE36       0.2287
     47  O         23.4260   12.5470   81.3870 O.2    36  ILE36      -0.2864
     48  CB        22.6710   11.0790   78.4610 C.3    36  ILE36       0.0276
     49  CG1       23.5900   10.5760   77.3330 C.3    36  ILE36       0.0022
     50  CG2       22.4350   12.5920   78.3260 C.3    36  ILE36       0.0022
     51  CD1       22.9050   10.1060   76.1120 C.3    36  ILE36       0.0001
     52  N         12.0080    8.2370   84.1570 N.3   109  ASP109     -0.1239
     53  CA        11.9120    7.3100   83.0440 C.3   109  ASP109      0.1674
     54  C         10.4170    6.9300   82.8620 C.2   109  ASP109      0.2266
     55  O          9.6140    7.1570   83.7820 O.2   109  ASP109     -0.2867
     56  CB        12.7400    6.0590   83.3790 C.3   109  ASP109      0.1410
     57  CG        13.3300    5.3830   82.1680 C.2   109  ASP109      0.3668
     58  OD1       12.7350    5.5100   81.0660 O.co2 109  ASP109     -0.2456
     59  OD2       14.3870    4.7270   82.3120 O.co2 109  ASP109     -0.2456
     60  N         22.7790    1.5440   69.4610 N.3   172  TYR172     -0.1241
     61  CA        24.1970    1.2160   69.3080 C.3   172  TYR172      0.1605
     62  C         24.5700    0.2770   68.1670 C.2   172  TYR172      0.2264
     63  O         23.8320   -0.6470   67.8450 O.2   172  TYR172     -0.2867
     64  CB        24.7860    0.7240   70.6410 C.3   172  TYR172      0.0534
     65  CG        24.7520    1.7800   71.7290 C.ar  172  TYR172     -0.0201
     66  CD1       25.6070    2.8780   71.6900 C.ar  172  TYR172     -0.0009
     67  CD2       23.8690    1.6790   72.8010 C.ar  172  TYR172     -0.0009
     68  CE1       25.5730    3.8580   72.6770 C.ar  172  TYR172      0.0417
     69  CE2       23.8340    2.6520   73.8040 C.ar  172  TYR172      0.0417
     70  CZ        24.6790    3.7460   73.7290 C.ar  172  TYR172      0.1957
     71  OH        24.6460    4.7240   74.6920 O.3   172  TYR172     -0.2866
     72  N         30.5940   -1.2710   75.2670 N.3   180  ILE180     -0.1245
     73  CA        29.7760   -1.0870   76.4680 C.3   180  ILE180      0.1561
     74  C         29.8060   -2.3800   77.2980 C.2   180  ILE180      0.2260
     75  O         30.0260   -2.3110   78.5080 O.2   180  ILE180     -0.2867
     76  CB        28.3390   -0.5770   76.1470 C.3   180  ILE180      0.0252
     77  CG1       28.4340    0.8850   75.6650 C.3   180  ILE180      0.0019
     78  CG2       27.4230   -0.7270   77.3370 C.3   180  ILE180      0.0019
     79  CD1       27.1590    1.4150   75.0680 C.3   180  ILE180      0.0001
     80  N         33.1770   -2.8100   79.0500 N.3   183  ILE183     -0.1231
     81  CA        33.2290   -1.8720   80.1730 C.3   183  ILE183      0.1692
     82  C         32.4620   -2.4400   81.3640 C.2   183  ILE183      0.2591
     83  O         32.9370   -2.3240   82.4910 O.2   183  ILE183     -0.2718
     84  CB        32.6940   -0.4810   79.7760 C.3   183  ILE183      0.0266
     85  CG1       33.7060    0.1780   78.8160 C.3   183  ILE183      0.0019
     86  CG2       32.4210    0.3710   80.9910 C.3   183  ILE183      0.0020
     87  CD1       33.1880    1.4180   78.1410 C.3   183  ILE183      0.0001
     88  N         31.2830   -3.0560   81.1200 N.am  184  ARG184     -0.1980
     89  CA        30.4530   -3.6480   82.1810 C.3   184  ARG184      0.1597
     90  C         31.1470   -4.8440   82.8440 C.2   184  ARG184      0.2287
     91  O         31.0910   -4.9730   84.0710 O.2   184  ARG184     -0.2864
     92  CB        29.0390   -4.0060   81.6810 C.3   184  ARG184      0.0334
     93  CG        28.1540   -2.7870   81.4150 C.3   184  ARG184      0.0492
     94  CD        27.6850   -2.0840   82.6920 C.3   184  ARG184      0.2205
     95  NE        26.7480   -0.9920   82.4040 N.pl3 184  ARG184     -0.0865
     96  CZ        27.1700    0.2470   82.2110 C.cat 184  ARG184      0.5346
     97  NH1       28.4650    0.5690   82.2270 N.pl3 184  ARG184      0.1354
     98  NH2       26.2820    1.2020   81.9650 N.pl3 184  ARG184      0.1354
     99  N         20.4430   -4.7250   75.0260 N.3   199  LEU199     -0.1231
    100  CA        21.6890   -4.5020   75.7660 C.3   199  LEU199      0.1693
    101  C         21.5450   -5.0360   77.2110 C.2   199  LEU199      0.2591
    102  O         22.4770   -5.6470   77.7370 O.2   199  LEU199     -0.2718
    103  CB        22.0310   -2.9840   75.7680 C.3   199  LEU199      0.0284
    104  CG        23.4370   -2.5500   76.2520 C.3   199  LEU199      0.0019
    105  CD1       24.5670   -3.2020   75.4020 C.3   199  LEU199      0.0001
    106  CD2       23.5900   -1.0170   76.2410 C.3   199  LEU199      0.0001
    107  N         20.3540   -4.8450   77.8190 N.am  200  ARG200     -0.1980
    108  CA        20.0410   -5.2880   79.1750 C.3   200  ARG200      0.1597
    109  C         20.0900   -6.8020   79.2820 C.2   200  ARG200      0.2287
    110  O         20.6880   -7.3070   80.2400 O.2   200  ARG200     -0.2864
    111  CB        18.6740   -4.7510   79.6270 C.3   200  ARG200      0.0334
    112  CG        18.5250   -3.2450   79.6910 C.3   200  ARG200      0.0492
    113  CD        19.4450   -2.7120   80.8120 C.3   200  ARG200      0.2205
    114  NE        19.2880   -1.2610   80.9550 N.pl3 200  ARG200     -0.0865
    115  CZ        19.8920   -0.3870   80.1480 C.cat 200  ARG200      0.5346
    116  NH1       20.6960   -0.7950   79.1460 N.pl3 200  ARG200      0.1354
    117  NH2       19.6670    0.9180   80.3320 N.pl3 200  ARG200      0.1354
    118  N         23.6610   -8.0060   79.0560 N.3   203  ILE203     -0.1245
    119  CA        24.3140   -7.7190   80.3460 C.3   203  ILE203      0.1561
    120  C         23.8420   -8.6910   81.4660 C.2   203  ILE203      0.2260
    121  O         24.6470   -9.1290   82.3050 O.2   203  ILE203     -0.2867
    122  CB        24.2850   -6.2020   80.7190 C.3   203  ILE203      0.0252
    123  CG1       25.0480   -5.3630   79.6740 C.3   203  ILE203      0.0019
    124  CG2       24.8690   -5.9390   82.1160 C.3   203  ILE203      0.0019
    125  CD1       24.7110   -3.8940   79.6310 C.3   203  ILE203      0.0001
@<TRIPOS>BOND
     1    63    62    2
     2    62    61    1
     3    61    60    1
     4    61    64    1
     5    64    65    1
     6    66    65   ar
     7    66    68   ar
     8    65    67   ar
     9    18    16    1
    10    68    70   ar
    11    67    69   ar
    12    16    17    1
    13    16    13    1
    14    70    69   ar
    15    70    71    1
    16     7     1    1
    17     7     6    1
    18     1     2    1
    19     4     3    2
    20    13    14    1
    21    13    12    1
    22    15    14    2
    23    11    10    2
    24    99   100    1
    25    79    77    1
    26    72    73    1
    27    14    19   am
    28     6     5    1
    29    12    10   am
    30     3     2    1
    31     3     8   am
    32   105   104    1
    33    10     9    1
    34     2     5    1
    35    77    76    1
    36   100   103    1
    37   100   101    1
    38   103   104    1
    39    51    49    1
    40    76    73    1
    41    76    78    1
    42   106   104    1
    43     8     9    1
    44    73    74    1
    45    19    20    1
    46    28    29    1
    47    28    27    1
    48    29    30    1
    49   101   102    2
    50   101   107   am
    51    74    75    2
    52    49    48    1
    53    20    21    1
    54    31    30    1
    55   107   108    1
    56    23    21   am
    57    23    24    1
    58    21    22    2
    59    27    24    1
    60    87    85    1
    61    24    25    1
    62    50    48    1
    63    48    45    1
    64    85    84    1
    65    80    81    1
    66   118   119    1
    67   116   115    1
    68   108   109    1
    69   108   111    1
    70   109   110    2
    71   111   112    1
    72   125   123    1
    73   123   122    1
    74   112   113    1
    75    84    81    1
    76    84    86    1
    77    25    26    2
    78    25    32   am
    79    45    44    1
    80    45    46    1
    81    44    41   am
    82   115   117    1
    83   115   114    2
    84    81    82    1
    85    43    40    1
    86   119   122    1
    87   119   120    1
    88    32    33    1
    89   122   124    1
    90   113   114    1
    91    46    47    2
    92    58    57   ar
    93    88    82   am
    94    88    89    1
    95    41    40    1
    96    41    42    2
    97    39    40    1
    98    39    34   am
    99    82    83    2
   100    93    92    1
   101    93    94    1
   102   120   121    2
   103    92    89    1
   104    98    96    1
   105    33    34    1
   106    33    36    1
   107    57    59   ar
   108    57    56    1
   109    89    90    1
   110    34    35    2
   111    96    97    1
   112    96    95    2
   113    37    36    1
   114    95    94    1
   115    36    38    1
   116    90    91    2
   117    54    53    1
   118    54    55    2
   119    53    56    1
   120    53    52    1
