@<TRIPOS>MOLECULE
tmp/3ukkA01.pdb
 231 228 0 0 0
SMALL
GASTEIGER

@<TRIPOS>ATOM
      1  N         23.2970  -14.6290   65.7080 N.3    94  VAL94      -0.1245
      2  CA        21.9800  -15.2450   65.6860 C.3    94  VAL94       0.1561
      3  C         21.7550  -15.9770   67.0070 C.2    94  VAL94       0.2260
      4  O         22.6200  -16.7120   67.4770 O.2    94  VAL94      -0.2867
      5  CB        21.8310  -16.2340   64.5160 C.3    94  VAL94       0.0252
      6  CG1       20.4560  -16.8820   64.5420 C.3    94  VAL94       0.0019
      7  CG2       22.0700  -15.5300   63.1890 C.3    94  VAL94       0.0019
      8  N         26.9050  -14.1770   62.8820 N.3   103  TYR103     -0.1241
      9  CA        26.3980  -14.0700   61.5210 C.3   103  TYR103      0.1605
     10  C         27.5760  -14.0310   60.5530 C.2   103  TYR103      0.2264
     11  O         28.6030  -13.4220   60.8540 O.2   103  TYR103     -0.2867
     12  CB        25.5460  -12.8020   61.4010 C.3   103  TYR103      0.0534
     13  CG        25.2160  -12.3610   59.9890 C.ar  103  TYR103     -0.0201
     14  CD1       24.0920  -12.8420   59.3320 C.ar  103  TYR103     -0.0009
     15  CD2       26.0150  -11.4380   59.3260 C.ar  103  TYR103     -0.0009
     16  CE1       23.7830  -12.4310   58.0500 C.ar  103  TYR103      0.0417
     17  CE2       25.7170  -11.0240   58.0450 C.ar  103  TYR103      0.0417
     18  CZ        24.6000  -11.5220   57.4100 C.ar  103  TYR103      0.1957
     19  OH        24.2970  -11.1080   56.1310 O.3   103  TYR103     -0.2866
     20  N         24.9620  -17.2220   59.9790 N.3   105  PHE105     -0.1227
     21  CA        24.6980  -18.4660   60.6970 C.3   105  PHE105      0.1736
     22  C         25.3090  -19.6870   60.0120 C.2   105  PHE105      0.2595
     23  O         25.9450  -20.5210   60.6620 O.2   105  PHE105     -0.2718
     24  CB        23.1850  -18.6510   60.8550 C.3   105  PHE105      0.0547
     25  CG        22.7920  -19.8400   61.6830 C.ar  105  PHE105     -0.0202
     26  CD1       22.5470  -19.7040   63.0390 C.ar  105  PHE105     -0.0042
     27  CD2       22.6470  -21.0880   61.1040 C.ar  105  PHE105     -0.0042
     28  CE1       22.1760  -20.7930   63.8060 C.ar  105  PHE105     -0.0003
     29  CE2       22.2770  -22.1820   61.8640 C.ar  105  PHE105     -0.0003
     30  CZ        22.0410  -22.0330   63.2190 C.ar  105  PHE105     -0.0000
     31  N         25.1180  -19.7830   58.7000 N.am  106  GLN106     -0.1979
     32  CA        25.5190  -20.9680   57.9480 C.3   106  GLN106      0.1601
     33  C         27.0320  -21.1150   57.7840 C.2   106  GLN106      0.2287
     34  O         27.4990  -22.0790   57.1830 O.2   106  GLN106     -0.2864
     35  CB        24.8290  -21.0060   56.5790 C.3   106  GLN106      0.0394
     36  CG        25.1000  -19.7990   55.6890 C.3   106  GLN106      0.0908
     37  CD        24.1360  -18.6550   55.9410 C.2   106  GLN106      0.2608
     38  OE1       23.5220  -18.5630   57.0030 O.2   106  GLN106     -0.2717
     39  NE2       23.9920  -17.7780   54.9540 N.am  106  GLN106     -0.0878
     40  N         12.2970  -20.3690   46.6440 N.3   141  PHE141     -0.1241
     41  CA        13.3020  -19.9690   47.6150 C.3   141  PHE141      0.1605
     42  C         13.6950  -21.1960   48.4300 C.2   141  PHE141      0.2264
     43  O         14.8700  -21.4020   48.7290 O.2   141  PHE141     -0.2867
     44  CB        12.7280  -18.8730   48.5170 C.3   141  PHE141      0.0534
     45  CG        13.6680  -18.3940   49.5860 C.ar  141  PHE141     -0.0203
     46  CD1       15.0380  -18.4950   49.4330 C.ar  141  PHE141     -0.0042
     47  CD2       13.1690  -17.8410   50.7560 C.ar  141  PHE141     -0.0042
     48  CE1       15.8920  -18.0500   50.4290 C.ar  141  PHE141     -0.0003
     49  CE2       14.0190  -17.3950   51.7520 C.ar  141  PHE141     -0.0003
     50  CZ        15.3800  -17.5010   51.5880 C.ar  141  PHE141     -0.0000
     51  N         17.2360  -23.1530   61.0350 N.3   157  PHE157     -0.1227
     52  CA        17.2660  -21.6920   61.0150 C.3   157  PHE157      0.1736
     53  C         16.4860  -21.0500   59.8650 C.2   157  PHE157      0.2595
     54  O         15.5270  -20.3140   60.0940 O.2   157  PHE157     -0.2718
     55  CB        18.7160  -21.2030   60.9970 C.3   157  PHE157      0.0547
     56  CG        18.8650  -19.7620   60.6150 C.ar  157  PHE157     -0.0202
     57  CD1       18.5100  -18.7590   61.4990 C.ar  157  PHE157     -0.0042
     58  CD2       19.3680  -19.4090   59.3740 C.ar  157  PHE157     -0.0042
     59  CE1       18.6460  -17.4290   61.1520 C.ar  157  PHE157     -0.0003
     60  CE2       19.5090  -18.0830   59.0240 C.ar  157  PHE157     -0.0003
     61  CZ        19.1470  -17.0910   59.9160 C.ar  157  PHE157     -0.0000
     62  N         16.9110  -21.3250   58.6350 N.am  158  MET158     -0.1979
     63  CA        16.3580  -20.6650   57.4580 C.3   158  MET158      0.1605
     64  C         14.8350  -20.6890   57.3970 C.2   158  MET158      0.2287
     65  O         14.1950  -19.6400   57.4510 O.2   158  MET158     -0.2864
     66  CB        16.9450  -21.2630   56.1860 C.3   158  MET158      0.0413
     67  CG        18.3760  -20.8450   55.9220 C.3   158  MET158      0.0598
     68  SD        18.5390  -19.0990   55.4890 S.3   158  MET158     -0.1393
     69  CE        20.2940  -18.8980   55.7410 C.3   158  MET158      0.0692
     70  N         13.0480  -18.9040   60.3560 N.3   161  TYR161     -0.1227
     71  CA        13.3820  -17.4840   60.3610 C.3   161  TYR161      0.1736
     72  C         12.6910  -16.7390   59.2380 C.2   161  TYR161      0.2595
     73  O         11.9780  -15.7700   59.4710 O.2   161  TYR161     -0.2718
     74  CB        14.8880  -17.2630   60.2390 C.3   161  TYR161      0.0548
     75  CG        15.2510  -15.8020   60.1600 C.ar  161  TYR161     -0.0200
     76  CD1       15.0750  -14.9710   61.2550 C.ar  161  TYR161     -0.0009
     77  CD2       15.7610  -15.2510   58.9920 C.ar  161  TYR161     -0.0009
     78  CE1       15.3980  -13.6310   61.1950 C.ar  161  TYR161      0.0417
     79  CE2       16.0900  -13.9090   58.9230 C.ar  161  TYR161      0.0417
     80  CZ        15.9030  -13.1040   60.0310 C.ar  161  TYR161      0.1957
     81  OH        16.2200  -11.7670   59.9860 O.3   161  TYR161     -0.2866
     82  N         12.9170  -17.1960   58.0140 N.am  162  ASN162     -0.1974
     83  CA        12.3670  -16.5280   56.8440 C.3   162  ASN162      0.1688
     84  C         10.8570  -16.3260   56.8920 C.2   162  ASN162      0.2292
     85  O         10.3460  -15.3430   56.3580 O.2   162  ASN162     -0.2864
     86  CB        12.7830  -17.2470   55.5660 C.3   162  ASN162      0.1181
     87  CG        14.1480  -16.8200   55.0900 C.2   162  ASN162      0.2629
     88  OD1       14.2700  -15.9210   54.2630 O.2   162  ASN162     -0.2716
     89  ND2       15.1870  -17.4500   55.6240 N.am  162  ASN162     -0.0877
     90  N         10.1950  -13.3690   59.3430 N.3   165  VAL165     -0.1231
     91  CA        10.4230  -12.0250   58.8240 C.3   165  VAL165      0.1692
     92  C          9.5490  -11.6910   57.6090 C.2   165  VAL165      0.2592
     93  O          8.9620  -10.6130   57.5470 O.2   165  VAL165     -0.2718
     94  CB        11.9220  -11.7490   58.5330 C.3   165  VAL165      0.0266
     95  CG1       12.4700  -12.7060   57.4800 C.3   165  VAL165      0.0020
     96  CG2       12.1140  -10.3020   58.1120 C.3   165  VAL165      0.0020
     97  N          9.4440  -12.6150   56.6580 N.am  166  TRP166     -0.1976
     98  CA         8.6520  -12.3790   55.4480 C.3   166  TRP166      0.1640
     99  C          7.1490  -12.5210   55.6800 C.2   166  TRP166      0.2290
    100  O          6.3430  -11.9680   54.9320 O.2   166  TRP166     -0.2864
    101  CB         9.0970  -13.3090   54.3070 C.3   166  TRP166      0.0576
    102  CG        10.5100  -13.0710   53.8670 C.ar  166  TRP166      0.0006
    103  CD1       11.5920  -13.8590   54.1200 C.ar  166  TRP166      0.0946
    104  CD2       10.9960  -11.9550   53.1180 C.ar  166  TRP166      0.0152
    105  NE1       12.7210  -13.3100   53.5650 N.ar  166  TRP166     -0.2442
    106  CE2       12.3810  -12.1380   52.9460 C.ar  166  TRP166      0.0810
    107  CE3       10.3920  -10.8220   52.5670 C.ar  166  TRP166      0.0012
    108  CZ2       13.1740  -11.2280   52.2500 C.ar  166  TRP166      0.0191
    109  CZ3       11.1810   -9.9210   51.8750 C.ar  166  TRP166      0.0001
    110  CH2       12.5570  -10.1290   51.7240 C.ar  166  TRP166      0.0015
    111  N         16.3750  -13.1660   44.0970 N.3   177  TRP177     -0.1241
    112  CA        16.5580  -11.9400   44.8590 C.3   177  TRP177      0.1605
    113  C         17.7030  -11.9950   45.8710 C.2   177  TRP177      0.2264
    114  O         18.0760  -10.9720   46.4470 O.2   177  TRP177     -0.2867
    115  CB        15.2610  -11.5980   45.5900 C.3   177  TRP177      0.0550
    116  CG        14.8990  -12.6240   46.5840 C.ar  177  TRP177      0.0003
    117  CD1       14.0840  -13.6990   46.3910 C.ar  177  TRP177      0.0946
    118  CD2       15.3630  -12.7060   47.9320 C.ar  177  TRP177      0.0152
    119  NE1       14.0030  -14.4410   47.5410 N.ar  177  TRP177     -0.2442
    120  CE2       14.7800  -13.8530   48.5040 C.ar  177  TRP177      0.0810
    121  CE3       16.2130  -11.9190   48.7140 C.ar  177  TRP177      0.0012
    122  CZ2       15.0180  -14.2310   49.8240 C.ar  177  TRP177      0.0191
    123  CZ3       16.4490  -12.2970   50.0230 C.ar  177  TRP177      0.0001
    124  CH2       15.8540  -13.4410   50.5650 C.ar  177  TRP177      0.0015
    125  N         22.2730  -11.2170   49.5620 N.3   181  LYS181     -0.1231
    126  CA        21.4930  -11.2120   50.7940 C.3   181  LYS181      0.1693
    127  C         21.7180  -12.4650   51.6300 C.2   181  LYS181      0.2592
    128  O         21.9280  -12.3790   52.8410 O.2   181  LYS181     -0.2718
    129  CB        20.0060  -11.0580   50.4800 C.3   181  LYS181      0.0285
    130  CG        19.6140   -9.6790   49.9970 C.3   181  LYS181      0.0035
    131  CD        19.7420   -8.6560   51.1130 C.3   181  LYS181      0.0206
    132  CE        19.3020   -7.2780   50.6440 C.3   181  LYS181      0.1093
    133  NZ        19.4760   -6.2570   51.7130 N.3   181  LYS181     -0.1314
    134  N         21.6630  -13.6250   50.9810 N.am  182  VAL182     -0.1966
    135  CA        21.8280  -14.9010   51.6740 C.3   182  VAL182      0.1727
    136  C         23.1170  -15.6000   51.2510 C.2   182  VAL182      0.2616
    137  O         23.2920  -15.9450   50.0840 O.2   182  VAL182     -0.2715
    138  CB        20.6360  -15.8450   51.4190 C.3   182  VAL182      0.0290
    139  CG1       20.7720  -17.1000   52.2530 C.3   182  VAL182      0.0023
    140  CG2       19.3270  -15.1470   51.7340 C.3   182  VAL182      0.0023
    141  N         24.0140  -15.8110   52.2100 N.am  183  ALA183     -0.1977
    142  CA        25.3000  -16.4480   51.9390 C.3   183  ALA183      0.1597
    143  C         25.1680  -17.9440   51.6350 C.2   183  ALA183      0.2287
    144  O         24.4370  -18.6620   52.3150 O.2   183  ALA183     -0.2864
    145  CB        26.2490  -16.2290   53.1120 C.3   183  ALA183      0.0319
    146  N         27.6380   -5.7220   54.7190 N.3   206  ASN206     -0.1240
    147  CA        27.4220   -5.1380   56.0370 C.3   206  ASN206      0.1653
    148  C         28.6790   -5.0630   56.8990 C.2   206  ASN206      0.2266
    149  O         28.7020   -4.3440   57.8890 O.2   206  ASN206     -0.2867
    150  CB        26.3390   -5.9170   56.7850 C.3   206  ASN206      0.1155
    151  CG        24.9730   -5.7700   56.1520 C.2   206  ASN206      0.2627
    152  OD1       24.5000   -4.6580   55.9280 O.2   206  ASN206     -0.2716
    153  ND2       24.3320   -6.8950   55.8550 N.am  206  ASN206     -0.0877
    154  N         19.5230  -11.7150   65.2490 N.3   316  TYR316     -0.1241
    155  CA        18.4450  -12.4470   64.5950 C.3   316  TYR316      0.1605
    156  C         17.8450  -13.5040   65.5200 C.2   316  TYR316      0.2264
    157  O         18.5700  -14.2170   66.2120 O.2   316  TYR316     -0.2867
    158  CB        18.9610  -13.1080   63.3200 C.3   316  TYR316      0.0534
    159  CG        19.6030  -12.1410   62.3520 C.ar  316  TYR316     -0.0201
    160  CD1       18.8280  -11.3900   61.4740 C.ar  316  TYR316     -0.0009
    161  CD2       20.9820  -11.9770   62.3170 C.ar  316  TYR316     -0.0009
    162  CE1       19.4090  -10.5040   60.5880 C.ar  316  TYR316      0.0417
    163  CE2       21.5720  -11.0940   61.4310 C.ar  316  TYR316      0.0417
    164  CZ        20.7820  -10.3610   60.5680 C.ar  316  TYR316      0.1957
    165  OH        21.3660   -9.4800   59.6870 O.3   316  TYR316     -0.2866
    166  N         11.7040  -10.8340   64.8820 N.3   325  TYR325     -0.1227
    167  CA        12.6440  -11.5930   64.0660 C.3   325  TYR325      0.1736
    168  C         14.0390  -10.9830   64.1390 C.2   325  TYR325      0.2595
    169  O         15.0400  -11.6610   63.8840 O.2   325  TYR325     -0.2718
    170  CB        12.1710  -11.6620   62.6080 C.3   325  TYR325      0.0548
    171  CG        12.0810  -10.3220   61.9000 C.ar  325  TYR325     -0.0200
    172  CD1       13.2090   -9.7230   61.3520 C.ar  325  TYR325     -0.0009
    173  CD2       10.8620   -9.6630   61.7650 C.ar  325  TYR325     -0.0009
    174  CE1       13.1310   -8.5020   60.6970 C.ar  325  TYR325      0.0417
    175  CE2       10.7720   -8.4410   61.1120 C.ar  325  TYR325      0.0417
    176  CZ        11.9110   -7.8640   60.5780 C.ar  325  TYR325      0.1957
    177  OH        11.8300   -6.6480   59.9260 O.3   325  TYR325     -0.2866
    178  N         14.0950   -9.7020   64.4950 N.am  326  ARG326     -0.1980
    179  CA        15.3580   -8.9760   64.5640 C.3   326  ARG326      0.1597
    180  C         15.3440   -7.9250   65.6700 C.2   326  ARG326      0.2287
    181  O         14.2980   -7.3710   66.0030 O.2   326  ARG326     -0.2864
    182  CB        15.6740   -8.3210   63.2180 C.3   326  ARG326      0.0334
    183  CG        16.9240   -7.4630   63.2360 C.3   326  ARG326      0.0492
    184  CD        17.4200   -7.1580   61.8330 C.3   326  ARG326      0.2205
    185  NE        16.4490   -6.3970   61.0580 N.pl3 326  ARG326     -0.0865
    186  CZ        16.6950   -5.8770   59.8620 C.cat 326  ARG326      0.5346
    187  NH1       17.8870   -6.0340   59.3060 N.pl3 326  ARG326      0.1354
    188  NH2       15.7530   -5.1950   59.2270 N.pl3 326  ARG326      0.1354
    189  N          7.7860   -4.6780   53.7590 N.3   418  TYR418     -0.1241
    190  CA         8.6110   -5.3370   52.7570 C.3   418  TYR418      0.1605
    191  C          7.7940   -5.6820   51.5180 C.2   418  TYR418      0.2264
    192  O          6.6820   -6.2000   51.6280 O.2   418  TYR418     -0.2867
    193  CB         9.2110   -6.6280   53.3210 C.3   418  TYR418      0.0534
    194  CG        10.2170   -6.4580   54.4430 C.ar  418  TYR418     -0.0201
    195  CD1        9.8570   -5.8570   55.6460 C.ar  418  TYR418     -0.0009
    196  CD2       11.5190   -6.9360   54.3110 C.ar  418  TYR418     -0.0009
    197  CE1       10.7750   -5.7170   56.6780 C.ar  418  TYR418      0.0417
    198  CE2       12.4390   -6.8060   55.3350 C.ar  418  TYR418      0.0417
    199  CZ        12.0660   -6.1950   56.5170 C.ar  418  TYR418      0.1957
    200  OH        12.9840   -6.0620   57.5400 O.3   418  TYR418     -0.2866
    201  N         11.2090    1.2110   46.7200 N.3   446  ARG446     -0.1245
    202  CA        10.9600   -0.0220   47.4630 C.3   446  ARG446      0.1563
    203  C          9.5780   -0.5670   47.1330 C.2   446  ARG446      0.2260
    204  O          9.4180   -1.7570   46.8650 O.2   446  ARG446     -0.2867
    205  CB        11.1000    0.2090   48.9690 C.3   446  ARG446      0.0307
    206  CG        10.9830   -1.0490   49.8120 C.3   446  ARG446      0.0489
    207  CD        11.4090   -0.7600   51.2370 C.3   446  ARG446      0.2205
    208  NE        11.1810   -1.8700   52.1600 N.pl3 446  ARG446     -0.0865
    209  CZ        12.1050   -2.7630   52.5070 C.cat 446  ARG446      0.5346
    210  NH1       13.3300   -2.6940   52.0000 N.pl3 446  ARG446      0.1354
    211  NH2       11.8010   -3.7280   53.3660 N.pl3 446  ARG446      0.1354
    212  N         12.7040   -6.2350   46.2960 N.3   452  TYR452     -0.1241
    213  CA        13.5090   -6.2500   47.5110 C.3   452  TYR452      0.1605
    214  C         15.0180   -6.2810   47.2290 C.2   452  TYR452      0.2264
    215  O         15.7920   -5.6420   47.9460 O.2   452  TYR452     -0.2867
    216  CB        13.0960   -7.4200   48.4140 C.3   452  TYR452      0.0534
    217  CG        13.8850   -7.5100   49.7010 C.ar  452  TYR452     -0.0201
    218  CD1       13.5450   -6.7360   50.7990 C.ar  452  TYR452     -0.0009
    219  CD2       14.9730   -8.3640   49.8130 C.ar  452  TYR452     -0.0009
    220  CE1       14.2640   -6.8120   51.9770 C.ar  452  TYR452      0.0417
    221  CE2       15.7020   -8.4470   50.9830 C.ar  452  TYR452      0.0417
    222  CZ        15.3430   -7.6680   52.0630 C.ar  452  TYR452      0.1957
    223  OH        16.0630   -7.7490   53.2330 O.3   452  TYR452     -0.2866
    224  N         16.4510   -0.7560   49.7460 N.3   456  ASN456     -0.1240
    225  CA        17.6410   -0.3260   50.4990 C.3   456  ASN456      0.1653
    226  C         17.9860    1.0970   50.1230 C.2   456  ASN456      0.2266
    227  O         17.9380    1.4610   48.9490 O.2   456  ASN456     -0.2867
    228  CB        18.8580   -1.2160   50.2560 C.3   456  ASN456      0.1155
    229  CG        19.0670   -2.2350   51.3590 C.2   456  ASN456      0.2627
    230  OD1       18.1450   -2.5550   52.1150 O.2   456  ASN456     -0.2716
    231  ND2       20.2880   -2.7490   51.4600 N.am  456  ASN456     -0.0877
@<TRIPOS>BOND
     1   111   112    1
     2   112   115    1
     3   112   113    1
     4   115   116    1
     5   113   114    2
     6   212   213    1
     7   117   116   ar
     8   117   119   ar
     9   116   118   ar
    10    40    41    1
    11   201   202    1
    12   204   203    2
    13   203   202    1
    14   214   213    1
    15   214   215    2
    16   202   205    1
    17   213   216    1
    18   119   120   ar
    19    41    42    1
    20    41    44    1
    21   118   120   ar
    22   118   121   ar
    23   216   217    1
    24    42    43    2
    25   120   122   ar
    26    44    45    1
    27   121   123   ar
    28   227   226    2
    29   205   206    1
    30    46    45   ar
    31    46    48   ar
    32   125   126    1
    33    45    47   ar
    34   217   219   ar
    35   217   218   ar
    36   224   225    1
    37   206   207    1
    38   219   221   ar
    39   122   124   ar
    40   130   129    1
    41   130   131    1
    42   123   124   ar
    43   137   136    2
    44   226   225    1
    45   228   225    1
    46   228   229    1
    47    48    50   ar
    48   129   126    1
    49   132   131    1
    50   132   133    1
    51    47    49   ar
    52   126   127    1
    53   218   220   ar
    54   134   127   am
    55   134   135    1
    56   221   222   ar
    57   207   208    1
    58   136   135    1
    59   136   141   am
    60   229   231   am
    61   229   230    2
    62   138   135    1
    63   138   140    1
    64   138   139    1
    65   191   192    2
    66   191   190    1
    67    50    49   ar
    68   127   128    2
    69   143   142    1
    70   143   144    2
    71   110   109   ar
    72   110   108   ar
    73   109   107   ar
    74   142   141    1
    75   142   145    1
    76   220   222   ar
    77   210   209    1
    78   222   223    1
    79   208   209    2
    80   108   106   ar
    81   209   211    1
    82   107   104   ar
    83   190   193    1
    84   190   189    1
    85   106   104   ar
    86   106   105   ar
    87   104   102   ar
    88   193   194    1
    89   105   103   ar
    90   102   103   ar
    91   102   101    1
    92    88    87    2
    93   101    98    1
    94   196   194   ar
    95   196   198   ar
    96   194   195   ar
    97   146   147    1
    98   100    99    2
    99    39    37   am
   100    87    86    1
   101    87    89   am
   102   198   199   ar
   103    98    99    1
   104    98    97    1
   105    68    69    1
   106    68    67    1
   107    86    83    1
   108   195   197   ar
   109    36    37    1
   110    36    35    1
   111   153   151   am
   112    67    66    1
   113   152   151    2
   114    37    38    2
   115   147   150    1
   116   147   148    1
   117    19    18    1
   118   151   150    1
   119    66    63    1
   120    85    84    2
   121   199   197   ar
   122   199   200    1
   123    35    32    1
   124    97    92   am
   125    83    84    1
   126    83    82    1
   127   148   149    2
   128    34    33    2
   129    64    65    2
   130    64    63    1
   131    18    17   ar
   132    18    16   ar
   133    63    62    1
   134    95    94    1
   135    93    92    2
   136    92    91    1
   137    33    32    1
   138    32    31    1
   139    82    72   am
   140    17    15   ar
   141    16    14   ar
   142    96    94    1
   143    94    91    1
   144    62    53   am
   145    31    22   am
   146    91    90    1
   147    79    77   ar
   148    79    80   ar
   149    77    75   ar
   150    60    58   ar
   151    60    61   ar
   152   188   186    1
   153    72    73    2
   154    72    71    1
   155   187   186    1
   156    15    13   ar
   157    14    13   ar
   158    58    56   ar
   159   165   164    1
   160   186   185    2
   161    53    54    2
   162    53    52    1
   163    61    59   ar
   164   177   176    1
   165    20    21    1
   166    81    80    1
   167    13    12    1
   168    22    23    2
   169    22    21    1
   170    80    78   ar
   171    75    74    1
   172    75    76   ar
   173    74    71    1
   174    70    71    1
   175    10    11    2
   176    10     9    1
   177   164   162   ar
   178   164   163   ar
   179   176   174   ar
   180   176   175   ar
   181   162   160   ar
   182    56    55    1
   183    56    57   ar
   184   174   172   ar
   185    21    24    1
   186    24    25    1
   187    55    52    1
   188    52    51    1
   189   185   184    1
   190    27    25   ar
   191    27    29   ar
   192   175   173   ar
   193    59    57   ar
   194    78    76   ar
   195   172   171   ar
   196    12     9    1
   197   163   161   ar
   198   160   159   ar
   199     9     8    1
   200    25    26   ar
   201   173   171   ar
   202   184   183    1
   203    29    30   ar
   204   171   170    1
   205   161   159   ar
   206   159   158    1
   207   170   167    1
   208    26    28   ar
   209     7     5    1
   210   182   183    1
   211   182   179    1
   212    30    28   ar
   213   158   155    1
   214   169   168    2
   215   167   168    1
   216   167   166    1
   217   168   178   am
   218   178   179    1
   219     5     6    1
   220     5     2    1
   221   179   180    1
   222   155   154    1
   223   155   156    1
   224   156   157    2
   225   180   181    2
   226     2     1    1
   227     2     3    1
   228     3     4    2
