@<TRIPOS>MOLECULE
tmp/3ukmC00.pdb
 104 97 0 0 0
SMALL
GASTEIGER

@<TRIPOS>ATOM
      1  N          8.7060    8.8660    0.9950 N.3    93  SER93      -0.1202
      2  CA         9.9490    8.1350    1.2180 C.3    93  SER93       0.2020
      3  C         10.7990    9.1560    1.9420 C.2    93  SER93       0.2619
      4  O         11.9200    8.9030    2.3800 O.2    93  SER93      -0.2717
      5  CB        10.6250    7.8050   -0.1100 C.3    93  SER93       0.2103
      6  OG        11.2320    8.9580   -0.6870 O.3    93  SER93      -0.2182
      7  N         10.2180   10.3410    2.0230 N.am   94  THR94      -0.1952
      8  CA        10.8030   11.5240    2.6440 C.3    94  THR94       0.1897
      9  C         12.1120   12.0160    2.0410 C.2    94  THR94       0.2313
     10  O         12.9700   12.4580    2.7580 O.2    94  THR94      -0.2863
     11  CB        11.0010   11.3620    4.1660 C.3    94  THR94       0.1794
     12  OG1       11.9910   10.3650    4.4160 O.3    94  THR94      -0.2208
     13  CG2        9.7040   10.9610    4.8200 C.3    94  THR94       0.0378
     14  N          5.9730    3.2020    5.9320 N.3   123  LEU123     -0.1245
     15  CA         6.8370    2.4180    6.7870 C.3   123  LEU123      0.1561
     16  C          6.3320    0.9990    6.6880 C.2   123  LEU123      0.2260
     17  O          7.0500    0.1020    6.2550 O.2   123  LEU123     -0.2867
     18  CB         6.7240    2.8840    8.2290 C.3   123  LEU123      0.0270
     19  CG         7.2370    4.2920    8.4590 C.3   123  LEU123      0.0019
     20  CD1        7.0550    4.6940    9.9040 C.3   123  LEU123      0.0001
     21  CD2        8.6970    4.3300    8.0740 C.3   123  LEU123      0.0001
     22  N          7.1360   -0.6770    3.5750 N.3   126  LEU126     -0.1245
     23  CA         8.5400   -1.0470    3.5160 C.3   126  LEU126      0.1561
     24  C          8.8470   -2.2070    4.4510 C.2   126  LEU126      0.2260
     25  O          9.4990   -3.1740    4.0720 O.2   126  LEU126     -0.2867
     26  CB         9.4040    0.1570    3.8940 C.3   126  LEU126      0.0270
     27  CG         9.5010    1.3000    2.8920 C.3   126  LEU126      0.0019
     28  CD1       10.1100    2.5260    3.5580 C.3   126  LEU126      0.0001
     29  CD2       10.3460    0.8350    1.7020 C.3   126  LEU126      0.0001
     30  N         24.0120    1.5640   -7.1060 N.3   167  PHE167     -0.1241
     31  CA        24.7120    2.8450   -7.2170 C.3   167  PHE167      0.1605
     32  C         25.5170    2.9730   -8.4990 C.2   167  PHE167      0.2264
     33  O         25.2790    3.8720   -9.2970 O.2   167  PHE167     -0.2867
     34  CB        25.6430    3.0710   -6.0290 C.3   167  PHE167      0.0534
     35  CG        24.9260    3.3730   -4.7590 C.ar  167  PHE167     -0.0203
     36  CD1       25.5710    4.0480   -3.7360 C.ar  167  PHE167     -0.0042
     37  CD2       23.5940    2.9980   -4.5870 C.ar  167  PHE167     -0.0042
     38  CE1       24.9010    4.3520   -2.5590 C.ar  167  PHE167     -0.0003
     39  CE2       22.9200    3.2970   -3.4180 C.ar  167  PHE167     -0.0003
     40  CZ        23.5730    3.9770   -2.4000 C.ar  167  PHE167     -0.0000
     41  N         23.5250    8.4460   -4.0790 N.3   191  PHE191     -0.1241
     42  CA        23.7510    8.3390   -2.6650 C.3   191  PHE191      0.1605
     43  C         22.7310    9.1850   -1.8920 C.2   191  PHE191      0.2264
     44  O         21.9400    8.6430   -1.1080 O.2   191  PHE191     -0.2867
     45  CB        25.1480    8.8020   -2.3130 C.3   191  PHE191      0.0534
     46  CG        25.4130    8.7760   -0.8460 C.ar  191  PHE191     -0.0203
     47  CD1       25.8680    7.6200   -0.2330 C.ar  191  PHE191     -0.0042
     48  CD2       25.1250    9.8870   -0.0540 C.ar  191  PHE191     -0.0042
     49  CE1       26.0280    7.5680    1.1500 C.ar  191  PHE191     -0.0003
     50  CE2       25.2790    9.8470    1.3310 C.ar  191  PHE191     -0.0003
     51  CZ        25.7300    8.6870    1.9320 C.ar  191  PHE191     -0.0000
     52  N         19.0420    7.6620   -2.2830 N.3   194  LEU194     -0.1231
     53  CA        18.7170    6.4380   -1.5890 C.3   194  LEU194      0.1693
     54  C         18.9290    6.5700   -0.0830 C.2   194  LEU194      0.2593
     55  O         18.4970    5.7130    0.7070 O.2   194  LEU194     -0.2718
     56  CB        19.5340    5.2870   -2.1800 C.3   194  LEU194      0.0284
     57  CG        18.8710    4.5710   -3.3680 C.3   194  LEU194      0.0019
     58  CD1       18.6510    5.5420   -4.4980 C.3   194  LEU194      0.0001
     59  CD2       19.7390    3.4150   -3.8290 C.3   194  LEU194      0.0001
     60  N         19.5760    7.6540    0.3220 N.am  195  SER195     -0.1938
     61  CA        19.8030    7.8780    1.7410 C.3   195  SER195      0.2055
     62  C         18.6150    8.6520    2.2880 C.2   195  SER195      0.2643
     63  O         18.4340    8.7560    3.5000 O.2   195  SER195     -0.2714
     64  CB        21.0700    8.7030    1.9420 C.3   195  SER195      0.2130
     65  OG        20.9260   10.0010    1.4010 O.3   195  SER195     -0.2179
     66  N         17.8150    9.1590    1.3470 N.am  196  THR196     -0.1950
     67  CA        16.6310   10.0100    1.5380 C.3   196  THR196      0.1897
     68  C         17.0570   11.3840    2.0250 C.2   196  THR196      0.2313
     69  O         16.2850   12.0610    2.6580 O.2   196  THR196     -0.2863
     70  CB        15.5600    9.4500    2.5190 C.3   196  THR196      0.1794
     71  OG1       16.1040    9.3860    3.8390 O.3   196  THR196     -0.2208
     72  CG2       15.0940    8.0830    2.0960 C.3   196  THR196      0.0378
     73  N         15.6490    1.9650   -2.1010 N.3   228  LEU228     -0.1245
     74  CA        15.4360    2.2150   -0.6820 C.3   228  LEU228      0.1561
     75  C         15.2290    0.8580   -0.0190 C.2   228  LEU228      0.2260
     76  O         15.8930    0.5120    0.9590 O.2   228  LEU228     -0.2867
     77  CB        14.2010    3.1030   -0.4910 C.3   228  LEU228      0.0270
     78  CG        13.8440    3.5180    0.9440 C.3   228  LEU228      0.0019
     79  CD1       15.0750    4.1110    1.6990 C.3   228  LEU228      0.0001
     80  CD2       12.7050    4.5230    0.8670 C.3   228  LEU228      0.0001
     81  N         18.3720   -0.8280    0.2720 N.3   231  MET231     -0.1230
     82  CA        19.2010   -0.3510    1.3570 C.3   231  MET231      0.1702
     83  C         18.7430   -0.9740    2.6650 C.2   231  MET231      0.2592
     84  O         19.5270   -1.6280    3.3570 O.2   231  MET231     -0.2718
     85  CB        19.1320    1.1730    1.4740 C.3   231  MET231      0.0401
     86  CG        19.9180    1.9070    0.4190 C.3   231  MET231      0.0596
     87  SD        21.6080    1.3220    0.3180 S.3   231  MET231     -0.1393
     88  CE        21.3980   -0.0210   -0.9900 C.3   231  MET231      0.0692
     89  N         17.4630   -0.7970    2.9800 N.am  232  LEU232     -0.1980
     90  CA        16.9000   -1.3130    4.2200 C.3   232  LEU232      0.1596
     91  C         17.1680   -2.8040    4.3620 C.2   232  LEU232      0.2287
     92  O         17.5110   -3.2830    5.4500 O.2   232  LEU232     -0.2864
     93  CB        15.4080   -1.0070    4.2540 C.3   232  LEU232      0.0297
     94  CG        15.1560    0.4880    3.9750 C.3   232  LEU232      0.0022
     95  CD1       13.6620    0.7090    3.8110 C.3   232  LEU232      0.0001
     96  CD2       15.7450    1.3860    5.0860 C.3   232  LEU232      0.0001
     97  N         20.5110   -3.0820    5.3580 N.3   235  LEU235     -0.1245
     98  CA        20.6580   -2.5410    6.6780 C.3   235  LEU235      0.1561
     99  C         20.2490   -3.5720    7.7030 C.2   235  LEU235      0.2260
    100  O         20.9580   -3.7740    8.6840 O.2   235  LEU235     -0.2867
    101  CB        19.7990   -1.3010    6.8470 C.3   235  LEU235      0.0270
    102  CG        19.8940   -0.7440    8.2640 C.3   235  LEU235      0.0019
    103  CD1       21.3590   -0.6980    8.7300 C.3   235  LEU235      0.0001
    104  CD2       19.2700    0.6320    8.2840 C.3   235  LEU235      0.0001
@<TRIPOS>BOND
     1    33    32    2
     2    32    31    1
     3    31    30    1
     4    31    34    1
     5    34    35    1
     6    35    37   ar
     7    35    36   ar
     8    37    39   ar
     9    58    57    1
    10    41    42    1
    11    59    57    1
    12    36    38   ar
    13    39    40   ar
    14    57    56    1
    15    42    45    1
    16    42    43    1
    17    38    40   ar
    18    45    46    1
    19    52    53    1
    20    56    53    1
    21    73    74    1
    22    43    44    2
    23    53    54    1
    24    88    87    1
    25    46    47   ar
    26    46    48   ar
    27     6     5    1
    28    74    77    1
    29    74    75    1
    30    77    78    1
    31    47    49   ar
    32     5     2    1
    33    54    60   am
    34    54    55    2
    35    48    50   ar
    36    75    76    2
    37    81    82    1
    38    87    86    1
    39    60    61    1
    40    86    85    1
    41    80    78    1
    42    78    79    1
    43     1     2    1
    44    49    51   ar
    45     2     3    1
    46    50    51   ar
    47    66    67    1
    48    66    62   am
    49    82    85    1
    50    82    83    1
    51    65    64    1
    52    67    68    1
    53    67    70    1
    54    29    27    1
    55    61    64    1
    56    61    62    1
    57     3     7   am
    58     3     4    2
    59     7     8    1
    60    68    69    2
    61     9     8    1
    62     9    10    2
    63    72    70    1
    64    62    63    2
    65    70    71    1
    66     8    11    1
    67    83    89   am
    68    83    84    2
    69    27    28    1
    70    27    26    1
    71    89    90    1
    72    23    22    1
    73    23    26    1
    74    23    24    1
    75    95    94    1
    76    94    93    1
    77    94    96    1
    78    25    24    2
    79    11    12    1
    80    11    13    1
    81    90    93    1
    82    90    91    1
    83    91    92    2
    84    97    98    1
    85    14    15    1
    86    17    16    2
    87    98   101    1
    88    98    99    1
    89    16    15    1
    90    15    18    1
    91   101   102    1
    92    99   100    2
    93    21    19    1
    94    18    19    1
    95   102   104    1
    96   102   103    1
    97    19    20    1
