@<TRIPOS>MOLECULE
tmp/3ukrB00.pdb
 97 95 0 0 0
SMALL
GASTEIGER

@<TRIPOS>ATOM
      1  N          0.3800   23.8640   46.1660 N.3    48  GLY48      -0.1210
      2  CA         1.5500   23.0180   46.0620 C.3    48  GLY48       0.1956
      3  C          1.4950   21.9700   44.9740 C.2    48  GLY48       0.2612
      4  O          2.2780   21.0230   44.9810 O.2    48  GLY48      -0.2717
      5  N          0.5790   22.1350   44.0290 N.am   49  TYR49      -0.1962
      6  CA         0.4570   21.1830   42.9290 C.3    49  TYR49       0.1771
      7  C          0.9230   21.8000   41.6050 C.2    49  TYR49       0.2619
      8  O          0.5180   22.9070   41.2450 O.2    49  TYR49      -0.2715
      9  CB        -0.9860   20.7000   42.8420 C.3    49  TYR49       0.0574
     10  CG        -1.3880   19.8660   44.0310 C.ar   49  TYR49      -0.0198
     11  CD1       -0.7030   18.6900   44.3380 C.ar   49  TYR49      -0.0009
     12  CD2       -2.4610   20.2350   44.8410 C.ar   49  TYR49      -0.0009
     13  CE1       -1.0760   17.8960   45.4170 C.ar   49  TYR49       0.0417
     14  CE2       -2.8450   19.4450   45.9300 C.ar   49  TYR49       0.0417
     15  CZ        -2.1480   18.2780   46.2090 C.ar   49  TYR49       0.1957
     16  OH        -2.5120   17.4860   47.2760 O.3    49  TYR49      -0.2866
     17  N          1.7710   21.0690   40.8850 N.am   50  ALA50      -0.1963
     18  CA         2.3500   21.5470   39.6240 C.3    50  ALA50       0.1728
     19  C          1.4980   21.4030   38.3580 C.2    50  ALA50       0.2616
     20  O          1.8160   20.5880   37.4850 O.2    50  ALA50      -0.2715
     21  CB         3.7050   20.8690   39.4060 C.3    50  ALA50       0.0334
     22  N          0.4470   22.2170   38.2510 N.am   51  PHE51      -0.1974
     23  CA        -0.4550   22.1920   37.0960 C.3    51  PHE51       0.1639
     24  C         -0.1100   23.2720   36.0760 C.2    51  PHE51       0.2290
     25  O          0.1320   24.4220   36.4420 O.2    51  PHE51      -0.2864
     26  CB        -1.9140   22.3950   37.5430 C.3    51  PHE51       0.0560
     27  CG        -2.5070   21.2100   38.2590 C.ar   51  PHE51      -0.0200
     28  CD1       -2.8480   20.0570   37.5590 C.ar   51  PHE51      -0.0042
     29  CD2       -2.7060   21.2410   39.6370 C.ar   51  PHE51      -0.0042
     30  CE1       -3.3770   18.9530   38.2190 C.ar   51  PHE51      -0.0003
     31  CE2       -3.2370   20.1410   40.3080 C.ar   51  PHE51      -0.0003
     32  CZ        -3.5730   18.9940   39.5970 C.ar   51  PHE51      -0.0000
     33  N         -2.6320   20.8650   31.3780 N.3    56  ASP56      -0.1239
     34  CA        -3.5720   20.1030   32.1880 C.3    56  ASP56       0.1674
     35  C         -4.9750   20.6850   32.2840 C.2    56  ASP56       0.2266
     36  O         -5.7570   20.2760   33.1450 O.2    56  ASP56      -0.2867
     37  CB        -2.9930   19.9410   33.5930 C.3    56  ASP56       0.1410
     38  CG        -1.5320   19.5370   33.5750 C.2    56  ASP56       0.3668
     39  OD1       -1.2200   18.4540   33.0290 O.co2  56  ASP56      -0.2456
     40  OD2       -0.6970   20.3070   34.1030 O.co2  56  ASP56      -0.2456
     41  N         -7.7070   18.2490   32.4800 N.3    59  THR59      -0.1218
     42  CA        -7.6830   17.4780   33.7130 C.3    59  THR59       0.1862
     43  C         -8.2860   18.2730   34.8680 C.2    59  THR59       0.2287
     44  O         -9.0130   17.7200   35.6890 O.2    59  THR59      -0.2866
     45  CB        -6.2560   17.0400   34.0820 C.3    59  THR59       0.1770
     46  OG1       -5.7610   16.1390   33.0840 O.3    59  THR59      -0.2211
     47  CG2       -6.2520   16.3220   35.4150 C.3    59  THR59       0.0375
     48  N         -5.3750   11.3260   39.5100 N.3    93  LEU93      -0.1231
     49  CA        -5.0630   11.8950   38.1990 C.3    93  LEU93       0.1678
     50  C         -4.8440   10.7500   37.2000 C.2    93  LEU93       0.2434
     51  O         -4.6600    9.5960   37.5890 O.2    93  LEU93      -0.2733
     52  CB        -3.8070   12.7680   38.2840 C.3    93  LEU93       0.0284
     53  CG        -3.8120   13.8920   39.3220 C.3    93  LEU93       0.0019
     54  CD1       -2.4340   14.5170   39.4040 C.3    93  LEU93       0.0001
     55  CD2       -4.8360   14.9290   38.9540 C.3    93  LEU93       0.0001
     56  N         -4.8710   11.0540   35.8950 N.am   94  PRO94      -0.2718
     57  CA        -4.6690    9.9920   34.9050 C.3    94  PRO94       0.1535
     58  C         -3.4730    9.0540   35.1380 C.2    94  PRO94       0.2598
     59  O         -3.5130    7.8830   34.7500 O.2    94  PRO94      -0.2715
     60  CB        -4.5870   10.7560   33.5760 C.3    94  PRO94       0.0310
     61  CG        -4.3400   12.1910   33.9710 C.3    94  PRO94       0.0237
     62  CD        -5.1110   12.3490   35.2410 C.3    94  PRO94       0.0939
     63  N         -2.4210    9.5390   35.7870 N.am   95  ASP95      -0.1972
     64  CA        -1.2560    8.6860   36.0310 C.3    95  ASP95       0.1709
     65  C         -1.3270    7.9110   37.3480 C.2    95  ASP95       0.2293
     66  O         -0.4050    7.1660   37.6810 O.2    95  ASP95      -0.2864
     67  CB         0.0230    9.5220   35.9870 C.3    95  ASP95       0.1436
     68  CG         0.0000   10.6620   36.9750 C.2    95  ASP95       0.3671
     69  OD1        0.8770   11.5520   36.8890 O.co2  95  ASP95      -0.2456
     70  OD2       -0.8990   10.6600   37.8440 O.co2  95  ASP95      -0.2456
     71  N         -1.5640    9.3260   40.3960 N.3    97  ARG97      -0.1231
     72  CA        -1.1430   10.1490   41.5210 C.3    97  ARG97       0.1694
     73  C         -2.3700   10.8120   42.1490 C.2    97  ARG97       0.2592
     74  O         -3.2420   11.3220   41.4470 O.2    97  ARG97      -0.2718
     75  CB        -0.1330   11.2070   41.0620 C.3    97  ARG97       0.0321
     76  CG         1.2390   10.6390   40.7210 C.3    97  ARG97       0.0489
     77  CD         2.2690   11.7470   40.5230 C.3    97  ARG97       0.2205
     78  NE         3.6400   11.2300   40.4840 N.pl3  97  ARG97      -0.0865
     79  CZ         4.1510   10.5110   39.4890 C.cat  97  ARG97       0.5346
     80  NH1        3.4110   10.2130   38.4270 N.pl3  97  ARG97       0.1354
     81  NH2        5.4050   10.0810   39.5590 N.pl3  97  ARG97       0.1354
     82  N         -2.4220   10.8010   43.4750 N.am   98  ILE98      -0.1966
     83  CA        -3.5450   11.3550   44.2140 C.3    98  ILE98       0.1727
     84  C         -3.3020   12.7430   44.7910 C.2    98  ILE98       0.2616
     85  O         -2.2600   12.9910   45.3860 O.2    98  ILE98      -0.2715
     86  CB        -3.9070   10.4260   45.3750 C.3    98  ILE98       0.0290
     87  CG1       -4.1450    9.0130   44.8400 C.3    98  ILE98       0.0022
     88  CG2       -5.1300   10.9520   46.1080 C.3    98  ILE98       0.0023
     89  CD1       -4.4970    8.0040   45.9060 C.3    98  ILE98       0.0001
     90  N         -4.2630   13.6460   44.6140 N.am   99  ILE99      -0.1977
     91  CA        -4.1620   14.9880   45.1750 C.3    99  ILE99       0.1596
     92  C         -5.3450   15.1930   46.1190 C.2    99  ILE99       0.2287
     93  O         -6.3090   14.4280   46.0850 O.2    99  ILE99      -0.2864
     94  CB        -4.2320   16.0830   44.1030 C.3    99  ILE99       0.0276
     95  CG1       -5.6090   16.0880   43.4410 C.3    99  ILE99       0.0022
     96  CG2       -3.1390   15.8700   43.0840 C.3    99  ILE99       0.0022
     97  CD1       -5.8730   17.3340   42.6240 C.3    99  ILE99       0.0001
@<TRIPOS>BOND
     1    33    34    1
     2    34    35    1
     3    34    37    1
     4    35    36    2
     5    41    42    1
     6    39    38   ar
     7    46    45    1
     8    38    37    1
     9    38    40   ar
    10    60    61    1
    11    60    57    1
    12    42    45    1
    13    42    43    1
    14    61    62    1
    15    45    47    1
    16    59    58    2
    17    43    44    2
    18    57    58    1
    19    57    56    1
    20    58    63   am
    21    62    56    1
    22    63    64    1
    23    56    50   am
    24    67    64    1
    25    67    68    1
    26    64    65    1
    27    24    25    2
    28    24    23    1
    29    69    68   ar
    30    68    70   ar
    31    23    26    1
    32    23    22    1
    33    50    51    2
    34    50    49    1
    35    65    66    2
    36    20    19    2
    37    26    27    1
    38    28    30   ar
    39    28    27   ar
    40    49    52    1
    41    49    48    1
    42    30    32   ar
    43    22    19   am
    44    27    29   ar
    45    52    53    1
    46    19    18    1
    47    80    79    1
    48    55    53    1
    49    53    54    1
    50    21    18    1
    51    79    81    1
    52    79    78    2
    53    32    31   ar
    54    18    17    1
    55    29    31   ar
    56    71    72    1
    57    78    77    1
    58    77    76    1
    59    76    75    1
    60    17     7   am
    61    75    72    1
    62     8     7    2
    63    74    73    2
    64    72    73    1
    65     7     6    1
    66    73    82   am
    67    97    95    1
    68     9     6    1
    69     9    10    1
    70     6     5    1
    71    96    94    1
    72    95    94    1
    73    82    83    1
    74     5     3   am
    75    10    11   ar
    76    10    12   ar
    77    94    91    1
    78    83    84    1
    79    83    86    1
    80    11    13   ar
    81    90    84   am
    82    90    91    1
    83    84    85    2
    84    87    86    1
    85    87    89    1
    86    12    14   ar
    87     3     4    2
    88     3     2    1
    89    91    92    1
    90    86    88    1
    91    13    15   ar
    92    14    15   ar
    93     2     1    1
    94    93    92    2
    95    15    16    1
