@<TRIPOS>MOLECULE
tmp/3ukuA00.pdb
 199 190 0 0 0
SMALL
GASTEIGER

@<TRIPOS>ATOM
      1  N         20.4900   25.5400   51.7700 N.3     9  VAL9       -0.1245
      2  CA        20.5930   24.0860   51.8730 C.3     9  VAL9        0.1561
      3  C         19.9470   23.3320   50.7080 C.2     9  VAL9        0.2260
      4  O         18.7410   23.4130   50.5220 O.2     9  VAL9       -0.2867
      5  CB        19.9170   23.6030   53.1650 C.3     9  VAL9        0.0252
      6  CG1       19.9790   22.0960   53.2490 C.3     9  VAL9        0.0019
      7  CG2       20.5650   24.2580   54.3670 C.3     9  VAL9        0.0019
      8  N         19.4280   19.6780   49.7370 N.3    11  CYS11      -0.1235
      9  CA        19.4470   18.2430   50.0030 C.3    11  CYS11       0.1677
     10  C         19.0970   17.3790   48.8020 C.2    11  CYS11       0.2270
     11  O         17.9390   17.3220   48.3740 O.2    11  CYS11      -0.2867
     12  CB        18.4760   17.9070   51.1020 C.3    11  CYS11       0.0956
     13  SG        19.0320   18.3450   52.7210 S.3    11  CYS11      -0.0801
     14  N         17.7810    8.9070   54.3090 N.3    64  PRO64      -0.2102
     15  CA        16.4620    9.5470   54.2200 C.3    64  PRO64       0.1504
     16  C         16.0310   10.3690   53.0050 C.2    64  PRO64       0.2576
     17  O         14.8560   10.7100   52.8890 O.2    64  PRO64      -0.2718
     18  CB        16.3830   10.3520   55.5180 C.3    64  PRO64       0.0282
     19  CG        17.7990   10.6400   55.8260 C.3    64  PRO64       0.0208
     20  CD        18.4650    9.3310   55.5420 C.3    64  PRO64       0.0893
     21  N         16.9410   10.6840   52.0980 N.am   65  ILE65      -0.1966
     22  CA        16.5550   11.4660   50.9290 C.3    65  ILE65       0.1727
     23  C         16.5530   10.5800   49.6840 C.2    65  ILE65       0.2616
     24  O         17.5300   10.5720   48.9230 O.2    65  ILE65      -0.2715
     25  CB        17.5320   12.6340   50.7110 C.3    65  ILE65       0.0290
     26  CG1       17.6320   13.4640   51.9850 C.3    65  ILE65       0.0022
     27  CG2       17.0660   13.4990   49.5590 C.3    65  ILE65       0.0023
     28  CD1       18.6980   14.5130   51.9180 C.3    65  ILE65       0.0001
     29  N         15.4610    9.8490   49.4580 N.am   66  ARG66      -0.1977
     30  CA        15.4080    8.9470   48.3080 C.3    66  ARG66       0.1597
     31  C         14.2530    9.0220   47.3230 C.2    66  ARG66       0.2287
     32  O         13.0860    9.0460   47.7090 O.2    66  ARG66      -0.2864
     33  CB        15.5310    7.4980   48.7910 C.3    66  ARG66       0.0334
     34  CG        16.9640    7.0200   48.9230 C.3    66  ARG66       0.0492
     35  CD        17.5770    6.7880   47.5480 C.3    66  ARG66       0.2205
     36  NE        19.0290    6.9570   47.5520 N.pl3  66  ARG66      -0.0865
     37  CZ        19.8570    6.3590   48.4040 C.cat  66  ARG66       0.5346
     38  NH1       19.3860    5.5400   49.3400 N.pl3  66  ARG66       0.1354
     39  NH2       21.1620    6.5830   48.3170 N.pl3  66  ARG66       0.1354
     40  N         11.1320    5.8170   48.0950 N.3    69  ILE69      -0.1231
     41  CA        10.2200    5.5370   49.1990 C.3    69  ILE69       0.1692
     42  C         10.1680    6.6060   50.2850 C.2    69  ILE69       0.2592
     43  O         11.0970    7.3850   50.4550 O.2    69  ILE69      -0.2718
     44  CB        10.5210    4.1270   49.8220 C.3    69  ILE69       0.0266
     45  CG1       12.0050    3.9910   50.1760 C.3    69  ILE69       0.0019
     46  CG2       10.1110    3.0270   48.8400 C.3    69  ILE69       0.0020
     47  CD1       12.4020    4.6960   51.4560 C.3    69  ILE69       0.0001
     48  N          9.0360    6.6210   50.9960 N.am   70  VAL70      -0.1966
     49  CA         8.7210    7.5570   52.0780 C.3    70  VAL70       0.1727
     50  C          9.8740    8.2540   52.7780 C.2    70  VAL70       0.2616
     51  O         10.9450    7.6790   52.9710 O.2    70  VAL70      -0.2715
     52  CB         7.8390    6.8840   53.1820 C.3    70  VAL70       0.0290
     53  CG1        8.6420    5.8070   53.8970 C.3    70  VAL70       0.0023
     54  CG2        7.3500    7.9270   54.1750 C.3    70  VAL70       0.0023
     55  N          9.6100    9.4970   53.1810 N.am   71  GLU71      -0.1963
     56  CA        10.5800   10.3250   53.8660 C.3    71  GLU71       0.1733
     57  C         10.4820   10.2210   55.3890 C.2    71  GLU71       0.2616
     58  O          9.3940   10.0950   55.9500 O.2    71  GLU71      -0.2715
     59  CB        10.4310   11.7830   53.4220 C.3    71  GLU71       0.0429
     60  CG         9.0100   12.3680   53.4090 C.3    71  GLU71       0.1163
     61  CD         8.2790   12.1910   52.0720 C.2    71  GLU71       0.3649
     62  OE1        8.8790   12.4900   51.0070 O.co2  71  GLU71      -0.2457
     63  OE2        7.0970   11.7680   52.0960 O.co2  71  GLU71      -0.2457
     64  N         11.6330   10.2850   56.0550 N.am   72  ASP72      -0.1957
     65  CA        11.7170   10.1800   57.5070 C.3    72  ASP72       0.1840
     66  C         11.9110   11.5490   58.1780 C.2    72  ASP72       0.2622
     67  O         13.0190   12.0860   58.1930 O.2    72  ASP72      -0.2715
     68  CB        12.8660    9.2540   57.8770 C.3    72  ASP72       0.1450
     69  CG        12.7160    8.6500   59.2530 C.2    72  ASP72       0.3671
     70  OD1       12.3610    9.3950   60.2040 O.co2  72  ASP72      -0.2456
     71  OD2       12.9660    7.4380   59.3930 O.co2  72  ASP72      -0.2456
     72  N         10.8500   12.1020   58.7620 N.am   73  TRP73      -0.1974
     73  CA        10.9570   13.4180   59.3740 C.3    73  TRP73       0.1640
     74  C         11.7740   13.4790   60.6540 C.2    73  TRP73       0.2290
     75  O         12.4470   14.4720   60.8960 O.2    73  TRP73      -0.2864
     76  CB         9.5500   14.0400   59.5470 C.3    73  TRP73       0.0576
     77  CG         8.9150   14.2500   58.1990 C.ar   73  TRP73       0.0006
     78  CD1        8.2910   13.3050   57.4380 C.ar   73  TRP73       0.0946
     79  CD2        9.0670   15.3980   57.3550 C.ar   73  TRP73       0.0152
     80  NE1        8.0680   13.7810   56.1700 N.ar   73  TRP73      -0.2442
     81  CE2        8.5340   15.0650   56.0930 C.ar   73  TRP73       0.0810
     82  CE3        9.6100   16.6720   57.5410 C.ar   73  TRP73       0.0012
     83  CZ2        8.5330   15.9620   55.0230 C.ar   73  TRP73       0.0191
     84  CZ3        9.6060   17.5550   56.4790 C.ar   73  TRP73       0.0001
     85  CH2        9.0730   17.1960   55.2350 C.ar   73  TRP73       0.0015
     86  N         15.2640   13.6300   59.1010 N.3    76  MET76      -0.1245
     87  CA        15.4350   14.8930   58.4120 C.3    76  MET76       0.1570
     88  C         15.5920   16.0460   59.3980 C.2    76  MET76       0.2261
     89  O         16.3960   16.9410   59.1950 O.2    76  MET76      -0.2867
     90  CB        14.2280   15.1690   57.5530 C.3    76  MET76       0.0387
     91  CG        14.5330   16.0710   56.4160 C.3    76  MET76       0.0595
     92  SD        15.5620   15.1480   55.2890 S.3    76  MET76      -0.1393
     93  CE        16.4520   16.4840   54.4370 C.3    76  MET76       0.0692
     94  N         19.3390   18.3130   60.1900 N.3    80  MET80      -0.1245
     95  CA        19.3170   19.7600   60.0440 C.3    80  MET80       0.1570
     96  C         19.9110   20.4250   61.2600 C.2    80  MET80       0.2261
     97  O         20.3890   21.5520   61.1710 O.2    80  MET80      -0.2867
     98  CB        17.8890   20.2650   59.8500 C.3    80  MET80       0.0387
     99  CG        17.4630   20.3370   58.4060 C.3    80  MET80       0.0595
    100  SD        18.3790   21.5730   57.4610 S.3    80  MET80      -0.1393
    101  CE        18.1950   23.0160   58.5600 C.3    80  MET80       0.0692
    102  N         15.6620   26.4210   51.2230 N.3    99  LEU99      -0.1231
    103  CA        15.7740   24.9760   51.1210 C.3    99  LEU99       0.1693
    104  C         15.2710   24.6080   49.7360 C.2    99  LEU99       0.2593
    105  O         14.6080   25.4010   49.0770 O.2    99  LEU99      -0.2718
    106  CB        14.9140   24.3210   52.1790 C.3    99  LEU99       0.0284
    107  CG        15.1490   24.8640   53.5830 C.3    99  LEU99       0.0019
    108  CD1       14.2080   24.2000   54.5740 C.3    99  LEU99       0.0001
    109  CD2       16.5810   24.5950   53.9690 C.3    99  LEU99       0.0001
    110  N         15.5830   23.4180   49.2640 N.am  100  THR100     -0.1939
    111  CA        15.0940   23.0480   47.9550 C.3   100  THR100      0.2028
    112  C         14.1870   21.8540   48.1500 C.2   100  THR100      0.2642
    113  O         14.1470   21.2690   49.2340 O.2   100  THR100     -0.2714
    114  CB        16.2350   22.6740   47.0060 C.3   100  THR100      0.1808
    115  OG1       16.8980   21.5000   47.4940 O.3   100  THR100     -0.2208
    116  CG2       17.2410   23.8090   46.9340 C.3   100  THR100      0.0379
    117  N         13.4420   21.5030   47.1100 N.am  101  GLU101     -0.1963
    118  CA        12.5350   20.3740   47.1860 C.3   101  GLU101      0.1718
    119  C         12.5190   19.7940   45.7940 C.2   101  GLU101      0.2458
    120  O         12.6970   20.5190   44.8080 O.2   101  GLU101     -0.2730
    121  CB        11.1340   20.8370   47.5450 C.3   101  GLU101      0.0428
    122  CG        10.4260   21.4850   46.3640 C.3   101  GLU101      0.1163
    123  CD         9.0190   21.9290   46.6750 C.2   101  GLU101      0.3649
    124  OE1        8.3250   22.3170   45.7110 O.co2 101  GLU101     -0.2457
    125  OE2        8.6130   21.8950   47.8640 O.co2 101  GLU101     -0.2457
    126  N         12.3050   18.4820   45.6850 N.am  102  PRO102     -0.2727
    127  CA        12.2840   17.8870   44.3500 C.3   102  PRO102      0.1402
    128  C         10.9990   18.2380   43.6270 C.2   102  PRO102      0.2269
    129  O         10.0750   18.8070   44.2170 O.2   102  PRO102     -0.2865
    130  CB        12.4270   16.3990   44.6330 C.3   102  PRO102      0.0296
    131  CG        11.7780   16.2450   45.9600 C.3   102  PRO102      0.0237
    132  CD        12.1580   17.4650   46.7400 C.3   102  PRO102      0.0939
    133  N          7.0060   17.6680   44.8510 N.3   105  ASN105     -0.1240
    134  CA         6.9880   17.5410   46.2970 C.3   105  ASN105      0.1653
    135  C          5.6220   18.0580   46.7540 C.2   105  ASN105      0.2266
    136  O          5.2790   19.2110   46.5200 O.2   105  ASN105     -0.2867
    137  CB         8.1150   18.3560   46.9340 C.3   105  ASN105      0.1155
    138  CG         8.1620   18.1850   48.4240 C.2   105  ASN105      0.2627
    139  OD1        8.0020   17.0770   48.9250 O.2   105  ASN105     -0.2716
    140  ND2        8.3860   19.2760   49.1500 N.am  105  ASN105     -0.0877
    141  N          4.3100   18.2960   52.5810 N.3   109  ASN109     -0.1225
    142  CA         5.6970   18.2430   52.9950 C.3   109  ASN109      0.1785
    143  C          6.1590   19.6390   53.3990 C.2   109  ASN109      0.2597
    144  O          6.6820   19.8300   54.5130 O.2   109  ASN109     -0.2718
    145  CB         6.5450   17.6720   51.8620 C.3   109  ASN109      0.1169
    146  CG         6.4770   16.1520   51.7980 C.2   109  ASN109      0.2627
    147  OD1        6.7310   15.5500   50.7550 O.2   109  ASN109     -0.2716
    148  ND2        6.1510   15.5230   52.9220 N.am  109  ASN109     -0.0877
    149  N          5.9350   20.6130   52.5170 N.am  110  ARG110     -0.1979
    150  CA         6.3320   21.9740   52.8130 C.3   110  ARG110      0.1597
    151  C          5.8600   22.3920   54.1940 C.2   110  ARG110      0.2287
    152  O          6.6390   22.9380   54.9730 O.2   110  ARG110     -0.2864
    153  CB         5.7960   22.9290   51.7680 C.3   110  ARG110      0.0334
    154  CG         6.1120   22.4990   50.3660 C.3   110  ARG110      0.0492
    155  CD         5.7860   23.5920   49.3740 C.3   110  ARG110      0.2205
    156  NE         5.9960   23.1340   48.0060 N.pl3 110  ARG110     -0.0865
    157  CZ         5.0180   22.8170   47.1610 C.cat 110  ARG110      0.5346
    158  NH1        3.7490   22.9140   47.5430 N.pl3 110  ARG110      0.1354
    159  NH2        5.3090   22.3970   45.9360 N.pl3 110  ARG110      0.1354
    160  N          8.1960   20.7650   56.6690 N.3   113  THR113     -0.1218
    161  CA         9.4660   21.4390   56.5780 C.3   113  THR113      0.1862
    162  C          9.3150   22.6620   57.4660 C.2   113  THR113      0.2287
    163  O          9.9890   22.8120   58.4850 O.2   113  THR113     -0.2866
    164  CB         9.6630   21.9160   55.1610 C.3   113  THR113      0.1770
    165  OG1        9.6450   20.7870   54.2760 O.3   113  THR113     -0.2211
    166  CG2       10.9380   22.6910   55.0380 C.3   113  THR113      0.0375
    167  N          9.0350   22.4680   61.0490 N.3   116  ILE116     -0.1231
    168  CA        10.3470   22.2590   61.6470 C.3   116  ILE116      0.1692
    169  C         11.1180   23.5760   61.7210 C.2   116  ILE116      0.2591
    170  O         11.4520   24.0550   62.8120 O.2   116  ILE116     -0.2718
    171  CB        11.1800   21.2330   60.8200 C.3   116  ILE116      0.0266
    172  CG1       10.6360   19.8150   61.0200 C.3   116  ILE116      0.0019
    173  CG2       12.6450   21.2830   61.2480 C.3   116  ILE116      0.0020
    174  CD1       11.0640   18.8340   59.9400 C.3   116  ILE116      0.0001
    175  N         11.3690   24.1660   60.5580 N.am  117  MET117     -0.1979
    176  CA        12.1320   25.3990   60.4900 C.3   117  MET117      0.1605
    177  C         11.6640   26.5270   61.3910 C.2   117  MET117      0.2287
    178  O         12.4820   27.2080   62.0200 O.2   117  MET117     -0.2864
    179  CB        12.2040   25.8820   59.0500 C.3   117  MET117      0.0413
    180  CG        12.9030   24.8910   58.1320 C.3   117  MET117      0.0598
    181  SD        14.5760   24.4550   58.7120 S.3   117  MET117     -0.1393
    182  CE        15.5710   25.0660   57.3230 C.3   117  MET117      0.0692
    183  N         10.9770   28.0340   49.9560 N.3   128  ILE128     -0.1245
    184  CA        11.2250   26.7230   49.4300 C.3   128  ILE128      0.1561
    185  C         11.3270   26.8220   47.9370 C.2   128  ILE128      0.2260
    186  O         10.3530   27.1060   47.2510 O.2   128  ILE128     -0.2867
    187  CB        10.1100   25.7650   49.8520 C.3   128  ILE128      0.0252
    188  CG1       10.0630   25.7080   51.3840 C.3   128  ILE128      0.0019
    189  CG2       10.3450   24.3940   49.2460 C.3   128  ILE128      0.0019
    190  CD1        9.0570   24.7350   51.9270 C.3   128  ILE128      0.0001
    191  N         14.2920   22.8140   42.9310 N.3   131  GLN131     -0.1245
    192  CA        15.5170   22.4830   42.2400 C.3   131  GLN131      0.1566
    193  C         15.4870   22.8110   40.7510 C.2   131  GLN131      0.2260
    194  O         16.0450   23.8100   40.3210 O.2   131  GLN131     -0.2867
    195  CB        15.8220   21.0090   42.4860 C.3   131  GLN131      0.0367
    196  CG        16.2380   20.7520   43.9410 C.3   131  GLN131      0.0905
    197  CD        16.0390   19.3120   44.3950 C.2   131  GLN131      0.2608
    198  OE1       16.0700   18.3770   43.5840 O.2   131  GLN131     -0.2717
    199  NE2       15.8470   19.1230   45.7070 N.am  131  GLN131     -0.0878
@<TRIPOS>BOND
     1   194   193    2
     2   193   192    1
     3   192   195    1
     4   192   191    1
     5   195   196    1
     6   198   197    2
     7   128   129    2
     8   128   127    1
     9   196   197    1
    10   127   130    1
    11   127   126    1
    12   197   199   am
    13   130   131    1
    14   120   119    2
    15   133   134    1
    16   126   119   am
    17   126   132    1
    18   124   123   ar
    19   119   118    1
    20   159   157    1
    21   131   132    1
    22   134   135    1
    23   134   137    1
    24   122   123    1
    25   122   121    1
    26   136   135    2
    27   123   125   ar
    28   137   138    1
    29   116   114    1
    30   114   115    1
    31   114   111    1
    32   117   118    1
    33   117   112   am
    34   157   158    1
    35   157   156    2
    36   118   121    1
    37   186   185    2
    38    31    32    2
    39    31    30    1
    40    35    36    1
    41    35    34    1
    42    36    37    2
    43   185   184    1
    44   111   112    1
    45   111   110    1
    46   156   155    1
    47    40    41    1
    48   112   113    2
    49    30    33    1
    50    30    29    1
    51    39    37    1
    52    11    10    2
    53    37    38    1
    54   138   139    2
    55   138   140   am
    56    33    34    1
    57    10     9    1
    58    46    44    1
    59    24    23    2
    60   105   104    2
    61    41    44    1
    62    41    42    1
    63   189   187    1
    64   110   104   am
    65   155   154    1
    66   184   187    1
    67   184   183    1
    68    29    23   am
    69    27    25    1
    70    23    22    1
    71   104   103    1
    72     8     9    1
    73    44    45    1
    74   187   188    1
    75     9    12    1
    76    45    47    1
    77    42    43    2
    78    42    48   am
    79   154   153    1
    80     4     3    2
    81     3     2    1
    82    25    22    1
    83    25    26    1
    84   147   146    2
    85    22    21    1
    86    48    49    1
    87    62    61   ar
    88    12    13    1
    89   103   102    1
    90   103   106    1
    91   188   190    1
    92   153   150    1
    93     1     2    1
    94   146   145    1
    95   146   148   am
    96   145   142    1
    97     2     5    1
    98    28    26    1
    99    61    63   ar
   100    61    60    1
   101    49    50    1
   102    49    52    1
   103    21    16   am
   104   106   107    1
   105   149   150    1
   106   149   143   am
   107   141   142    1
   108    50    51    2
   109    50    55   am
   110   150   151    1
   111    17    16    2
   112   142   143    1
   113    16    15    1
   114     5     6    1
   115     5     7    1
   116    55    56    1
   117    52    53    1
   118    52    54    1
   119   143   144    2
   120    60    59    1
   121    59    56    1
   122   107   109    1
   123   107   108    1
   124    56    57    1
   125   151   152    2
   126    15    14    1
   127    15    18    1
   128   165   164    1
   129    14    20    1
   130    93    92    1
   131    83    85   ar
   132    83    81   ar
   133   166   164    1
   134   164   161    1
   135    85    84   ar
   136    92    91    1
   137    57    58    2
   138    57    64   am
   139    18    19    1
   140    20    19    1
   141    64    65    1
   142    81    80   ar
   143    81    79   ar
   144    80    78   ar
   145    91    90    1
   146    84    82   ar
   147   161   160    1
   148   161   162    1
   149   182   181    1
   150    79    82   ar
   151    79    77   ar
   152    78    77   ar
   153   100    99    1
   154   100   101    1
   155   162   163    2
   156    65    68    1
   157    65    66    1
   158    90    87    1
   159    68    69    1
   160   180   181    1
   161   180   179    1
   162    66    67    2
   163    66    72   am
   164    77    76    1
   165    99    98    1
   166    87    86    1
   167    87    88    1
   168    72    73    1
   169   179   176    1
   170    89    88    2
   171    69    71   ar
   172    69    70   ar
   173    73    76    1
   174    73    74    1
   175    98    95    1
   176   174   172    1
   177    95    94    1
   178    95    96    1
   179   176   175    1
   180   176   177    1
   181   175   169   am
   182    74    75    2
   183   171   172    1
   184   171   173    1
   185   171   168    1
   186   167   168    1
   187    97    96    2
   188   177   178    2
   189   168   169    1
   190   169   170    2
