@<TRIPOS>MOLECULE
tmp/3ulaC00.pdb
 69 69 0 0 0
SMALL
GASTEIGER

@<TRIPOS>ATOM
      1  N         56.2230   26.7410  -26.3180 N.3   238  CYS238     -0.1221
      2  CA        55.6190   26.4880  -27.6220 C.3   238  CYS238      0.1808
      3  C         56.0260   27.4540  -28.7380 C.2   238  CYS238      0.2602
      4  O         55.1750   28.0250  -29.4170 O.2   238  CYS238     -0.2717
      5  CB        54.0920   26.4620  -27.4880 C.3   238  CYS238      0.0970
      6  SG        53.4910   25.0200  -26.5510 S.3   238  CYS238     -0.0800
      7  N         57.3320   27.6260  -28.9270 N.am  239  SER239     -0.1938
      8  CA        57.8470   28.5030  -29.9750 C.3   239  SER239      0.2055
      9  C         58.4280   27.6840  -31.1450 C.2   239  SER239      0.2643
     10  O         59.1620   26.7130  -30.9400 O.2   239  SER239     -0.2714
     11  CB        58.9260   29.4400  -29.4050 C.3   239  SER239      0.2130
     12  OG        60.0950   28.7260  -29.0410 O.3   239  SER239     -0.2179
     13  N         58.0870   28.0770  -32.3700 N.am  240  CYS240     -0.1967
     14  CA        58.5840   27.3910  -33.5590 C.3   240  CYS240      0.1712
     15  C         59.9720   27.9040  -33.9220 C.2   240  CYS240      0.2296
     16  O         60.2670   29.0920  -33.7880 O.2   240  CYS240     -0.2864
     17  CB        57.6290   27.5950  -34.7480 C.3   240  CYS240      0.0983
     18  SG        55.9980   26.7930  -34.5910 S.3   240  CYS240     -0.0798
     19  N         47.4110   26.2050  -24.4040 N.3   268  LYS268     -0.1231
     20  CA        47.0270   25.4470  -25.5860 C.3   268  LYS268      0.1678
     21  C         47.8110   24.1530  -25.6960 C.2   268  LYS268      0.2434
     22  O         49.0400   24.1400  -25.6160 O.2   268  LYS268     -0.2733
     23  CB        47.2570   26.2980  -26.8370 C.3   268  LYS268      0.0284
     24  CG        46.3430   27.5380  -26.9410 C.3   268  LYS268      0.0035
     25  CD        46.6070   28.3380  -28.2280 C.3   268  LYS268      0.0206
     26  CE        45.5170   29.3810  -28.5010 C.3   268  LYS268      0.1093
     27  NZ        45.6910   30.0030  -29.8440 N.3   268  LYS268     -0.1314
     28  N         47.0980   23.0400  -25.8850 N.am  269  PRO269     -0.2729
     29  CA        47.7410   21.7360  -26.0050 C.3   269  PRO269      0.1401
     30  C         48.9470   21.8030  -26.9320 C.2   269  PRO269      0.2269
     31  O         48.9290   22.4950  -27.9400 O.2   269  PRO269     -0.2865
     32  CB        46.6280   20.8620  -26.5730 C.3   269  PRO269      0.0296
     33  CG        45.3970   21.4520  -25.9680 C.3   269  PRO269      0.0237
     34  CD        45.6500   22.9370  -26.1400 C.3   269  PRO269      0.0939
     35  N         48.5820   20.6940  -30.5850 N.3   272  SER272     -0.1202
     36  CA        47.8030   21.5130  -31.5030 C.3   272  SER272      0.2020
     37  C         48.6850   22.4830  -32.2720 C.2   272  SER272      0.2619
     38  O         48.1720   23.2770  -33.0550 O.2   272  SER272     -0.2717
     39  CB        46.7260   22.3200  -30.7640 C.3   272  SER272      0.2103
     40  OG        47.1740   23.6460  -30.5350 O.3   272  SER272     -0.2182
     41  N         49.9990   22.4140  -32.0770 N.am  273  ILE273     -0.1965
     42  CA        50.8850   23.3410  -32.7640 C.3   273  ILE273      0.1727
     43  C         51.5690   22.7760  -33.9930 C.2   273  ILE273      0.2616
     44  O         52.4290   21.9030  -33.9110 O.2   273  ILE273     -0.2715
     45  CB        51.9640   23.9040  -31.8250 C.3   273  ILE273      0.0290
     46  CG1       51.3450   24.2860  -30.4780 C.3   273  ILE273      0.0022
     47  CG2       52.5840   25.1430  -32.4520 C.3   273  ILE273      0.0023
     48  CD1       50.1720   25.2560  -30.5700 C.3   273  ILE273      0.0001
     49  N         51.1600   23.3060  -35.1410 N.am  274  ILE274     -0.1963
     50  CA        51.6970   22.9170  -36.4360 C.3   274  ILE274      0.1727
     51  C         52.7040   23.9910  -36.8490 C.2   274  ILE274      0.2616
     52  O         52.3190   25.0950  -37.2460 O.2   274  ILE274     -0.2715
     53  CB        50.5670   22.8360  -37.4750 C.3   274  ILE274      0.0290
     54  CG1       49.4050   22.0170  -36.9140 C.3   274  ILE274      0.0022
     55  CG2       51.0670   22.1740  -38.7230 C.3   274  ILE274      0.0023
     56  CD1       48.1590   22.0380  -37.7670 C.3   274  ILE274      0.0001
     57  N         53.9890   23.6630  -36.7550 N.am  275  CYS275     -0.1954
     58  CA        55.0640   24.5950  -37.0860 C.3   275  CYS275      0.1828
     59  C         55.4440   24.6530  -38.5650 C.2   275  CYS275      0.2467
     60  O         55.2890   23.6760  -39.2990 O.2   275  CYS275     -0.2730
     61  CB        56.3330   24.2560  -36.3040 C.3   275  CYS275      0.0996
     62  SG        56.4150   24.7890  -34.5580 S.3   275  CYS275     -0.0797
     63  N         55.9560   25.8210  -39.0120 N.am  276  PRO276     -0.2726
     64  CA        56.3940   26.0580  -40.3960 C.3   276  PRO276      0.1402
     65  C         57.8430   25.6130  -40.7030 C.2   276  PRO276      0.2269
     66  O         58.2600   25.7300  -41.8680 O.2   276  PRO276     -0.2865
     67  CB        56.2050   27.5680  -40.5440 C.3   276  PRO276      0.0296
     68  CG        56.4870   28.0760  -39.1730 C.3   276  PRO276      0.0237
     69  CD        55.7410   27.0990  -38.3090 C.3   276  PRO276      0.0939
@<TRIPOS>BOND
     1    66    65    2
     2    65    64    1
     3    67    64    1
     4    67    68    1
     5    64    63    1
     6    60    59    2
     7    68    69    1
     8    63    59   am
     9    63    69    1
    10    55    53    1
    11    59    58    1
    12    56    54    1
    13    53    54    1
    14    53    50    1
    15    52    51    2
    16    58    57    1
    17    58    61    1
    18    51    57   am
    19    51    50    1
    20    50    49    1
    21    61    62    1
    22    49    43   am
    23    17    18    1
    24    17    14    1
    25    18    62    1
    26    43    44    2
    27    43    42    1
    28    15    16    2
    29    15    14    1
    30    14    13    1
    31    38    37    2
    32    42    41    1
    33    42    45    1
    34    47    45    1
    35    13     9   am
    36    37    41   am
    37    37    36    1
    38    45    46    1
    39    36    39    1
    40    36    35    1
    41     9    10    2
    42     9     8    1
    43    39    40    1
    44    48    46    1
    45     8    11    1
    46     8     7    1
    47    27    26    1
    48     4     3    2
    49    11    12    1
    50     7     3   am
    51     3     2    1
    52    26    25    1
    53    25    24    1
    54    31    30    2
    55     2     5    1
    56     2     1    1
    57     5     6    1
    58    24    23    1
    59    30    29    1
    60    23    20    1
    61    32    29    1
    62    32    33    1
    63    34    33    1
    64    34    28    1
    65    29    28    1
    66    28    21   am
    67    21    22    2
    68    21    20    1
    69    20    19    1
