@<TRIPOS>MOLECULE
tmp/3uliA00.pdb
 196 185 0 0 0
SMALL
GASTEIGER

@<TRIPOS>ATOM
      1  N         -0.4780   23.6430    4.2500 N.3    10  ILE10      -0.1231
      2  CA         0.6360   24.0760    5.1200 C.3    10  ILE10       0.1696
      3  C          0.3200   23.9710    6.6150 C.2    10  ILE10       0.2632
      4  O          1.1700   24.2800    7.4530 O.2    10  ILE10      -0.2714
      5  CB         1.0950   25.5420    4.7910 C.3    10  ILE10       0.0266
      6  CG1       -0.0610   26.5410    4.9260 C.3    10  ILE10       0.0019
      7  CG2        1.6840   25.6070    3.3990 C.3    10  ILE10       0.0020
      8  CD1        0.3490   28.0080    4.7420 C.3    10  ILE10       0.0001
      9  N         -0.8980   23.5350    6.9490 N.am   11  GLY11      -0.1718
     10  CA        -1.3430   23.5030    8.3470 C.2    11  GLY11       0.1480
     11  C         -2.7480   22.9640    8.5730 C.2    11  GLY11       0.2820
     12  O         -3.5390   22.8090    7.6400 O.2    11  GLY11      -0.2669
     13  N         -3.0510   22.6960    9.8390 N.am   12  GLU12      -0.1929
     14  CA        -4.3530   22.1570   10.2500 C.3    12  GLU12       0.1736
     15  C         -4.6060   22.4920   11.7250 C.2    12  GLU12       0.2617
     16  O         -3.6670   22.5870   12.5310 O.2    12  GLU12      -0.2715
     17  CB        -4.3750   20.6360   10.0210 C.3    12  GLU12       0.0429
     18  CG        -5.6860   19.8990   10.3840 C.3    12  GLU12       0.1163
     19  CD        -5.4960   18.3760   10.4640 C.2    12  GLU12       0.3649
     20  OE1       -5.7270   17.7820   11.5570 O.co2  12  GLU12      -0.2457
     21  OE2       -5.0730   17.7850    9.4330 O.co2  12  GLU12      -0.2457
     22  N         -5.8720   22.6660   12.0770 N.am   13  GLY13      -0.1955
     23  CA        -6.2800   22.7930   13.4880 C.3    13  GLY13       0.1869
     24  C         -7.6190   22.1290   13.7190 C.2    13  GLY13       0.2309
     25  O         -8.0560   21.3100   12.9000 O.2    13  GLY13      -0.2863
     26  N        -10.2770   23.9590   11.1600 N.3    16  GLY16      -0.1225
     27  CA       -10.0850   23.8530    9.7300 C.3    16  GLY16       0.1811
     28  C         -8.6580   23.6430    9.3000 C.2    16  GLY16       0.2280
     29  O         -7.7550   23.4570   10.1340 O.2    16  GLY16      -0.2866
     30  N         -5.4010   24.8610    6.5220 N.3    18  VAL18      -0.1245
     31  CA        -4.7760   26.0580    5.9530 C.3    18  VAL18       0.1561
     32  C         -3.9490   25.7170    4.7150 C.2    18  VAL18       0.2260
     33  O         -3.1030   24.8040    4.7520 O.2    18  VAL18      -0.2867
     34  CB        -3.8450   26.8020    6.9760 C.3    18  VAL18       0.0252
     35  CG1       -3.2490   28.0460    6.3280 C.3    18  VAL18       0.0019
     36  CG2       -4.5970   27.1920    8.2300 C.3    18  VAL18       0.0019
     37  N         -1.9900   32.6890    2.9310 N.3    31  ALA31      -0.1245
     38  CA        -2.3410   31.5000    3.7000 C.3    31  ALA31       0.1562
     39  C         -3.8590   31.5720    3.8910 C.2    31  ALA31       0.2260
     40  O         -4.3780   32.5100    4.4880 O.2    31  ALA31      -0.2867
     41  CB        -1.5860   31.4580    5.0630 C.3    31  ALA31       0.0290
     42  N         -7.1620   29.9580    5.4240 N.3    33  LYS33      -0.1245
     43  CA        -7.7670   29.0540    6.4080 C.3    33  LYS33       0.1561
     44  C         -9.2150   28.7020    6.0050 C.2    33  LYS33       0.2260
     45  O        -10.0740   29.5750    5.9560 O.2    33  LYS33      -0.2867
     46  CB        -7.7260   29.6670    7.8230 C.3    33  LYS33       0.0271
     47  CG        -7.9010   28.6220    8.9600 C.3    33  LYS33       0.0035
     48  CD        -8.0350   29.2050   10.3630 C.3    33  LYS33       0.0206
     49  CE        -8.3910   28.0650   11.3630 C.3    33  LYS33       0.1093
     50  NZ        -8.4240   28.4760   12.8180 N.3    33  LYS33      -0.1314
     51  N          0.3400   37.6690   12.6730 N.3    59  VAL59      -0.1245
     52  CA         0.0930   37.3470   11.2540 C.3    59  VAL59       0.1561
     53  C         -1.1380   38.1180   10.7780 C.2    59  VAL59       0.2260
     54  O         -2.2020   38.0440   11.3950 O.2    59  VAL59      -0.2867
     55  CB        -0.1600   35.8160   10.9360 C.3    59  VAL59       0.0252
     56  CG1       -0.4760   35.6630    9.4730 C.3    59  VAL59       0.0019
     57  CG2        1.0580   34.9370   11.2670 C.3    59  VAL59       0.0019
     58  N         -4.8950   35.0900    5.3780 N.3    75  PHE75      -0.1227
     59  CA        -3.7680   35.6620    6.0990 C.3    75  PHE75       0.1736
     60  C         -2.5620   35.8690    5.1840 C.2    75  PHE75       0.2595
     61  O         -2.4090   35.2100    4.1430 O.2    75  PHE75      -0.2718
     62  CB        -3.3410   34.7230    7.2460 C.3    75  PHE75       0.0547
     63  CG        -4.3920   34.5260    8.2940 C.ar   75  PHE75      -0.0202
     64  CD1       -5.1440   33.3560    8.3450 C.ar   75  PHE75      -0.0042
     65  CD2       -4.6070   35.4930    9.2490 C.ar   75  PHE75      -0.0042
     66  CE1       -6.1260   33.1740    9.3420 C.ar   75  PHE75      -0.0003
     67  CE2       -5.5810   35.3380   10.2260 C.ar   75  PHE75      -0.0003
     68  CZ        -6.3300   34.1660   10.2880 C.ar   75  PHE75      -0.0000
     69  N         -1.7300   36.8060    5.6060 N.am   76  GLU76      -0.1965
     70  CA        -0.3200   36.8940    5.2590 C.3    76  GLU76       0.1733
     71  C          0.3120   35.5000    5.2650 C.2    76  GLU76       0.2616
     72  O          0.1400   34.7820    6.2160 O.2    76  GLU76      -0.2715
     73  CB         0.3550   37.7190    6.3620 C.3    76  GLU76       0.0429
     74  CG         1.6460   38.3490    6.0150 C.3    76  GLU76       0.1163
     75  CD         2.3490   38.9150    7.2490 C.2    76  GLU76       0.3649
     76  OE1        3.5320   39.2460    7.1400 O.co2  76  GLU76      -0.2457
     77  OE2        1.7600   38.9870    8.3290 O.co2  76  GLU76      -0.2457
     78  N          1.0320   35.1310    4.2140 N.am   77  PHE77      -0.1960
     79  CA         1.8490   33.9030    4.2220 C.3    77  PHE77       0.1771
     80  C          3.2930   34.1760    4.6820 C.2    77  PHE77       0.2619
     81  O          3.9110   35.1440    4.2490 O.2    77  PHE77      -0.2715
     82  CB         1.8460   33.2760    2.8210 C.3    77  PHE77       0.0574
     83  CG         2.7520   32.0860    2.6790 C.ar   77  PHE77      -0.0200
     84  CD1        2.3520   30.8360    3.1210 C.ar   77  PHE77      -0.0042
     85  CD2        3.9960   32.2170    2.1020 C.ar   77  PHE77      -0.0042
     86  CE1        3.1630   29.7310    2.9730 C.ar   77  PHE77      -0.0003
     87  CE2        4.8290   31.1150    1.9640 C.ar   77  PHE77      -0.0003
     88  CZ         4.4120   29.8570    2.4030 C.ar   77  PHE77      -0.0000
     89  N          3.8090   33.3160    5.5720 N.am   78  LEU78      -0.1963
     90  CA         5.2020   33.3070    5.9930 C.3    78  LEU78       0.1728
     91  C          5.8140   31.9410    5.6170 C.2    78  LEU78       0.2616
     92  O          5.1140   30.9190    5.6190 O.2    78  LEU78      -0.2715
     93  CB         5.3140   33.5780    7.4930 C.3    78  LEU78       0.0311
     94  CG         4.9600   35.0030    7.9290 C.3    78  LEU78       0.0022
     95  CD1        3.4800   35.0730    8.3740 C.3    78  LEU78       0.0001
     96  CD2        5.9180   35.4960    9.0270 C.3    78  LEU78       0.0001
     97  N          7.1080   31.9160    5.3110 N.am   79  HIS79      -0.1959
     98  CA         7.6840   30.7540    4.6290 C.3    79  HIS79       0.1787
     99  C          8.1070   29.6230    5.5400 C.2    79  HIS79       0.2620
    100  O          8.3650   28.5140    5.0660 O.2    79  HIS79      -0.2715
    101  CB         8.8370   31.1760    3.7310 C.3    79  HIS79       0.0785
    102  CG         8.3780   31.8370    2.4690 C.ar   79  HIS79       0.0821
    103  ND1        7.7880   33.0840    2.4570 N.ar   79  HIS79      -0.2267
    104  CD2        8.3880   31.4070    1.1840 C.ar   79  HIS79       0.1154
    105  CE1        7.4580   33.3970    1.2140 C.ar   79  HIS79       0.1986
    106  NE2        7.8250   32.4030    0.4210 N.ar   79  HIS79      -0.2212
    107  N          8.1630   29.8930    6.8390 N.am   80  GLN80      -0.1963
    108  CA         8.5310   28.8690    7.8010 C.3    80  GLN80       0.1733
    109  C          7.8940   29.0560    9.1940 C.2    80  GLN80       0.2616
    110  O          7.4880   30.1520    9.5570 O.2    80  GLN80      -0.2715
    111  CB        10.0530   28.7890    7.9050 C.3    80  GLN80       0.0408
    112  CG        10.5210   27.4010    8.3140 C.3    80  GLN80       0.0908
    113  CD        11.9730   27.1990    8.0420 C.2    80  GLN80       0.2608
    114  OE1       12.7840   27.1950    8.9690 O.2    80  GLN80      -0.2717
    115  NE2       12.3270   27.0350    6.7600 N.am   80  GLN80      -0.0878
    116  N          7.8350   27.9680    9.9600 N.am   81  ASP81      -0.1971
    117  CA         7.4000   28.0220   11.3580 C.3    81  ASP81       0.1709
    118  C          8.5890   27.7610   12.2740 C.2    81  ASP81       0.2293
    119  O          9.6670   27.3840   11.7930 O.2    81  ASP81      -0.2864
    120  CB         6.1910   27.1070   11.6310 C.3    81  ASP81       0.1436
    121  CG         6.5310   25.5940   11.6350 C.2    81  ASP81       0.3671
    122  OD1        7.5940   25.1760   11.1480 O.co2  81  ASP81      -0.2456
    123  OD2        5.6880   24.8200   12.1250 O.co2  81  ASP81      -0.2456
    124  N          9.8820   23.8840   12.6020 N.3    84  LYS84      -0.1245
    125  CA        10.7720   23.4600   11.5510 C.3    84  LYS84       0.1561
    126  C         12.1310   24.1290   11.7060 C.2    84  LYS84       0.2260
    127  O         13.1620   23.4940   11.4960 O.2    84  LYS84      -0.2867
    128  CB        10.1630   23.7810   10.1890 C.3    84  LYS84       0.0271
    129  CG        11.0490   23.4220    9.0220 C.3    84  LYS84       0.0035
    130  CD        10.2830   23.4550    7.7260 C.3    84  LYS84       0.0206
    131  CE        11.2190   23.6010    6.5370 C.3    84  LYS84       0.1093
    132  NZ        10.4550   23.5540    5.2790 N.3    84  LYS84      -0.1314
    133  N         -3.3160   29.5690   22.8560 N.3   122  ASP122     -0.1239
    134  CA        -2.6320   28.3740   22.3450 C.3   122  ASP122      0.1674
    135  C         -1.2930   28.6530   21.6910 C.2   122  ASP122      0.2266
    136  O         -1.0350   28.1840   20.5800 O.2   122  ASP122     -0.2867
    137  CB        -3.5310   27.5790   21.3760 C.3   122  ASP122      0.1410
    138  CG        -3.0910   26.1130   21.2630 C.2   122  ASP122      0.3668
    139  OD1       -2.4790   25.6070   22.2300 O.co2 122  ASP122     -0.2456
    140  OD2       -3.3000   25.5050   20.1970 O.co2 122  ASP122     -0.2456
    141  N          2.3210   27.9880   20.6910 N.3   124  LYS124     -0.1245
    142  CA         3.1580   26.8080   20.5250 C.3   124  LYS124      0.1561
    143  C          4.0550   27.0170   19.3230 C.2   124  LYS124      0.2260
    144  O          3.7240   27.8620   18.4700 O.2   124  LYS124     -0.2867
    145  CB         2.2850   25.5410   20.4040 C.3   124  LYS124      0.0271
    146  CG         1.2230   25.5490   19.3130 C.3   124  LYS124      0.0035
    147  CD         0.2760   24.3680   19.4710 C.3   124  LYS124      0.0206
    148  CE        -0.7360   24.3050   18.3530 C.3   124  LYS124      0.1093
    149  NZ        -1.9600   23.5230   18.7370 N.3   124  LYS124     -0.1314
    150  N          4.4910   25.6660   16.4970 N.3   126  GLN126     -0.1231
    151  CA         3.8280   25.5350   15.2160 C.3   126  GLN126      0.1698
    152  C          2.9110   26.7300   14.9060 C.2   126  GLN126      0.2592
    153  O          2.5240   26.9050   13.7540 O.2   126  GLN126     -0.2718
    154  CB         3.0070   24.2320   15.1270 C.3   126  GLN126      0.0381
    155  CG         3.7020   22.9850   15.6830 C.3   126  GLN126      0.0905
    156  CD         3.2460   22.6810   17.1300 C.2   126  GLN126      0.2608
    157  OE1        2.2160   21.9890   17.3470 O.2   126  GLN126     -0.2717
    158  NE2        3.9850   23.2110   18.1220 N.am  126  GLN126     -0.0878
    159  N          2.5470   27.5130   15.9190 N.am  127  ASN127     -0.1974
    160  CA         1.7800   28.7660   15.7350 C.3   127  ASN127      0.1688
    161  C          2.6670   30.0260   15.6780 C.2   127  ASN127      0.2292
    162  O          2.1660   31.1430   15.7210 O.2   127  ASN127     -0.2864
    163  CB         0.7480   28.9500   16.8590 C.3   127  ASN127      0.1181
    164  CG        -0.5370   28.1490   16.6420 C.2   127  ASN127      0.2629
    165  OD1       -0.8640   27.7600   15.5340 O.2   127  ASN127     -0.2716
    166  ND2       -1.2730   27.9260   17.7140 N.am  127  ASN127     -0.0877
    167  N          5.4650   31.9650   13.4280 N.3   129  LEU129     -0.1245
    168  CA         5.8800   31.9930   12.0480 C.3   129  LEU129      0.1561
    169  C          6.9730   33.0310   11.8040 C.2   129  LEU129      0.2260
    170  O          6.8970   34.1400   12.3100 O.2   129  LEU129     -0.2867
    171  CB         4.6660   32.2600   11.1420 C.3   129  LEU129      0.0270
    172  CG         3.4810   31.2990   11.2730 C.3   129  LEU129      0.0019
    173  CD1        2.2770   31.8400   10.4710 C.3   129  LEU129      0.0001
    174  CD2        3.8840   29.8800   10.8440 C.3   129  LEU129      0.0001
    175  N          0.3740   33.4300   15.1690 N.3   139  ALA139     -0.1231
    176  CA        -0.6240   32.9440   14.2040 C.3   139  ALA139      0.1694
    177  C         -1.7390   32.2360   14.9440 C.2   139  ALA139      0.2592
    178  O         -1.5530   31.8190   16.0990 O.2   139  ALA139     -0.2718
    179  CB         0.0160   31.9780   13.2580 C.3   139  ALA139      0.0304
    180  N         -2.8830   32.0870   14.2780 N.am  140  ASP140     -0.1974
    181  CA        -4.0690   31.3900   14.8160 C.3   140  ASP140      0.1709
    182  C         -4.5370   32.0110   16.1260 C.2   140  ASP140      0.2293
    183  O         -4.6140   31.3610   17.1640 O.2   140  ASP140     -0.2864
    184  CB        -3.7700   29.9140   15.0130 C.3   140  ASP140      0.1436
    185  CG        -5.0230   29.0930   15.2950 C.2   140  ASP140      0.3671
    186  OD1       -4.8650   27.9080   15.6290 O.co2 140  ASP140     -0.2456
    187  OD2       -6.1560   29.6120   15.1920 O.co2 140  ASP140     -0.2456
    188  N         -6.2020   14.8000   14.7130 N.3   150  GLU150     -0.1245
    189  CA        -5.1780   15.6280   15.3710 C.3   150  GLU150      0.1567
    190  C         -5.2410   15.4780   16.9010 C.2   150  GLU150      0.2260
    191  O         -6.3320   15.5480   17.4790 O.2   150  GLU150     -0.2867
    192  CB        -5.3550   17.0960   14.9680 C.3   150  GLU150      0.0388
    193  CG        -4.3490   18.0280   15.5710 C.3   150  GLU150      0.1160
    194  CD        -4.4100   19.4510   15.1100 C.2   150  GLU150      0.3649
    195  OE1       -5.2940   19.8070   14.3600 O.co2 150  GLU150     -0.2457
    196  OE2       -3.6800   20.3330   15.5900 O.co2 150  GLU150     -0.2457
@<TRIPOS>BOND
     1   106   104   ar
     2   106   105   ar
     3   104   102   ar
     4   105   103   ar
     5    87    85   ar
     6    87    88   ar
     7    85    83   ar
     8    88    86   ar
     9   103   102   ar
    10   102   101    1
    11    83    82    1
    12    83    84   ar
    13    82    79    1
    14    37    38    1
    15    86    84   ar
    16     7     5    1
    17    38    39    1
    18    38    41    1
    19   101    98    1
    20    39    40    2
    21    61    60    2
    22    78    79    1
    23    78    71   am
    24    79    80    1
    25    81    80    2
    26     1     2    1
    27    98    97    1
    28    98    99    1
    29    80    89   am
    30    32    33    2
    31    32    31    1
    32     8     6    1
    33     5     6    1
    34     5     2    1
    35   100    99    2
    36     2     3    1
    37    60    69   am
    38    60    59    1
    39    70    71    1
    40    70    69    1
    41    70    73    1
    42    71    72    2
    43   132   131    1
    44    97    91   am
    45    58    59    1
    46    42    43    1
    47    99   107   am
    48    89    90    1
    49    91    92    2
    50    91    90    1
    51    31    30    1
    52    31    34    1
    53    45    44    2
    54    90    93    1
    55    44    43    1
    56    74    73    1
    57    74    75    1
    58    59    62    1
    59    35    34    1
    60    43    46    1
    61   131   130    1
    62     3     9    1
    63     3     4    2
    64   115   113   am
    65   107   108    1
    66     9    10    2
    67    34    36    1
    68    76    75   ar
    69    62    63    1
    70    75    77   ar
    71    93    94    1
    72    12    11    2
    73   130   129    1
    74   108   111    1
    75   108   109    1
    76    46    47    1
    77   111   112    1
    78    94    95    1
    79    94    96    1
    80   113   112    1
    81   113   114    2
    82    63    64   ar
    83    63    65   ar
    84    64    66   ar
    85    10    11    1
    86    11    13   am
    87    47    48    1
    88   129   128    1
    89   109   110    2
    90   109   116   am
    91    65    67   ar
    92    28    27    1
    93    28    29    2
    94    66    68   ar
    95    21    19   ar
    96    56    55    1
    97    27    26    1
    98    13    14    1
    99   116   117    1
   100    17    14    1
   101    17    18    1
   102   128   125    1
   103    67    68   ar
   104    14    15    1
   105    48    49    1
   106    18    19    1
   107    19    20   ar
   108   173   172    1
   109    53    52    1
   110    53    54    2
   111   174   172    1
   112    55    52    1
   113    55    57    1
   114   171   172    1
   115   171   168    1
   116   122   121   ar
   117    52    51    1
   118   117   120    1
   119   117   118    1
   120    49    50    1
   121   127   126    2
   122   125   126    1
   123   125   124    1
   124   120   121    1
   125   121   123   ar
   126    15    22   am
   127    15    16    2
   128   119   118    2
   129   169   168    1
   130   169   170    2
   131   168   167    1
   132    22    23    1
   133    25    24    2
   134   179   176    1
   135    23    24    1
   136   153   152    2
   137   176   177    1
   138   176   175    1
   139   180   181    1
   140   180   177   am
   141   195   194   ar
   142   188   189    1
   143   181   184    1
   144   181   182    1
   145   152   151    1
   146   152   159   am
   147   177   178    2
   148   192   189    1
   149   192   193    1
   150   184   185    1
   151   194   193    1
   152   194   196   ar
   153   154   151    1
   154   154   155    1
   155   187   185   ar
   156   151   150    1
   157   185   186   ar
   158   189   190    1
   159   165   164    2
   160   161   162    2
   161   161   160    1
   162   155   156    1
   163   160   159    1
   164   160   163    1
   165   182   183    2
   166   164   163    1
   167   164   166   am
   168   190   191    2
   169   156   157    2
   170   156   158   am
   171   148   149    1
   172   148   147    1
   173   144   143    2
   174   146   147    1
   175   146   145    1
   176   143   142    1
   177   140   138   ar
   178   145   142    1
   179   142   141    1
   180   136   135    2
   181   138   137    1
   182   138   139   ar
   183   137   134    1
   184   135   134    1
   185   134   133    1
