@<TRIPOS>MOLECULE
tmp/3uluA06.pdb
 126 115 0 0 0
SMALL
GASTEIGER

@<TRIPOS>ATOM
      1  N         59.3090   24.3660   46.1350 N.3   302  LYS302     -0.1245
      2  CA        58.0710   23.6660   45.8110 C.3   302  LYS302      0.1561
      3  C         58.2270   22.7950   44.5650 C.2   302  LYS302      0.2260
      4  O         58.4400   23.3080   43.4690 O.2   302  LYS302     -0.2867
      5  CB        56.9430   24.6800   45.6120 C.3   302  LYS302      0.0271
      6  CG        55.5770   24.0730   45.3470 C.3   302  LYS302      0.0035
      7  CD        54.5240   25.1640   45.2130 C.3   302  LYS302      0.0206
      8  CE        53.1400   24.5810   44.9800 C.3   302  LYS302      0.1093
      9  NZ        52.1020   25.6470   44.8980 N.3   302  LYS302     -0.1314
     10  N         57.2440   22.6060   49.9710 N.3   335  GLU335     -0.1231
     11  CA        56.0260   21.8150   49.8200 C.3   335  GLU335      0.1699
     12  C         55.9640   20.9860   48.5340 C.2   335  GLU335      0.2592
     13  O         56.6460   21.2870   47.5530 O.2   335  GLU335     -0.2718
     14  CB        54.7910   22.7110   49.9400 C.3   335  GLU335      0.0402
     15  CG        54.7560   23.8640   48.9600 C.3   335  GLU335      0.1161
     16  CD        53.5550   24.7580   49.1750 C.2   335  GLU335      0.3649
     17  OE1       53.0990   24.8710   50.3330 O.co2 335  GLU335     -0.2457
     18  OE2       53.0630   25.3420   48.1870 O.co2 335  GLU335     -0.2457
     19  N         55.1490   19.9340   48.5670 N.am  336  ASP336     -0.1974
     20  CA        54.9110   19.0630   47.4140 C.3   336  ASP336      0.1709
     21  C         56.1700   18.3820   46.8750 C.2   336  ASP336      0.2293
     22  O         56.5870   18.6350   45.7470 O.2   336  ASP336     -0.2864
     23  CB        54.1900   19.8210   46.2940 C.3   336  ASP336      0.1436
     24  CG        52.7790   20.2270   46.6750 C.2   336  ASP336      0.3671
     25  OD1       52.2160   19.6230   47.6130 O.co2 336  ASP336     -0.2456
     26  OD2       52.2280   21.1440   46.0320 O.co2 336  ASP336     -0.2456
     27  N         59.5430   30.5000   59.1270 N.3   355  TYR355     -0.1241
     28  CA        58.4480   29.8250   58.4390 C.3   355  TYR355      0.1605
     29  C         58.9360   28.5740   57.7180 C.2   355  TYR355      0.2264
     30  O         59.8320   28.6430   56.8740 O.2   355  TYR355     -0.2867
     31  CB        57.7770   30.7730   57.4390 C.3   355  TYR355      0.0534
     32  CG        56.6270   30.1550   56.6670 C.ar  355  TYR355     -0.0201
     33  CD1       55.3170   30.2860   57.1100 C.ar  355  TYR355     -0.0009
     34  CD2       56.8500   29.4460   55.4920 C.ar  355  TYR355     -0.0009
     35  CE1       54.2650   29.7270   56.4070 C.ar  355  TYR355      0.0417
     36  CE2       55.8070   28.8850   54.7850 C.ar  355  TYR355      0.0417
     37  CZ        54.5170   29.0270   55.2460 C.ar  355  TYR355      0.1957
     38  OH        53.4760   28.4670   54.5420 O.3   355  TYR355     -0.2866
     39  N         57.3370   25.4070   55.5030 N.3   357  SER357     -0.1217
     40  CA        56.2260   24.7080   54.8670 C.3   357  SER357      0.1889
     41  C         56.6700   23.3400   54.3660 C.2   357  SER357      0.2288
     42  O         57.4450   23.2390   53.4150 O.2   357  SER357     -0.2866
     43  CB        55.6520   25.5320   53.7130 C.3   357  SER357      0.2089
     44  OG        54.5130   24.9000   53.1520 O.3   357  SER357     -0.2183
     45  N         54.3480   20.9040   53.5880 N.3   359  SER359     -0.1217
     46  CA        53.1190   20.3250   53.0540 C.3   359  SER359      0.1889
     47  C         53.3870   19.3700   51.8960 C.2   359  SER359      0.2288
     48  O         53.8330   19.7910   50.8310 O.2   359  SER359     -0.2866
     49  CB        52.1700   21.4370   52.6030 C.3   359  SER359      0.2089
     50  OG        50.9980   20.9020   52.0140 O.3   359  SER359     -0.2183
     51  N         55.9770   29.3580   62.4060 N.3   383  ILE383     -0.1245
     52  CA        54.9100   28.6950   61.6580 C.3   383  ILE383      0.1561
     53  C         55.3820   27.4110   60.9780 C.2   383  ILE383      0.2260
     54  O         56.2850   27.4330   60.1360 O.2   383  ILE383     -0.2867
     55  CB        54.2800   29.6310   60.6040 C.3   383  ILE383      0.0252
     56  CG1       53.6720   30.8630   61.2800 C.3   383  ILE383      0.0019
     57  CG2       53.2200   28.8930   59.8080 C.3   383  ILE383      0.0019
     58  CD1       52.9730   31.8090   60.3250 C.3   383  ILE383      0.0001
     59  N         54.0960   24.0330   58.8170 N.3   385  ASN385     -0.1240
     60  CA        53.0210   23.4490   58.0210 C.3   385  ASN385      0.1653
     61  C         53.2960   21.9900   57.6590 C.2   385  ASN385      0.2266
     62  O         54.1330   21.7020   56.8050 O.2   385  ASN385     -0.2867
     63  CB        52.7950   24.2780   56.7540 C.3   385  ASN385      0.1155
     64  CG        51.4300   24.0480   56.1390 C.2   385  ASN385      0.2627
     65  OD1       50.9640   22.9120   56.0350 O.2   385  ASN385     -0.2716
     66  ND2       50.7770   25.1320   55.7310 N.am  385  ASN385     -0.0877
     67  N         50.8520   19.6300   56.6370 N.3   387  THR387     -0.1203
     68  CA        49.6810   19.0370   56.0020 C.3   387  THR387      0.1994
     69  C         50.0660   18.0700   54.8920 C.2   387  THR387      0.2617
     70  O         51.1730   18.1330   54.3600 O.2   387  THR387     -0.2717
     71  CB        48.7550   20.1060   55.4030 C.3   387  THR387      0.1784
     72  OG1       49.4840   20.8960   54.4560 O.3   387  THR387     -0.2211
     73  CG2       48.2140   21.0070   56.4920 C.3   387  THR387      0.0376
     74  N         49.1420   17.1720   54.5620 N.am  388  LYS388     -0.1979
     75  CA        49.2780   16.2880   53.4060 C.3   388  LYS388      0.1596
     76  C         50.5460   15.4310   53.4180 C.2   388  LYS388      0.2287
     77  O         51.1300   15.1620   52.3690 O.2   388  LYS388     -0.2864
     78  CB        49.1890   17.1030   52.1100 C.3   388  LYS388      0.0298
     79  CG        47.8860   17.8810   51.9710 C.3   388  LYS388      0.0038
     80  CD        48.0150   19.0430   50.9950 C.3   388  LYS388      0.0206
     81  CE        48.2920   18.5660   49.5790 C.3   388  LYS388      0.1093
     82  NZ        48.3720   19.7060   48.6220 N.3   388  LYS388     -0.1314
     83  N         52.1290   28.8390   65.1830 N.3   407  VAL407     -0.1245
     84  CA        51.1120   28.2230   64.3390 C.3   407  VAL407      0.1561
     85  C         51.5440   26.8330   63.8920 C.2   407  VAL407      0.2260
     86  O         52.5570   26.6800   63.2090 O.2   407  VAL407     -0.2867
     87  CB        50.8310   29.0770   63.0860 C.3   407  VAL407      0.0252
     88  CG1       49.8410   28.3720   62.1700 C.3   407  VAL407      0.0019
     89  CG2       50.3200   30.4530   63.4830 C.3   407  VAL407      0.0019
     90  N         50.2030   23.5060   61.8230 N.3   409  ASP409     -0.1239
     91  CA        49.1670   22.8910   60.9960 C.3   409  ASP409      0.1674
     92  C         49.4170   21.3960   60.8220 C.2   409  ASP409      0.2266
     93  O         50.3170   20.9870   60.0880 O.2   409  ASP409     -0.2867
     94  CB        49.0700   23.5800   59.6320 C.3   409  ASP409      0.1410
     95  CG        47.7360   23.3300   58.9430 C.2   409  ASP409      0.3668
     96  OD1       47.0950   22.2950   59.2240 O.co2 409  ASP409     -0.2456
     97  OD2       47.3280   24.1700   58.1130 O.co2 409  ASP409     -0.2456
     98  N         44.9420   17.4770   57.4710 N.3   412  LEU412     -0.1245
     99  CA        45.1310   16.7190   56.2360 C.3   412  LEU412      0.1561
    100  C         46.1070   15.5520   56.3810 C.2   412  LEU412      0.2260
    101  O         47.0090   15.3840   55.5620 O.2   412  LEU412     -0.2867
    102  CB        45.5860   17.6450   55.1050 C.3   412  LEU412      0.0270
    103  CG        44.5090   18.5350   54.4880 C.3   412  LEU412      0.0019
    104  CD1       45.1370   19.6280   53.6420 C.3   412  LEU412      0.0001
    105  CD2       43.5740   17.6850   53.6530 C.3   412  LEU412      0.0001
    106  N         47.8740   28.6440   67.5640 N.3   432  GLU432     -0.1245
    107  CA        46.8310   27.8620   66.9090 C.3   432  GLU432      0.1567
    108  C         47.2850   26.4770   66.4540 C.2   432  GLU432      0.2260
    109  O         48.3720   26.3080   65.8910 O.2   432  GLU432     -0.2867
    110  CB        46.2120   28.6330   65.7410 C.3   432  GLU432      0.0388
    111  CG        47.1730   29.0320   64.6450 C.3   432  GLU432      0.1160
    112  CD        46.4680   29.7080   63.4850 C.2   432  GLU432      0.3649
    113  OE1       45.2200   29.6450   63.4320 O.co2 432  GLU432     -0.2457
    114  OE2       47.1570   30.2980   62.6280 O.co2 432  GLU432     -0.2457
    115  N         46.0160   23.2660   64.1400 N.3   434  TYR434     -0.1241
    116  CA        45.1200   22.6950   63.1480 C.3   434  TYR434      0.1605
    117  C         45.2310   21.1780   63.1770 C.2   434  TYR434      0.2264
    118  O         46.3290   20.6280   63.1070 O.2   434  TYR434     -0.2867
    119  CB        45.4690   23.2090   61.7500 C.3   434  TYR434      0.0534
    120  CG        45.2170   24.6860   61.5420 C.ar  434  TYR434     -0.0201
    121  CD1       44.0360   25.1320   60.9650 C.ar  434  TYR434     -0.0009
    122  CD2       46.1620   25.6320   61.9140 C.ar  434  TYR434     -0.0009
    123  CE1       43.7990   26.4810   60.7720 C.ar  434  TYR434      0.0417
    124  CE2       45.9350   26.9820   61.7230 C.ar  434  TYR434      0.0417
    125  CZ        44.7510   27.4020   61.1520 C.ar  434  TYR434      0.1957
    126  OH        44.5180   28.7450   60.9590 O.3   434  TYR434     -0.2866
@<TRIPOS>BOND
     1     4     3    2
     2     3     2    1
     3     9     8    1
     4     8     7    1
     5     7     6    1
     6     6     5    1
     7     5     2    1
     8    22    21    2
     9     2     1    1
    10    26    24   ar
    11    23    24    1
    12    23    20    1
    13    24    25   ar
    14    21    20    1
    15    20    19    1
    16    13    12    2
    17    18    16   ar
    18    12    19   am
    19    12    11    1
    20    82    81    1
    21    15    16    1
    22    15    14    1
    23    16    17   ar
    24    81    80    1
    25    11    14    1
    26    11    10    1
    27    48    47    2
    28    80    79    1
    29    47    46    1
    30    79    78    1
    31    50    49    1
    32    78    75    1
    33    77    76    2
    34    49    46    1
    35    46    45    1
    36    44    43    1
    37    75    76    1
    38    75    74    1
    39    42    41    2
    40   104   103    1
    41   105   103    1
    42    43    40    1
    43    70    69    2
    44    41    40    1
    45    72    71    1
    46   103   102    1
    47    38    37    1
    48    74    69   am
    49    36    37   ar
    50    36    34   ar
    51    40    39    1
    52    69    68    1
    53   102    99    1
    54    37    35   ar
    55    71    68    1
    56    71    73    1
    57    34    32   ar
    58   101   100    2
    59    66    64   am
    60    68    67    1
    61    65    64    2
    62    64    63    1
    63    99   100    1
    64    99    98    1
    65    35    33   ar
    66    32    33   ar
    67    32    31    1
    68    63    60    1
    69    62    61    2
    70    30    29    2
    71    31    28    1
    72    61    60    1
    73    29    28    1
    74    60    59    1
    75    97    95   ar
    76    28    27    1
    77    95    96   ar
    78    95    94    1
    79    94    91    1
    80    57    55    1
    81    93    92    2
    82    54    53    2
    83    58    56    1
    84    55    56    1
    85    55    52    1
    86   123   121   ar
    87   123   125   ar
    88    92    91    1
    89   126   125    1
    90   121   120   ar
    91    53    52    1
    92    91    90    1
    93   125   124   ar
    94   120   119    1
    95   120   122   ar
    96    52    51    1
    97   124   122   ar
    98   119   116    1
    99    88    87    1
   100   114   112   ar
   101    87    89    1
   102    87    84    1
   103   118   117    2
   104   116   117    1
   105   116   115    1
   106    86    85    2
   107   113   112   ar
   108   112   111    1
   109    85    84    1
   110    84    83    1
   111   111   110    1
   112   110   107    1
   113   109   108    2
   114   108   107    1
   115   107   106    1
