@<TRIPOS>MOLECULE
tmp/3um8B00.pdb
 143 136 0 0 0
SMALL
GASTEIGER

@<TRIPOS>ATOM
      1  N         23.7950  -28.4720   13.6730 N.3    14  ILE14      -0.1231
      2  CA        24.5180  -27.3500   13.0950 C.3    14  ILE14       0.1692
      3  C         24.5130  -27.4810   11.5810 C.2    14  ILE14       0.2592
      4  O         24.7960  -28.5520   11.0420 O.2    14  ILE14      -0.2718
      5  CB        25.9810  -27.2900   13.5980 C.3    14  ILE14       0.0266
      6  CG1       26.6600  -26.0310   13.0530 C.3    14  ILE14       0.0019
      7  CG2       26.7440  -28.5270   13.1540 C.3    14  ILE14       0.0020
      8  CD1       28.0180  -25.7590   13.6380 C.3    14  ILE14       0.0001
      9  N         24.1870  -26.3890   10.8970 N.am   15  CYS15      -0.1956
     10  CA        24.1300  -26.3990    9.4440 C.3    15  CYS15       0.1843
     11  C         24.4400  -25.0460    8.8290 C.2    15  CYS15       0.2625
     12  O         24.7320  -24.0720    9.5250 O.2    15  CYS15      -0.2714
     13  CB        22.7410  -26.8360    8.9860 C.3    15  CYS15       0.0997
     14  SG        21.4190  -25.7920    9.6290 S.3    15  CYS15      -0.0797
     15  N         24.3660  -25.0060    7.5060 N.am   16  ALA16      -0.1977
     16  CA        24.6130  -23.8010    6.7340 C.3    16  ALA16       0.1597
     17  C         23.7510  -23.8840    5.4830 C.2    16  ALA16       0.2287
     18  O         24.0370  -24.6620    4.5760 O.2    16  ALA16      -0.2864
     19  CB        26.0790  -23.7130    6.3500 C.3    16  ALA16       0.0319
     20  N         28.6330  -29.1860   -1.3490 N.3    46  LEU46      -0.1245
     21  CA        28.0430  -27.9470   -0.8640 C.3    46  LEU46       0.1561
     22  C         27.6830  -27.0420   -2.0410 C.2    46  LEU46       0.2260
     23  O         28.3800  -27.0280   -3.0550 O.2    46  LEU46      -0.2867
     24  CB        29.0320  -27.2230    0.0550 C.3    46  LEU46       0.0270
     25  CG        29.4150  -27.9740    1.3280 C.3    46  LEU46       0.0019
     26  CD1       30.4640  -27.1890    2.1080 C.3    46  LEU46       0.0001
     27  CD2       28.1660  -28.2000    2.1610 C.3    46  LEU46       0.0001
     28  N         28.0170  -23.9300   -2.4640 N.3    48  TRP48      -0.1241
     29  CA        29.0470  -22.9240   -2.7030 C.3    48  TRP48       0.1605
     30  C         30.4910  -23.3990   -2.9010 C.2    48  TRP48       0.2264
     31  O         31.2780  -22.7050   -3.5470 O.2    48  TRP48      -0.2867
     32  CB        28.9900  -21.8860   -1.5720 C.3    48  TRP48       0.0550
     33  CG        28.8640  -22.4860   -0.1950 C.ar   48  TRP48       0.0003
     34  CD1       29.8760  -22.8120    0.6530 C.ar   48  TRP48       0.0946
     35  CD2       27.6440  -22.8690    0.4640 C.ar   48  TRP48       0.0152
     36  NE1       29.3640  -23.3760    1.8010 N.ar   48  TRP48      -0.2442
     37  CE2       27.9980  -23.4220    1.7100 C.ar   48  TRP48       0.0810
     38  CE3       26.2860  -22.7950    0.1160 C.ar   48  TRP48       0.0012
     39  CZ2       27.0450  -23.9060    2.6150 C.ar   48  TRP48       0.0191
     40  CZ3       25.3350  -23.2740    1.0150 C.ar   48  TRP48       0.0001
     41  CH2       25.7220  -23.8230    2.2530 C.ar   48  TRP48       0.0015
     42  N         32.5110  -19.8580    7.3500 N.3    54  ASP54      -0.1225
     43  CA        31.5810  -20.8120    7.9210 C.3    54  ASP54       0.1805
     44  C         32.3440  -22.0430    8.3680 C.2    54  ASP54       0.2597
     45  O         32.0360  -22.6240    9.4110 O.2    54  ASP54      -0.2718
     46  CB        30.5140  -21.2020    6.9040 C.3    54  ASP54       0.1424
     47  CG        29.6870  -22.3730    7.3660 C.2    54  ASP54       0.3668
     48  OD1       30.1020  -23.5170    7.1110 O.co2  54  ASP54      -0.2456
     49  OD2       28.6360  -22.1510    8.0000 O.co2  54  ASP54      -0.2456
     50  N         33.3440  -22.4350    7.5780 N.am   55  MET55      -0.1979
     51  CA        34.1580  -23.5940    7.9210 C.3    55  MET55       0.1605
     52  C         34.7260  -23.3520    9.3140 C.2    55  MET55       0.2287
     53  O         34.5360  -24.1620   10.2150 O.2    55  MET55      -0.2864
     54  CB        35.3220  -23.7840    6.9350 C.3    55  MET55       0.0413
     55  CG        34.9640  -23.8900    5.4450 C.3    55  MET55       0.0598
     56  SD        33.8290  -25.2080    4.9430 S.3    55  MET55      -0.1393
     57  CE        32.3300  -24.2410    4.5560 C.3    55  MET55       0.0692
     58  N         33.7330  -21.6530   11.5840 N.3    57  TYR57      -0.1227
     59  CA        32.6680  -21.6910   12.5800 C.3    57  TYR57       0.1736
     60  C         32.3610  -23.1520   12.9030 C.2    57  TYR57       0.2595
     61  O         32.4030  -23.5680   14.0660 O.2    57  TYR57      -0.2718
     62  CB        31.4110  -21.0010   12.0460 C.3    57  TYR57       0.0548
     63  CG        30.3440  -20.7740   13.0950 C.ar   57  TYR57      -0.0200
     64  CD1       30.5610  -19.8920   14.1540 C.ar   57  TYR57      -0.0009
     65  CD2       29.1120  -21.4290   13.0240 C.ar   57  TYR57      -0.0009
     66  CE1       29.5830  -19.6620   15.1100 C.ar   57  TYR57       0.0417
     67  CE2       28.1260  -21.2090   13.9840 C.ar   57  TYR57       0.0417
     68  CZ        28.3690  -20.3230   15.0220 C.ar   57  TYR57       0.1957
     69  OH        27.3960  -20.0970   15.9730 O.3    57  TYR57      -0.2866
     70  N         32.0570  -23.9240   11.8630 N.am   58  PHE58      -0.1976
     71  CA        31.7560  -25.3430   12.0140 C.3    58  PHE58       0.1639
     72  C         32.7710  -25.9940   12.9440 C.2    58  PHE58       0.2290
     73  O         32.4100  -26.5850   13.9630 O.2    58  PHE58      -0.2864
     74  CB        31.8040  -26.0410   10.6570 C.3    58  PHE58       0.0560
     75  CG        31.6150  -27.5270   10.7400 C.ar   58  PHE58      -0.0200
     76  CD1       30.3830  -28.0640   11.0980 C.ar   58  PHE58      -0.0042
     77  CD2       32.6770  -28.3900   10.4870 C.ar   58  PHE58      -0.0042
     78  CE1       30.2070  -29.4400   11.2040 C.ar   58  PHE58      -0.0003
     79  CE2       32.5140  -29.7670   10.5900 C.ar   58  PHE58      -0.0003
     80  CZ        31.2750  -30.2940   10.9500 C.ar   58  PHE58      -0.0000
     81  N         26.4230  -38.0530   11.5850 N.3    89  MET89      -0.1245
     82  CA        26.1970  -37.7190   10.1870 C.3    89  MET89       0.1570
     83  C         25.7010  -38.9110    9.3700 C.2    89  MET89       0.2261
     84  O         25.8610  -40.0660    9.7690 O.2    89  MET89      -0.2867
     85  CB        27.4850  -37.1800    9.5640 C.3    89  MET89       0.0387
     86  CG        28.5920  -38.2080    9.4560 C.3    89  MET89       0.0595
     87  SD        30.1240  -37.5210    8.8150 S.3    89  MET89      -0.1393
     88  CE        31.0260  -37.2660   10.3440 C.3    89  MET89       0.0692
     89  N         26.8870  -37.8410    3.5080 N.3    93  SER93      -0.1217
     90  CA        27.7220  -36.7570    4.0070 C.3    93  SER93       0.1889
     91  C         29.1570  -37.2120    4.2610 C.2    93  SER93       0.2288
     92  O         30.0970  -36.6900    3.6610 O.2    93  SER93      -0.2866
     93  CB        27.1270  -36.1810    5.2950 C.3    93  SER93       0.2089
     94  OG        25.8730  -35.5690    5.0490 O.3    93  SER93      -0.2183
     95  N         31.2060  -37.2500    1.1890 N.3    96  SER96      -0.1202
     96  CA        31.5910  -35.9890    0.5640 C.3    96  SER96       0.2020
     97  C         32.7790  -35.3470    1.2720 C.2    96  SER96       0.2618
     98  O         33.2980  -34.3220    0.8280 O.2    96  SER96      -0.2717
     99  CB        30.4080  -35.0190    0.5570 C.3    96  SER96       0.2103
    100  OG        29.9860  -34.7220    1.8740 O.3    96  SER96      -0.2182
    101  N         33.2070  -35.9540    2.3730 N.am   97  ILE97      -0.1979
    102  CA        34.3380  -35.4370    3.1300 C.3    97  ILE97       0.1595
    103  C         35.6460  -35.9040    2.5000 C.2    97  ILE97       0.2287
    104  O         35.8480  -37.0980    2.2780 O.2    97  ILE97      -0.2864
    105  CB        34.3030  -35.9210    4.5950 C.3    97  ILE97       0.0276
    106  CG1       32.9460  -35.5960    5.2190 C.3    97  ILE97       0.0022
    107  CG2       35.4220  -35.2560    5.3910 C.3    97  ILE97       0.0022
    108  CD1       32.7830  -36.0980    6.6360 C.3    97  ILE97       0.0001
    109  N         37.0260  -36.3880   10.8150 N.3   104  LEU104     -0.1245
    110  CA        37.3330  -35.1070   11.3760 C.3   104  LEU104      0.1561
    111  C         38.2550  -35.0540   12.5560 C.2   104  LEU104      0.2260
    112  O         38.0100  -35.6840   13.5810 O.2   104  LEU104     -0.2867
    113  CB        36.0490  -34.3170   11.6030 C.3   104  LEU104      0.0270
    114  CG        35.2630  -34.2160   10.2870 C.3   104  LEU104      0.0019
    115  CD1       34.0220  -33.3750   10.4940 C.3   104  LEU104      0.0001
    116  CD2       36.1590  -33.5940    9.2080 C.3   104  LEU104      0.0001
    117  N         25.8080  -33.0190   12.2670 N.3   149  ILE149     -0.1245
    118  CA        26.3550  -32.2330   11.1660 C.3   149  ILE149      0.1561
    119  C         25.7730  -32.5750    9.8020 C.2   149  ILE149      0.2260
    120  O         26.3460  -32.2180    8.7710 O.2   149  ILE149     -0.2867
    121  CB        27.8890  -32.3780   11.0930 C.3   149  ILE149      0.0252
    122  CG1       28.2650  -33.8000   10.6750 C.3   149  ILE149      0.0019
    123  CG2       28.4980  -32.0580   12.4490 C.3   149  ILE149      0.0019
    124  CD1       29.7560  -34.0280   10.5510 C.3   149  ILE149      0.0001
    125  N         18.8460  -34.6890    9.5170 N.3   155  TYR155     -0.1241
    126  CA        18.2200  -33.5040   10.1050 C.3   155  TYR155      0.1605
    127  C         16.7160  -33.7260   10.1850 C.2   155  TYR155      0.2264
    128  O         16.1040  -33.5770   11.2380 O.2   155  TYR155     -0.2867
    129  CB        18.4590  -32.2500    9.2430 C.3   155  TYR155      0.0534
    130  CG        19.8760  -31.7090    9.2090 C.ar  155  TYR155     -0.0201
    131  CD1       20.5830  -31.4680   10.3880 C.ar  155  TYR155     -0.0009
    132  CD2       20.4940  -31.3870    7.9960 C.ar  155  TYR155     -0.0009
    133  CE1       21.8660  -30.9200   10.3630 C.ar  155  TYR155      0.0417
    134  CE2       21.7770  -30.8390    7.9620 C.ar  155  TYR155      0.0417
    135  CZ        22.4540  -30.6090    9.1480 C.ar  155  TYR155      0.1957
    136  OH        23.7180  -30.0720    9.1280 O.3   155  TYR155     -0.2866
    137  N         23.7310  -21.3600    9.9520 N.3   170  THR170     -0.1218
    138  CA        24.5060  -20.3490    9.2410 C.3   170  THR170      0.1862
    139  C         23.7150  -19.9330    8.0080 C.2   170  THR170      0.2287
    140  O         23.3240  -20.7720    7.2010 O.2   170  THR170     -0.2866
    141  CB        25.8720  -20.8870    8.7650 C.3   170  THR170      0.1770
    142  OG1       26.7130  -21.1430    9.8960 O.3   170  THR170     -0.2211
    143  CG2       26.5480  -19.8730    7.8480 C.3   170  THR170      0.0375
@<TRIPOS>BOND
     1    31    30    2
     2    23    22    2
     3    30    29    1
     4    29    28    1
     5    29    32    1
     6    22    21    1
     7    32    33    1
     8    20    21    1
     9    21    24    1
    10    33    35   ar
    11    33    34   ar
    12    24    25    1
    13    38    35   ar
    14    38    40   ar
    15    35    37   ar
    16    99    96    1
    17    99   100    1
    18    96    95    1
    19    96    97    1
    20    34    36   ar
    21    98    97    2
    22    40    41   ar
    23    97   101   am
    24    25    26    1
    25    25    27    1
    26    37    36   ar
    27    37    39   ar
    28    41    39   ar
    29   104   103    2
    30   101   102    1
    31   103   102    1
    32   102   105    1
    33    89    90    1
    34    92    91    2
    35    90    91    1
    36    90    93    1
    37    57    56    1
    38    18    17    2
    39   105   106    1
    40   105   107    1
    41    56    55    1
    42    94    93    1
    43   106   108    1
    44    55    54    1
    45    17    16    1
    46    19    16    1
    47    16    15    1
    48    46    47    1
    49    46    43    1
    50    54    51    1
    51    48    47   ar
    52   140   139    2
    53    42    43    1
    54    47    49   ar
    55    15    11   am
    56    50    51    1
    57    50    44   am
    58   143   141    1
    59    51    52    1
    60    43    44    1
    61   134   132   ar
    62   134   135   ar
    63   132   130   ar
    64   139   138    1
    65    44    45    2
    66   141   138    1
    67   141   142    1
    68   120   119    2
    69    87    86    1
    70    87    88    1
    71    11    10    1
    72    11    12    2
    73    13    10    1
    74    13    14    1
    75   136   135    1
    76   135   133   ar
    77   116   114    1
    78   130   129    1
    79   130   131   ar
    80   138   137    1
    81   129   126    1
    82    52    53    2
    83    83    84    2
    84    83    82    1
    85    10     9    1
    86    86    85    1
    87   125   126    1
    88    85    82    1
    89   119   118    1
    90   126   127    1
    91   127   128    2
    92    82    81    1
    93   114   115    1
    94   114   113    1
    95   133   131   ar
    96    77    79   ar
    97    77    75   ar
    98   124   122    1
    99    79    80   ar
   100    74    75    1
   101    74    71    1
   102   122   121    1
   103    75    76   ar
   104   109   110    1
   105     9     3   am
   106    80    78   ar
   107     4     3    2
   108   121   118    1
   109   121   123    1
   110    76    78   ar
   111   118   117    1
   112   110   113    1
   113   110   111    1
   114     3     2    1
   115    58    59    1
   116    70    71    1
   117    70    60   am
   118    71    72    1
   119    62    59    1
   120    62    63    1
   121   111   112    2
   122    59    60    1
   123    60    61    2
   124    72    73    2
   125    65    63   ar
   126    65    67   ar
   127     6     5    1
   128     6     8    1
   129     2     5    1
   130     2     1    1
   131    63    64   ar
   132     7     5    1
   133    67    68   ar
   134    64    66   ar
   135    68    66   ar
   136    68    69    1
