@<TRIPOS>MOLECULE
tmp/3umpB02.pdb
 161 148 0 0 0
SMALL
GASTEIGER

@<TRIPOS>ATOM
      1  N         15.4450   36.0880    9.7740 N.3   105  ARG105     -0.1245
      2  CA        15.7910   35.3260   10.9610 C.3   105  ARG105      0.1563
      3  C         17.1670   35.7610   11.4180 C.2   105  ARG105      0.2260
      4  O         18.1400   35.5730   10.6970 O.2   105  ARG105     -0.2867
      5  CB        15.8220   33.8310   10.6300 C.3   105  ARG105      0.0307
      6  CG        14.5440   33.3260    9.9920 C.3   105  ARG105      0.0489
      7  CD        14.7660   32.0300    9.2320 C.3   105  ARG105      0.2205
      8  NE        15.1130   30.9090   10.0980 N.pl3 105  ARG105     -0.0865
      9  CZ        15.5770   29.7430    9.6490 C.cat 105  ARG105      0.5346
     10  NH1       15.7580   29.5490    8.3520 N.pl3 105  ARG105      0.1354
     11  NH2       15.8550   28.7690   10.4970 N.pl3 105  ARG105      0.1354
     12  N         24.2390   16.7340   15.6950 N.3   166  ASP166     -0.1239
     13  CA        23.9000   17.6930   14.6470 C.3   166  ASP166      0.1674
     14  C         24.4460   19.0550   15.0490 C.2   166  ASP166      0.2266
     15  O         23.9140   19.7070   15.9390 O.2   166  ASP166     -0.2867
     16  CB        22.3730   17.7660   14.4390 C.3   166  ASP166      0.1410
     17  CG        21.9750   18.6980   13.2990 C.2   166  ASP166      0.3668
     18  OD1       20.7560   18.8880   13.0880 O.co2 166  ASP166     -0.2456
     19  OD2       22.8730   19.2470   12.6150 O.co2 166  ASP166     -0.2456
     20  N         24.1910   14.3100   11.1520 N.3   185  LYS185     -0.1245
     21  CA        23.4480   14.9040   10.0210 C.3   185  LYS185      0.1561
     22  C         23.9870   16.2670    9.6190 C.2   185  LYS185      0.2260
     23  O         23.4040   17.3010    9.9660 O.2   185  LYS185     -0.2867
     24  CB        21.9320   15.0440   10.2750 C.3   185  LYS185      0.0271
     25  CG        21.1510   15.4370    8.9650 C.3   185  LYS185      0.0035
     26  CD        19.8900   16.2780    9.2130 C.3   185  LYS185      0.0206
     27  CE        20.2050   17.7100    9.6430 C.3   185  LYS185      0.1093
     28  NZ        21.1310   18.4470    8.7060 N.3   185  LYS185     -0.1314
     29  N         24.4040   19.2180    6.9250 N.3   187  ASN187     -0.1240
     30  CA        23.8960   19.6000    5.6070 C.3   187  ASN187      0.1653
     31  C         25.1160   19.6880    4.6780 C.2   187  ASN187      0.2266
     32  O         26.2400   19.3320    5.0810 O.2   187  ASN187     -0.2867
     33  CB        23.0510   20.8950    5.6270 C.3   187  ASN187      0.1155
     34  CG        23.8500   22.1240    6.0420 C.2   187  ASN187      0.2627
     35  OD1       25.0870   22.1120    6.0100 O.2   187  ASN187     -0.2716
     36  ND2       23.1460   23.2060    6.4040 N.am  187  ASN187     -0.0877
     37  N         27.9200   22.0570    5.8770 N.3   190  GLU190     -0.1245
     38  CA        28.5170   21.4880    7.0760 C.3   190  GLU190      0.1567
     39  C         29.4200   20.3080    6.7290 C.2   190  GLU190      0.2260
     40  O         30.4990   20.1620    7.3060 O.2   190  GLU190     -0.2867
     41  CB        27.4080   21.0880    8.0690 C.3   190  GLU190      0.0388
     42  CG        26.7500   22.3210    8.7420 C.3   190  GLU190      0.1160
     43  CD        25.3490   22.0330    9.2950 C.2   190  GLU190      0.3649
     44  OE1       24.8550   20.8920    9.1350 O.co2 190  GLU190     -0.2457
     45  OE2       24.7480   22.9650    9.8800 O.co2 190  GLU190     -0.2457
     46  N         22.0200   15.9160    4.5890 N.3   224  SER224     -0.1202
     47  CA        20.7560   16.4890    4.1530 C.3   224  SER224      0.2020
     48  C         21.0000   17.5380    3.0560 C.2   224  SER224      0.2619
     49  O         21.9570   18.3100    3.1140 O.2   224  SER224     -0.2717
     50  CB        19.9670   17.0380    5.3550 C.3   224  SER224      0.2103
     51  OG        20.5700   18.1830    5.9430 O.3   224  SER224     -0.2182
     52  N         20.1280   17.5530    2.0510 N.am  225  LEU225     -0.1965
     53  CA        20.3770   18.2640    0.8010 C.3   225  LEU225      0.1728
     54  C         19.2520   19.2640    0.4640 C.2   225  LEU225      0.2617
     55  O         18.9870   19.5460   -0.7140 O.2   225  LEU225     -0.2715
     56  CB        20.5100   17.2360   -0.3280 C.3   225  LEU225      0.0311
     57  CG        21.5250   16.1130   -0.0900 C.3   225  LEU225      0.0022
     58  CD1       21.3760   15.0160   -1.1370 C.3   225  LEU225      0.0001
     59  CD2       22.9470   16.6330   -0.1410 C.3   225  LEU225      0.0001
     60  N         18.5920   19.7960    1.4880 N.am  226  GLY226     -0.1941
     61  CA        17.5420   20.7780    1.2510 C.3   226  GLY226      0.1998
     62  C         16.4550   20.1590    0.3980 C.2   226  GLY226      0.2480
     63  O         15.9690   19.0680    0.7100 O.2   226  GLY226     -0.2729
     64  N         16.0750   20.8290   -0.7020 N.am  227  PRO227     -0.2726
     65  CA        14.9490   20.2940   -1.4850 C.3   227  PRO227      0.1402
     66  C         15.2760   18.9870   -2.2050 C.2   227  PRO227      0.2269
     67  O         14.3640   18.3030   -2.6710 O.2   227  PRO227     -0.2865
     68  CB        14.6690   21.4020   -2.5070 C.3   227  PRO227      0.0296
     69  CG        15.9870   22.1470   -2.6260 C.3   227  PRO227      0.0237
     70  CD        16.6030   22.0930   -1.2490 C.3   227  PRO227      0.0939
     71  N         16.4300   16.4660   -0.7100 N.3   229  GLY229     -0.1225
     72  CA        16.2040   15.3910    0.2440 C.3   229  GLY229      0.1811
     73  C         17.4710   15.0780    1.0330 C.2   229  GLY229      0.2280
     74  O         18.0200   15.9620    1.6940 O.2   229  GLY229     -0.2866
     75  N         12.3900   14.3060   -1.7650 N.3   243  PRO243     -0.2103
     76  CA        11.0370   14.6270   -1.2960 C.3   243  PRO243      0.1489
     77  C         10.0810   14.6820   -2.4730 C.2   243  PRO243      0.2417
     78  O         10.5120   14.8350   -3.6200 O.2   243  PRO243     -0.2734
     79  CB        11.1860   16.0380   -0.7050 C.3   243  PRO243      0.0282
     80  CG        12.6640   16.2730   -0.5630 C.3   243  PRO243      0.0208
     81  CD        13.3010   15.4570   -1.6490 C.3   243  PRO243      0.0893
     82  N          8.7770   14.5670   -2.1940 N.am  244  PRO244     -0.2729
     83  CA         7.7760   14.7230   -3.2470 C.3   244  PRO244      0.1401
     84  C          7.7720   16.1490   -3.7870 C.2   244  PRO244      0.2269
     85  O          8.1780   17.0850   -3.0930 O.2   244  PRO244     -0.2865
     86  CB         6.4560   14.4090   -2.5220 C.3   244  PRO244      0.0296
     87  CG         6.7300   14.6410   -1.0810 C.3   244  PRO244      0.0237
     88  CD         8.1720   14.2680   -0.8840 C.3   244  PRO244      0.0939
     89  N          6.2820   18.9810   -3.9620 N.3   246  VAL246     -0.1245
     90  CA         5.3130   19.8840   -3.3650 C.3   246  VAL246      0.1561
     91  C          6.0740   21.1120   -2.8930 C.2   246  VAL246      0.2260
     92  O          7.1660   20.9900   -2.3350 O.2   246  VAL246     -0.2867
     93  CB         4.5900   19.2330   -2.1710 C.3   246  VAL246      0.0252
     94  CG1        3.6000   20.2250   -1.5380 C.3   246  VAL246      0.0019
     95  CG2        3.8690   17.9670   -2.6270 C.3   246  VAL246      0.0019
     96  N          7.5930   24.1840   -1.0090 N.3   248  SER248     -0.1217
     97  CA         7.9470   24.5060    0.3760 C.3   248  SER248      0.1889
     98  C          7.3880   25.8820    0.7220 C.2   248  SER248      0.2288
     99  O          7.4720   26.8060   -0.0890 O.2   248  SER248     -0.2866
    100  CB         9.4700   24.4900    0.5310 C.3   248  SER248      0.2089
    101  OG         9.8800   25.1930    1.6930 O.3   248  SER248     -0.2183
    102  N         11.1740   27.0150    5.3040 N.3   251  THR251     -0.1218
    103  CA        12.1530   25.9800    5.6220 C.3   251  THR251      0.1862
    104  C         12.5640   25.9270    7.0910 C.2   251  THR251      0.2287
    105  O         13.3490   25.0690    7.4810 O.2   251  THR251     -0.2866
    106  CB        13.4150   26.1000    4.7470 C.3   251  THR251      0.1770
    107  OG1       13.9450   27.4260    4.8470 O.3   251  THR251     -0.2211
    108  CG2       13.0860   25.7960    3.2980 C.3   251  THR251      0.0375
    109  N         12.9190   25.0080   10.7660 N.3   253  GLY253     -0.1210
    110  CA        12.6780   23.7830   11.5030 C.3   253  GLY253      0.1956
    111  C         12.8300   22.4970   10.7110 C.2   253  GLY253      0.2612
    112  O         12.5610   21.4160   11.2260 O.2   253  GLY253     -0.2717
    113  N         13.2680   22.6030    9.4620 N.am  254  ALA254     -0.1965
    114  CA        13.3990   21.4130    8.6200 C.3   254  ALA254      0.1728
    115  C         14.4580   20.4410    9.1360 C.2   254  ALA254      0.2617
    116  O         14.2320   19.2230    9.1960 O.2   254  ALA254     -0.2715
    117  CB        13.6960   21.8060    7.1870 C.3   254  ALA254      0.0334
    118  N         15.6250   20.9630    9.4870 N.am  255  GLY255     -0.1940
    119  CA        16.6850   20.0880    9.9580 C.3   255  GLY255      0.2014
    120  C         16.3590   19.3830   11.2650 C.2   255  GLY255      0.2638
    121  O         16.5870   18.1810   11.4030 O.2   255  GLY255     -0.2714
    122  N         15.8270   20.1300   12.2270 N.am  256  ASP256     -0.1971
    123  CA        15.4860   19.5620   13.5290 C.3   256  ASP256      0.1709
    124  C         14.3480   18.5490   13.4360 C.2   256  ASP256      0.2293
    125  O         14.3500   17.5460   14.1490 O.2   256  ASP256     -0.2864
    126  CB        15.1490   20.6740   14.5320 C.3   256  ASP256      0.1436
    127  CG        16.3560   21.5920   14.8200 C.2   256  ASP256      0.3671
    128  OD1       16.1670   22.7900   15.1390 O.co2 256  ASP256     -0.2456
    129  OD2       17.5020   21.1200   14.7130 O.co2 256  ASP256     -0.2456
    130  N         13.7880   16.6370   10.7480 N.3   258  MET258     -0.1245
    131  CA        14.4380   15.4590   10.1860 C.3   258  MET258      0.1570
    132  C         15.2240   14.6810   11.2440 C.2   258  MET258      0.2261
    133  O         15.1390   13.4480   11.3270 O.2   258  MET258     -0.2867
    134  CB        15.3780   15.8710    9.0530 C.3   258  MET258      0.0387
    135  CG        16.2770   14.7360    8.6140 C.3   258  MET258      0.0595
    136  SD        17.2670   15.2120    7.1840 S.3   258  MET258     -0.1393
    137  CE        16.4400   14.3150    5.8880 C.3   258  MET258      0.0692
    138  N         13.4390   12.4210    5.7570 N.3   280  VAL280     -0.1245
    139  CA        13.0390   13.2980    4.6620 C.3   280  VAL280      0.1561
    140  C         11.5440   13.6140    4.7880 C.2   280  VAL280      0.2260
    141  O         11.1320   14.7460    4.5950 O.2   280  VAL280     -0.2867
    142  CB        13.3760   12.6770    3.2790 C.3   280  VAL280      0.0252
    143  CG1       12.6220   13.3880    2.1400 C.3   280  VAL280      0.0019
    144  CG2       14.9100   12.7180    3.0150 C.3   280  VAL280      0.0019
    145  N         11.3230   16.2760    7.6000 N.3   283  GLY283     -0.1210
    146  CA        11.9250   17.5470    7.2420 C.3   283  GLY283      0.1956
    147  C         11.0550   18.2550    6.2090 C.2   283  GLY283      0.2612
    148  O         10.8100   19.4600    6.3050 O.2   283  GLY283     -0.2717
    149  N         10.5820   17.4960    5.2200 N.am  284  SER284     -0.1952
    150  CA         9.7980   18.0800    4.1450 C.3   284  SER284      0.1924
    151  C          8.3930   18.4210    4.6240 C.2   284  SER284      0.2314
    152  O          7.8180   19.4170    4.1940 O.2   284  SER284     -0.2863
    153  CB         9.7940   17.1780    2.9030 C.3   284  SER284      0.2116
    154  OG        11.0950   17.0850    2.3380 O.3   284  SER284     -0.2180
    155  N          8.4280   21.8390    6.0790 N.3   287  THR287     -0.1218
    156  CA         8.4100   22.9180    5.0970 C.3   287  THR287      0.1862
    157  C          6.9940   23.3060    4.6740 C.2   287  THR287      0.2287
    158  O          6.7660   24.4170    4.2090 O.2   287  THR287     -0.2866
    159  CB         9.2640   22.5920    3.8540 C.3   287  THR287      0.1770
    160  OG1        8.6210   21.5810    3.0720 O.3   287  THR287     -0.2211
    161  CG2       10.6440   22.1120    4.2670 C.3   287  THR287      0.0375
@<TRIPOS>BOND
     1    89    90    1
     2    84    83    1
     3    84    85    2
     4    78    77    2
     5    90    91    1
     6    90    93    1
     7    83    86    1
     8    83    82    1
     9    91    92    2
    10    67    66    2
    11    95    93    1
    12    69    68    1
    13    69    70    1
    14    86    87    1
    15    68    65    1
    16    77    82   am
    17    77    76    1
    18    66    65    1
    19    82    88    1
    20    93    94    1
    21    75    81    1
    22    75    76    1
    23    81    80    1
    24    65    64    1
    25    76    79    1
    26    70    64    1
    27    58    57    1
    28    87    88    1
    29    96    97    1
    30    55    54    2
    31    71    72    1
    32    79    80    1
    33    64    62   am
    34    56    57    1
    35    56    53    1
    36    59    57    1
    37    99    98    2
    38    72    73    1
    39    97   100    1
    40    97    98    1
    41    62    63    2
    42    62    61    1
    43    54    53    1
    44    54    60   am
    45   100   101    1
    46    53    52    1
    47    73    74    2
    48    61    60    1
    49    52    48   am
    50   143   142    1
    51   154   153    1
    52   153   150    1
    53   144   142    1
    54    48    49    2
    55    48    47    1
    56   160   159    1
    57   142   139    1
    58   108   106    1
    59   159   161    1
    60   159   156    1
    61   150   151    1
    62   150   149    1
    63    47    46    1
    64    47    50    1
    65   152   151    2
    66   158   157    2
    67   141   140    2
    68   139   140    1
    69   139   138    1
    70   157   156    1
    71    31    32    2
    72    31    30    1
    73   106   107    1
    74   106   103    1
    75   156   155    1
    76   149   147   am
    77   102   103    1
    78    50    51    1
    79    30    33    1
    80    30    29    1
    81   103   104    1
    82    33    34    1
    83    37    38    1
    84   137   136    1
    85    35    34    2
    86    34    36   am
    87   147   148    2
    88   147   146    1
    89    39    38    1
    90    39    40    2
    91    38    41    1
    92   104   105    2
    93   136   135    1
    94   117   114    1
    95   146   145    1
    96    41    42    1
    97    10     9    1
    98   135   134    1
    99   114   115    1
   100   114   113    1
   101    28    27    1
   102    42    43    1
   103    25    26    1
   104    25    24    1
   105   134   131    1
   106    44    43   ar
   107   115   116    2
   108   115   118   am
   109    26    27    1
   110     7     6    1
   111     7     8    1
   112    43    45   ar
   113   113   111   am
   114   118   119    1
   115    22    23    2
   116    22    21    1
   117     9     8    2
   118     9    11    1
   119     1     2    1
   120   119   120    1
   121     6     5    1
   122    21    24    1
   123    21    20    1
   124   131   130    1
   125   131   132    1
   126     5     2    1
   127     4     3    2
   128   111   112    2
   129   111   110    1
   130   109   110    1
   131     2     3    1
   132   132   133    2
   133   120   121    2
   134   120   122   am
   135   122   123    1
   136    19    17   ar
   137    18    17   ar
   138    17    16    1
   139   124   123    1
   140   124   125    2
   141   123   126    1
   142    16    13    1
   143   126   127    1
   144    13    14    1
   145    13    12    1
   146   129   127   ar
   147   127   128   ar
   148    14    15    2
