@<TRIPOS>MOLECULE
tmp/3umtA00.pdb
 121 118 0 0 0
SMALL
GASTEIGER

@<TRIPOS>ATOM
      1  N         53.6940   -2.1700   10.8560 N.3    33  THR33      -0.1218
      2  CA        53.6350   -2.3020    9.3780 C.3    33  THR33       0.1862
      3  C         53.2350   -1.0010    8.7500 C.2    33  THR33       0.2287
      4  O         52.3740   -0.2920    9.2680 O.2    33  THR33      -0.2866
      5  CB        52.6400   -3.3860    8.9540 C.3    33  THR33       0.1770
      6  OG1       53.1380   -4.6640    9.3860 O.3    33  THR33      -0.2211
      7  CG2       52.4860   -3.4300    7.3520 C.3    33  THR33       0.0375
      8  N         51.7240    0.5800    5.1520 N.3    35  HIS35      -0.1241
      9  CA        51.0400    0.2330    3.8800 C.3    35  HIS35       0.1621
     10  C         51.1370    1.4220    2.9330 C.2    35  HIS35       0.2264
     11  O         51.2680    2.5860    3.3500 O.2    35  HIS35      -0.2867
     12  CB        49.5350   -0.0170    4.1340 C.3    35  HIS35       0.0745
     13  CG        49.2640   -1.1010    5.1400 C.ar   35  HIS35       0.0817
     14  ND1       49.2470   -2.4340    4.8010 N.ar   35  HIS35      -0.2268
     15  CD2       49.0480   -1.0530    6.4760 C.ar   35  HIS35       0.1154
     16  CE1       48.9870   -3.1620    5.8760 C.ar   35  HIS35       0.1986
     17  NE2       48.8400   -2.3440    6.9050 N.ar   35  HIS35      -0.2212
     18  N         44.8240   -1.0180   -2.3540 N.3    47  TRP47      -0.1241
     19  CA        46.0610   -1.3000   -1.6020 C.3    47  TRP47       0.1605
     20  C         47.2070   -1.7560   -2.5230 C.2    47  TRP47       0.2264
     21  O         47.0410   -2.6550   -3.3350 O.2    47  TRP47      -0.2867
     22  CB        45.7450   -2.3920   -0.5700 C.3    47  TRP47       0.0550
     23  CG        46.8760   -2.8170    0.3030 C.ar   47  TRP47       0.0003
     24  CD1       47.2850   -2.2310    1.4870 C.ar   47  TRP47       0.0946
     25  CD2       47.6390   -4.0120    0.1550 C.ar   47  TRP47       0.0152
     26  NE1       48.2770   -2.9980    2.0570 N.ar   47  TRP47      -0.2442
     27  CE2       48.5180   -4.0900    1.2690 C.ar   47  TRP47       0.0810
     28  CE3       47.6570   -5.0340   -0.8020 C.ar   47  TRP47       0.0012
     29  CZ2       49.4420   -5.1570    1.4330 C.ar   47  TRP47       0.0191
     30  CZ3       48.5800   -6.1070   -0.6290 C.ar   47  TRP47       0.0001
     31  CH2       49.4480   -6.1420    0.4900 C.ar   47  TRP47       0.0015
     32  N         52.5060   -3.6810    1.6850 N.3    50  GLY50      -0.1210
     33  CA        52.7890   -3.3390    3.0630 C.3    50  GLY50       0.1956
     34  C         54.1710   -3.9110    3.4030 C.2    50  GLY50       0.2612
     35  O         54.6250   -4.8880    2.7910 O.2    50  GLY50      -0.2717
     36  N         54.8360   -3.2940    4.3620 N.am   51  ILE51      -0.1965
     37  CA        56.1980   -3.7010    4.6770 C.3    51  ILE51       0.1727
     38  C         56.3890   -3.6770    6.1850 C.2    51  ILE51       0.2616
     39  O         55.9220   -2.7830    6.8340 O.2    51  ILE51      -0.2715
     40  CB        57.2230   -2.7850    3.9950 C.3    51  ILE51       0.0290
     41  CG1       58.6760   -3.2490    4.3020 C.3    51  ILE51       0.0022
     42  CG2       57.0080   -1.3170    4.4180 C.3    51  ILE51       0.0023
     43  CD1       59.7500   -2.5780    3.4000 C.3    51  ILE51       0.0001
     44  N         57.0780   -4.6900    6.7130 N.am   52  ASN52      -0.1972
     45  CA        57.3740   -4.7540    8.1730 C.3    52  ASN52       0.1688
     46  C         58.7420   -4.1160    8.3560 C.2    52  ASN52       0.2292
     47  O         59.7250   -4.6270    7.8210 O.2    52  ASN52      -0.2864
     48  CB        57.3690   -6.2420    8.5880 C.3    52  ASN52       0.1181
     49  CG        57.7230   -6.4160   10.0560 C.2    52  ASN52       0.2629
     50  OD1       58.2520   -5.4900   10.6520 O.2    52  ASN52      -0.2716
     51  ND2       57.4260   -7.5710   10.6270 N.am   52  ASN52      -0.0877
     52  N         61.9090   -6.2320    9.6400 N.3    55  ASN55      -0.1240
     53  CA        62.5950   -7.3040    8.8970 C.3    55  ASN55       0.1653
     54  C         62.5720   -7.1270    7.3640 C.2    55  ASN55       0.2266
     55  O         63.0320   -8.0110    6.6380 O.2    55  ASN55      -0.2867
     56  CB        62.0590   -8.6920    9.2840 C.3    55  ASN55       0.1155
     57  CG        60.5470   -8.8390    9.0790 C.2    55  ASN55       0.2627
     58  OD1       59.9880   -8.2540    8.1440 O.2    55  ASN55      -0.2716
     59  ND2       59.8860   -9.6310    9.9470 N.am   55  ASN55      -0.0877
     60  N         60.1330   -7.5120    5.4540 N.3    57  GLY57      -0.1210
     61  CA        59.1660   -8.4500    4.9050 C.3    57  GLY57       0.1956
     62  C         58.0840   -7.6540    4.1870 C.2    57  GLY57       0.2613
     63  O         57.5340   -6.7390    4.7530 O.2    57  GLY57      -0.2717
     64  N         57.7890   -7.9770    2.9380 N.am   58  THR58      -0.1938
     65  CA        56.9590   -7.0410    2.1380 C.3    58  THR58       0.2028
     66  C         55.9710   -7.9010    1.4050 C.2    58  THR58       0.2642
     67  O         56.3620   -8.9520    0.8930 O.2    58  THR58      -0.2714
     68  CB        57.8220   -6.2560    1.1520 C.3    58  THR58       0.1808
     69  OG1       58.7730   -5.4700    1.8660 O.3    58  THR58      -0.2208
     70  CG2       57.0070   -5.3270    0.3330 C.3    58  THR58       0.0379
     71  N         54.6960   -7.5030    1.4100 N.am   59  SER59      -0.1949
     72  CA        53.6290   -8.2020    0.6900 C.3    59  SER59       0.1924
     73  C         53.0750   -7.2200   -0.3420 C.2    59  SER59       0.2314
     74  O         52.8830   -6.0700    0.0090 O.2    59  SER59      -0.2863
     75  CB        52.5520   -8.6550    1.6680 C.3    59  SER59       0.2116
     76  OG        51.5080   -9.3330    1.0090 O.3    59  SER59      -0.2180
     77  N         44.4500   -2.1840   12.6470 N.3   105  TRP105     -0.1241
     78  CA        45.2560   -1.9090   11.4490 C.3   105  TRP105      0.1605
     79  C         44.7910   -0.6770   10.6860 C.2   105  TRP105      0.2264
     80  O         43.6560   -0.2140   10.8530 O.2   105  TRP105     -0.2867
     81  CB        45.2140   -3.1050   10.5360 C.3   105  TRP105      0.0550
     82  CG        46.1350   -4.2050   11.0310 C.ar  105  TRP105      0.0003
     83  CD1       46.9040   -4.2060   12.1860 C.ar  105  TRP105      0.0946
     84  CD2       46.3970   -5.4170   10.3740 C.ar  105  TRP105      0.0152
     85  NE1       47.6220   -5.3970   12.2640 N.ar  105  TRP105     -0.2442
     86  CE2       47.3250   -6.1490   11.1630 C.ar  105  TRP105      0.0810
     87  CE3       45.9250   -5.9910    9.1860 C.ar  105  TRP105      0.0012
     88  CZ2       47.7970   -7.4110   10.7760 C.ar  105  TRP105      0.0191
     89  CZ3       46.3940   -7.2410    8.8180 C.ar  105  TRP105      0.0001
     90  CH2       47.3170   -7.9370    9.6110 C.ar  105  TRP105      0.0015
     91  N         40.5470   -6.2010    5.9790 N.3   211  TYR211     -0.1241
     92  CA        41.9300   -6.6410    6.1610 C.3   211  TYR211      0.1605
     93  C         41.9630   -8.0830    6.6980 C.2   211  TYR211      0.2264
     94  O         42.9560   -8.5230    7.3280 O.2   211  TYR211     -0.2867
     95  CB        42.7140   -5.6440    7.0380 C.3   211  TYR211      0.0534
     96  CG        42.0520   -5.3400    8.3820 C.ar  211  TYR211     -0.0201
     97  CD1       42.4740   -5.9700    9.5230 C.ar  211  TYR211     -0.0009
     98  CD2       41.0030   -4.4050    8.4790 C.ar  211  TYR211     -0.0009
     99  CE1       41.8970   -5.6870   10.7480 C.ar  211  TYR211      0.0417
    100  CE2       40.3800   -4.1300    9.6840 C.ar  211  TYR211      0.0417
    101  CZ        40.8410   -4.7630   10.8270 C.ar  211  TYR211      0.1957
    102  OH        40.2340   -4.4970   12.0190 O.3   211  TYR211     -0.2866
    103  N         42.0290  -10.6970    4.5810 N.3   213  SER213     -0.1202
    104  CA        42.7650  -11.5130    3.6230 C.3   213  SER213      0.2020
    105  C         43.5150  -10.5920    2.6670 C.2   213  SER213      0.2619
    106  O         43.0160   -9.5270    2.2930 O.2   213  SER213     -0.2717
    107  CB        41.7800  -12.3650    2.8530 C.3   213  SER213      0.2103
    108  OG        42.3610  -12.9780    1.7270 O.3   213  SER213     -0.2182
    109  N         44.6870  -11.0230    2.2410 N.am  214  SER214     -0.1951
    110  CA        45.4570  -10.2460    1.2890 C.3   214  SER214      0.1924
    111  C         44.9840  -10.4660   -0.1480 C.2   214  SER214      0.2314
    112  O         44.7990  -11.6020   -0.5860 O.2   214  SER214     -0.2863
    113  CB        46.9440  -10.5860    1.4620 C.3   214  SER214      0.2116
    114  OG        47.7160   -9.9210    0.4920 O.3   214  SER214     -0.2180
    115  N         44.3120   -6.4670    1.2090 N.3   216  PRO216     -0.2116
    116  CA        43.2240   -5.5990    1.7210 C.3   216  PRO216      0.1372
    117  C         42.5050   -4.9420    0.5560 C.2   216  PRO216      0.2244
    118  O         43.1710   -4.6070   -0.4180 O.2   216  PRO216     -0.2868
    119  CB        43.9660   -4.5640    2.5840 C.3   216  PRO216      0.0268
    120  CG        45.1860   -5.3760    3.1030 C.3   216  PRO216      0.0207
    121  CD        45.5880   -6.2310    1.8930 C.3   216  PRO216      0.0892
@<TRIPOS>BOND
     1    21    20    2
     2    20    19    1
     3    18    19    1
     4    19    22    1
     5    28    30   ar
     6    28    25   ar
     7    30    31   ar
     8   112   111    2
     9    22    23    1
    10   118   117    2
    11    73    74    2
    12    73    72    1
    13   111   110    1
    14    25    23   ar
    15    25    27   ar
    16    23    24   ar
    17    70    68    1
    18    31    29   ar
    19   114   113    1
    20   117   116    1
    21    72    71    1
    22    72    75    1
    23    67    66    2
    24    76    75    1
    25    68    69    1
    26    68    65    1
    27   115   116    1
    28   115   121    1
    29    27    29   ar
    30    27    26   ar
    31   110   113    1
    32   110   109    1
    33    66    71   am
    34    66    65    1
    35    24    26   ar
    36    32    33    1
    37   116   119    1
    38   108   107    1
    39   121   120    1
    40    65    64    1
    41   109   105   am
    42   106   105    2
    43   119   120    1
    44   105   104    1
    45    35    34    2
    46   107   104    1
    47    10    11    2
    48    10     9    1
    49    64    62   am
    50    33    34    1
    51    43    41    1
    52    34    36   am
    53   104   103    1
    54     9    12    1
    55     9     8    1
    56    40    41    1
    57    40    42    1
    58    40    37    1
    59    12    13    1
    60    62    63    2
    61    62    61    1
    62    36    37    1
    63    37    38    1
    64    14    13   ar
    65    14    16   ar
    66    61    60    1
    67    13    15   ar
    68    16    17   ar
    69    91    92    1
    70    92    93    1
    71    92    95    1
    72    38    44   am
    73    38    39    2
    74    15    17   ar
    75    55    54    2
    76    93    94    2
    77    44    45    1
    78    95    96    1
    79     7     5    1
    80    54    53    1
    81    47    46    2
    82    58    57    2
    83    45    46    1
    84    45    48    1
    85    96    98   ar
    86    96    97   ar
    87    98   100   ar
    88    48    49    1
    89     3     4    2
    90     3     2    1
    91    89    87   ar
    92    89    90   ar
    93    53    56    1
    94    53    52    1
    95     5     2    1
    96     5     6    1
    97    57    56    1
    98    57    59   am
    99    87    84   ar
   100     2     1    1
   101    97    99   ar
   102    90    88   ar
   103   100   101   ar
   104    49    51   am
   105    49    50    2
   106    84    82   ar
   107    84    86   ar
   108    81    82    1
   109    81    78    1
   110    79    80    2
   111    79    78    1
   112    99   101   ar
   113    88    86   ar
   114   101   102    1
   115    82    83   ar
   116    86    85   ar
   117    78    77    1
   118    83    85   ar
