@<TRIPOS>MOLECULE
tmp/3umwA00.pdb
 162 151 0 0 0
SMALL
GASTEIGER

@<TRIPOS>ATOM
      1  N         24.3970  -33.6940   -2.5760 N.3     8  LEU8       -0.1231
      2  CA        23.4420  -34.7710   -2.8980 C.3     8  LEU8        0.1693
      3  C         22.1710  -34.2280   -3.5170 C.2     8  LEU8        0.2593
      4  O         21.5500  -34.8800   -4.3470 O.2     8  LEU8       -0.2718
      5  CB        23.1040  -35.6190   -1.6610 C.3     8  LEU8        0.0284
      6  CG        24.2520  -36.4360   -1.0630 C.3     8  LEU8        0.0019
      7  CD1       23.9090  -36.9270    0.3420 C.3     8  LEU8        0.0001
      8  CD2       24.5980  -37.6280   -1.9780 C.3     8  LEU8        0.0001
      9  N         21.7560  -33.0460   -3.0930 N.am    9  GLY9       -0.1942
     10  CA        20.6100  -32.4070   -3.7020 C.3     9  GLY9        0.2014
     11  C         20.4100  -31.0420   -3.1050 C.2     9  GLY9        0.2640
     12  O         20.9740  -30.7390   -2.0540 O.2     9  GLY9       -0.2714
     13  N         19.6100  -30.2180   -3.7660 N.am   10  SER10      -0.1935
     14  CA        19.2590  -28.9230   -3.2120 C.3    10  SER10       0.2055
     15  C         17.9320  -28.4310   -3.7490 C.2    10  SER10       0.2643
     16  O         17.4010  -28.9680   -4.7260 O.2    10  SER10      -0.2714
     17  CB        20.3480  -27.8830   -3.5130 C.3    10  SER10       0.2130
     18  OG        20.4450  -27.6560   -4.9070 O.3    10  SER10      -0.2179
     19  N         17.4140  -27.3900   -3.1060 N.am   11  GLY11      -0.1954
     20  CA        16.2240  -26.6950   -3.5650 C.3    11  GLY11       0.1869
     21  C         16.1570  -25.3550   -2.8610 C.2    11  GLY11       0.2309
     22  O         17.1690  -24.8730   -2.3270 O.2    11  GLY11      -0.2863
     23  N         14.5320  -24.7970   -0.0850 N.3    13  PHE13      -0.1241
     24  CA        14.7660  -25.0760    1.3420 C.3    13  PHE13       0.1605
     25  C         16.2390  -24.9200    1.7700 C.2    13  PHE13       0.2264
     26  O         16.5190  -24.5240    2.9120 O.2    13  PHE13      -0.2867
     27  CB        14.2850  -26.5040    1.7040 C.3    13  PHE13       0.0534
     28  CG        15.2330  -27.5940    1.2490 C.ar   13  PHE13      -0.0203
     29  CD1       16.2670  -28.0230    2.0760 C.ar   13  PHE13      -0.0042
     30  CD2       15.1100  -28.1570   -0.0230 C.ar   13  PHE13      -0.0042
     31  CE1       17.1730  -29.0020    1.6460 C.ar   13  PHE13      -0.0003
     32  CE2       16.0000  -29.1510   -0.4580 C.ar   13  PHE13      -0.0003
     33  CZ        17.0320  -29.5700    0.3720 C.ar   13  PHE13      -0.0000
     34  N         21.8270  -30.3830    0.6240 N.3    16  VAL16      -0.1245
     35  CA        22.2440  -31.5500    1.3780 C.3    16  VAL16       0.1561
     36  C         23.5340  -32.1180    0.7900 C.2    16  VAL16       0.2260
     37  O         23.6000  -32.3300   -0.4150 O.2    16  VAL16      -0.2867
     38  CB        21.1540  -32.6650    1.3380 C.3    16  VAL16       0.0252
     39  CG1       21.6020  -33.8610    2.1440 C.3    16  VAL16       0.0019
     40  CG2       19.8060  -32.1350    1.8380 C.3    16  VAL16       0.0019
     41  N         24.8000  -37.3670    6.3630 N.3    29  ALA29      -0.1245
     42  CA        24.3520  -36.3560    5.4250 C.3    29  ALA29       0.1562
     43  C         24.2580  -35.0680    6.1970 C.2    29  ALA29       0.2260
     44  O         23.8830  -35.0640    7.3780 O.2    29  ALA29      -0.2867
     45  CB        22.9920  -36.7230    4.7920 C.3    29  ALA29       0.0290
     46  N         22.6120  -31.4270    6.1480 N.3    31  LYS31      -0.1245
     47  CA        21.5110  -30.7230    5.5260 C.3    31  LYS31       0.1561
     48  C         21.4350  -29.2780    6.0180 C.2    31  LYS31       0.2260
     49  O         21.2220  -29.0360    7.2160 O.2    31  LYS31      -0.2867
     50  CB        20.1770  -31.4680    5.7880 C.3    31  LYS31       0.0271
     51  CG        18.9400  -30.7450    5.2260 C.3    31  LYS31       0.0035
     52  CD        17.6770  -31.6210    5.3170 C.3    31  LYS31       0.0206
     53  CE        16.4470  -30.8970    4.7700 C.3    31  LYS31       0.1093
     54  NZ        15.2110  -31.7600    4.8860 N.3    31  LYS31      -0.1314
     55  N         11.2160  -29.4010   11.4560 N.3    49  GLU49      -0.1245
     56  CA        11.9040  -30.6420   11.1010 C.3    49  GLU49       0.1567
     57  C         12.7400  -31.1830   12.2530 C.2    49  GLU49       0.2260
     58  O         12.7720  -32.3820   12.4500 O.2    49  GLU49      -0.2867
     59  CB        12.7660  -30.5200    9.8170 C.3    49  GLU49       0.0388
     60  CG        13.6270  -31.7720    9.5540 C.3    49  GLU49       0.1160
     61  CD        14.1890  -31.8970    8.1280 C.2    49  GLU49       0.3649
     62  OE1       14.5110  -30.8650    7.5000 O.co2  49  GLU49      -0.2457
     63  OE2       14.3160  -33.0430    7.6420 O.co2  49  GLU49      -0.2457
     64  N         15.1930  -42.0680    9.1000 N.3    64  ILE64      -0.1245
     65  CA        16.5880  -41.6010    9.1800 C.3    64  ILE64       0.1561
     66  C         16.7420  -40.8410   10.5120 C.2    64  ILE64       0.2260
     67  O         15.8820  -40.0230   10.8910 O.2    64  ILE64      -0.2867
     68  CB        17.0210  -40.7560    7.9150 C.3    64  ILE64       0.0252
     69  CG1       17.4440  -41.6650    6.7490 C.3    64  ILE64       0.0019
     70  CG2       18.1930  -39.8260    8.1700 C.3    64  ILE64       0.0019
     71  CD1       18.7530  -42.4350    6.9240 C.3    64  ILE64       0.0001
     72  N         22.5730  -36.0350    9.6650 N.3    80  LEU80      -0.1231
     73  CA        21.6350  -37.1320    9.5370 C.3    80  LEU80       0.1693
     74  C         22.3830  -38.4090    9.2000 C.2    80  LEU80       0.2592
     75  O         23.4560  -38.3730    8.5820 O.2    80  LEU80      -0.2718
     76  CB        20.5660  -36.8080    8.4660 C.3    80  LEU80       0.0284
     77  CG        19.7860  -35.5030    8.6490 C.3    80  LEU80       0.0019
     78  CD1       19.3960  -34.8410    7.3100 C.3    80  LEU80       0.0001
     79  CD2       18.5440  -35.7040    9.5160 C.3    80  LEU80       0.0001
     80  N         21.8180  -39.5350    9.6250 N.am   81  GLU81      -0.1966
     81  CA        22.3240  -40.8520    9.2870 C.3    81  GLU81       0.1733
     82  C         22.4470  -40.9970    7.7690 C.2    81  GLU81       0.2616
     83  O         21.6470  -40.4210    7.0100 O.2    81  GLU81      -0.2715
     84  CB        21.3850  -41.9160    9.8870 C.3    81  GLU81       0.0429
     85  CG        21.4650  -43.3000    9.2620 C.3    81  GLU81       0.1163
     86  CD        20.3550  -44.2450    9.7450 C.2    81  GLU81       0.3649
     87  OE1       19.3980  -43.7770   10.4410 O.co2  81  GLU81      -0.2457
     88  OE2       20.4640  -45.4610    9.4170 O.co2  81  GLU81      -0.2457
     89  N         23.4600  -41.7290    7.3200 N.am   82  ARG82      -0.1964
     90  CA        23.6020  -42.0140    5.8870 C.3    82  ARG82       0.1714
     91  C         24.0200  -43.4610    5.6720 C.2    82  ARG82       0.2458
     92  O         25.1570  -43.8230    5.9880 O.2    82  ARG82      -0.2730
     93  CB        24.6120  -41.0600    5.2140 C.3    82  ARG82       0.0347
     94  CG        24.9730  -41.4420    3.7740 C.3    82  ARG82       0.0492
     95  CD        25.7470  -40.3380    3.0440 C.3    82  ARG82       0.2205
     96  NE        27.1150  -40.1530    3.5520 N.pl3  82  ARG82      -0.0865
     97  CZ        28.1770  -40.8510    3.1370 C.cat  82  ARG82       0.5346
     98  NH1       28.0410  -41.8100    2.2230 N.pl3  82  ARG82       0.1354
     99  NH2       29.3790  -40.5940    3.6420 N.pl3  82  ARG82       0.1354
    100  N         23.0990  -44.2940    5.1480 N.am   83  PRO83      -0.2727
    101  CA        23.4800  -45.6590    4.8190 C.3    83  PRO83       0.1402
    102  C         24.3900  -45.6240    3.5980 C.2    83  PRO83       0.2269
    103  O         24.3210  -44.7000    2.7890 O.2    83  PRO83      -0.2865
    104  CB        22.1420  -46.3420    4.4570 C.3    83  PRO83       0.0296
    105  CG        21.0570  -45.4180    4.9760 C.3    83  PRO83       0.0237
    106  CD        21.6590  -44.0400    4.8910 C.3    83  PRO83       0.0939
    107  N         23.6010  -46.6710   -0.7090 N.3    86  VAL86      -0.1245
    108  CA        22.2010  -46.2720   -0.5950 C.3    86  VAL86       0.1561
    109  C         21.6820  -45.8560   -1.9730 C.2    86  VAL86       0.2260
    110  O         22.4620  -45.3710   -2.8130 O.2    86  VAL86      -0.2867
    111  CB        22.0380  -45.1110    0.4370 C.3    86  VAL86       0.0252
    112  CG1       22.5380  -43.8000   -0.1230 C.3    86  VAL86       0.0019
    113  CG2       20.5980  -44.9680    0.8830 C.3    86  VAL86       0.0019
    114  N         17.7880  -43.9760   -3.4370 N.3    88  ASP88      -0.1239
    115  CA        16.4030  -43.5840   -3.1270 C.3    88  ASP88       0.1674
    116  C         15.4460  -44.3900   -3.9870 C.2    88  ASP88       0.2266
    117  O         15.8570  -44.9600   -5.0130 O.2    88  ASP88      -0.2867
    118  CB        16.1680  -42.0650   -3.1820 C.3    88  ASP88       0.1410
    119  CG        16.0050  -41.5040   -4.5990 C.2    88  ASP88       0.3668
    120  OD1       16.1060  -40.2740   -4.7150 O.co2  88  ASP88      -0.2456
    121  OD2       15.7620  -42.2300   -5.5840 O.co2  88  ASP88      -0.2456
    122  N         10.9010  -40.4180   -3.7210 N.3   131  GLU131     -0.1231
    123  CA        12.1380  -39.6340   -3.5320 C.3   131  GLU131      0.1699
    124  C         12.5420  -39.4830   -2.0640 C.2   131  GLU131      0.2592
    125  O         13.7110  -39.2510   -1.7910 O.2   131  GLU131     -0.2718
    126  CB        12.0010  -38.2260   -4.1050 C.3   131  GLU131      0.0402
    127  CG        11.8210  -38.1690   -5.6090 C.3   131  GLU131      0.1161
    128  CD        11.4010  -36.7740   -6.0370 C.2   131  GLU131      0.3649
    129  OE1       12.2710  -35.8880   -6.0340 O.co2 131  GLU131     -0.2457
    130  OE2       10.2040  -36.5560   -6.3440 O.co2 131  GLU131     -0.2457
    131  N         11.5810  -39.6160   -1.1420 N.am  132  ASN132     -0.1974
    132  CA        11.8480  -39.4690    0.3030 C.3   132  ASN132      0.1688
    133  C         12.0040  -40.7800    1.0280 C.2   132  ASN132      0.2292
    134  O         11.8490  -40.8390    2.2540 O.2   132  ASN132     -0.2864
    135  CB        10.7580  -38.6210    0.9550 C.3   132  ASN132      0.1181
    136  CG        10.8400  -37.1780    0.5070 C.2   132  ASN132      0.2629
    137  OD1       11.9090  -36.7500    0.1000 O.2   132  ASN132     -0.2716
    138  ND2        9.7350  -36.4320    0.5620 N.am  132  ASN132     -0.0877
    139  N         14.7960  -43.9640    1.3100 N.3   134  LEU134     -0.1245
    140  CA        16.1180  -44.4870    1.0010 C.3   134  LEU134      0.1561
    141  C         16.1320  -45.9630    1.2280 C.2   134  LEU134      0.2260
    142  O         15.5030  -46.4600    2.1690 O.2   134  LEU134     -0.2867
    143  CB        17.1970  -43.8240    1.8450 C.3   134  LEU134      0.0270
    144  CG        17.3260  -42.3050    1.7130 C.3   134  LEU134      0.0019
    145  CD1       18.4040  -41.8570    2.6840 C.3   134  LEU134      0.0001
    146  CD2       17.6290  -41.8220    0.2610 C.3   134  LEU134      0.0001
    147  N         12.9690  -40.1240    4.8180 N.3   145  ILE145     -0.1231
    148  CA        13.7320  -38.8920    5.0050 C.3   145  ILE145      0.1692
    149  C         12.8650  -37.6810    4.7260 C.2   145  ILE145      0.2592
    150  O         11.7520  -37.8020    4.1860 O.2   145  ILE145     -0.2718
    151  CB        14.9860  -38.8230    4.0870 C.3   145  ILE145      0.0266
    152  CG1       14.5780  -38.9590    2.5980 C.3   145  ILE145      0.0019
    153  CG2       15.9580  -39.9180    4.4690 C.3   145  ILE145      0.0020
    154  CD1       15.6390  -38.4230    1.5920 C.3   145  ILE145      0.0001
    155  N         13.4110  -36.5250    5.0990 N.am  146  ASP146     -0.1974
    156  CA        12.8700  -35.2080    4.8020 C.3   146  ASP146      0.1709
    157  C         11.5460  -34.9050    5.5050 C.2   146  ASP146      0.2293
    158  O         10.4610  -34.9740    4.9070 O.2   146  ASP146     -0.2864
    159  CB        12.7970  -34.9280    3.3000 C.3   146  ASP146      0.1436
    160  CG        12.4640  -33.4610    3.0040 C.2   146  ASP146      0.3671
    161  OD1       12.3790  -32.6520    3.9520 O.co2 146  ASP146     -0.2456
    162  OD2       12.2670  -33.1220    1.8270 O.co2 146  ASP146     -0.2456
@<TRIPOS>BOND
     1   130   128   ar
     2   128   129   ar
     3   128   127    1
     4   127   126    1
     5   121   119   ar
     6   117   116    2
     7    18    17    1
     8    16    15    2
     9   120   119   ar
    10   119   118    1
    11     4     3    2
    12   126   123    1
    13   116   115    1
    14    13    14    1
    15    13    11   am
    16    15    14    1
    17    15    19   am
    18   122   123    1
    19    10    11    1
    20    10     9    1
    21    20    19    1
    22    20    21    1
    23   123   124    1
    24     3     9   am
    25     3     2    1
    26    17    14    1
    27   114   115    1
    28   118   115    1
    29    11    12    2
    30     2     1    1
    31     2     5    1
    32    21    22    2
    33   110   109    2
    34   124   125    2
    35   124   131   am
    36     8     6    1
    37   109   108    1
    38     5     6    1
    39   131   132    1
    40     6     7    1
    41   107   108    1
    42   108   111    1
    43    32    30   ar
    44    32    33   ar
    45    37    36    2
    46   112   111    1
    47    23    24    1
    48    30    28   ar
    49   137   136    2
    50   146   144    1
    51   132   135    1
    52   132   133    1
    53    33    31   ar
    54   111   113    1
    55   136   138   am
    56   136   135    1
    57    34    35    1
    58    36    35    1
    59   140   141    1
    60   140   139    1
    61   140   143    1
    62   133   134    2
    63   141   142    2
    64    28    27    1
    65    28    29   ar
    66    38    35    1
    67    38    40    1
    68    38    39    1
    69    24    27    1
    70    24    25    1
    71   154   152    1
    72    31    29   ar
    73   144   143    1
    74   144   145    1
    75    25    26    2
    76   162   160   ar
    77    98    97    1
    78   152   151    1
    79   103   102    2
    80   160   159    1
    81   160   161   ar
    82    95    96    1
    83    95    94    1
    84    97    96    2
    85    97    99    1
    86   159   156    1
    87   102   101    1
    88    94    93    1
    89   151   153    1
    90   151   148    1
    91   150   149    2
    92   104   101    1
    93   104   105    1
    94   149   148    1
    95   149   155   am
    96    53    54    1
    97    53    52    1
    98    45    42    1
    99   156   155    1
   100   156   157    1
   101   147   148    1
   102   101   100    1
   103   106   105    1
   104   106   100    1
   105   158   157    2
   106   100    91   am
   107    93    90    1
   108    51    52    1
   109    51    50    1
   110    42    43    1
   111    42    41    1
   112    47    50    1
   113    47    48    1
   114    47    46    1
   115    91    90    1
   116    91    92    2
   117    90    89    1
   118    48    49    2
   119    43    44    2
   120    69    71    1
   121    69    68    1
   122    83    82    2
   123    78    77    1
   124    89    82   am
   125    62    61   ar
   126    63    61   ar
   127    82    81    1
   128    68    70    1
   129    68    65    1
   130    61    60    1
   131    76    77    1
   132    76    73    1
   133    75    74    2
   134    77    79    1
   135    64    65    1
   136    65    66    1
   137    74    73    1
   138    74    80   am
   139    85    86    1
   140    85    84    1
   141    81    80    1
   142    81    84    1
   143    88    86   ar
   144    73    72    1
   145    60    59    1
   146    86    87   ar
   147    59    56    1
   148    66    67    2
   149    56    55    1
   150    56    57    1
   151    57    58    2
