@<TRIPOS>MOLECULE
tmp/3umxA00.pdb
 168 158 0 0 0
SMALL
GASTEIGER

@<TRIPOS>ATOM
      1  N         16.7800   38.4790   -3.5780 N.3     8  LEU8       -0.1231
      2  CA        18.1950   38.3000   -3.9380 C.3     8  LEU8        0.1693
      3  C         18.4440   36.9720   -4.6040 C.2     8  LEU8        0.2593
      4  O         19.3750   36.8620   -5.3700 O.2     8  LEU8       -0.2718
      5  CB        19.1310   38.4650   -2.7420 C.3     8  LEU8        0.0284
      6  CG        19.2480   39.7970   -1.9990 C.3     8  LEU8        0.0019
      7  CD1       20.0990   39.5910   -0.7730 C.3     8  LEU8        0.0001
      8  CD2       19.8790   40.8740   -2.8440 C.3     8  LEU8        0.0001
      9  N         17.6260   35.9680   -4.3070 N.am    9  GLY9       -0.1942
     10  CA        17.6990   34.6720   -4.9780 C.3     9  GLY9        0.2014
     11  C         16.7260   33.6480   -4.3960 C.2     9  GLY9        0.2639
     12  O         16.1160   33.8710   -3.3370 O.2     9  GLY9       -0.2714
     13  N         16.5930   32.5090   -5.0670 N.am   10  SER10      -0.1949
     14  CA        15.6740   31.5080   -4.6070 C.3    10  SER10       0.1924
     15  C         15.9670   30.1010   -5.1360 C.2    10  SER10       0.2314
     16  O         16.4990   29.9350   -6.2330 O.2    10  SER10      -0.2863
     17  CB        14.2440   31.9240   -4.9810 C.3    10  SER10       0.2116
     18  OG        13.7760   31.1880   -6.1010 O.3    10  SER10      -0.2180
     19  N         14.4690   25.1750   -1.4410 N.3    13  PHE13      -0.1241
     20  CA        14.5460   25.3940    0.0290 C.3    13  PHE13       0.1605
     21  C         13.7660   26.7010    0.4590 C.2    13  PHE13       0.2264
     22  O         12.8770   26.6520    1.3580 O.2    13  PHE13      -0.2867
     23  CB        16.0310   25.5080    0.4500 C.3    13  PHE13       0.0534
     24  CG        16.7880   26.6020   -0.2940 C.ar   13  PHE13      -0.0203
     25  CD1       16.7940   27.9100    0.1880 C.ar   13  PHE13      -0.0042
     26  CD2       17.4450   26.3160   -1.4960 C.ar   13  PHE13      -0.0042
     27  CE1       17.4470   28.9120   -0.4960 C.ar   13  PHE13      -0.0003
     28  CE2       18.1190   27.3200   -2.1950 C.ar   13  PHE13      -0.0003
     29  CZ        18.1110   28.6240   -1.6960 C.ar   13  PHE13      -0.0000
     30  N         15.4770   34.5570   -0.6000 N.3    16  VAL16      -0.1245
     31  CA        16.2460   35.4250    0.2830 C.3    16  VAL16       0.1561
     32  C         16.1270   36.8530   -0.1920 C.2    16  VAL16       0.2260
     33  O         16.4400   37.1070   -1.3480 O.2    16  VAL16      -0.2867
     34  CB        17.7740   35.0850    0.1860 C.3    16  VAL16       0.0252
     35  CG1       18.6120   35.9040    1.2050 C.3    16  VAL16       0.0019
     36  CG2       18.0150   33.6020    0.3030 C.3    16  VAL16       0.0019
     37  N         19.9080   40.2390    5.3430 N.3    27  ALA27      -0.1245
     38  CA        19.3630   39.4020    4.2980 C.3    27  ALA27       0.1562
     39  C         18.3410   38.5770    5.0370 C.2    27  ALA27       0.2260
     40  O         18.5930   38.1580    6.1480 O.2    27  ALA27      -0.2867
     41  CB        20.4380   38.5240    3.6700 C.3    27  ALA27       0.0290
     42  N         15.8960   35.3930    5.0290 N.3    29  LYS29      -0.1245
     43  CA        15.8680   34.1390    4.3260 C.3    29  LYS29       0.1561
     44  C         14.6440   33.3770    4.7310 C.2    29  LYS29       0.2260
     45  O         14.4180   33.1680    5.9090 O.2    29  LYS29      -0.2867
     46  CB        17.1400   33.3560    4.6550 C.3    29  LYS29       0.0271
     47  CG        17.1740   31.9550    4.0580 C.3    29  LYS29       0.0035
     48  CD        18.5120   31.2950    4.3410 C.3    29  LYS29       0.0206
     49  CE        18.6190   29.9360    3.6450 C.3    29  LYS29       0.1093
     50  NZ        19.9560   29.2710    3.7730 N.3    29  LYS29      -0.1314
     51  N         28.8570   34.0670    7.9030 N.3    61  ILE61      -0.1245
     52  CA        27.7190   34.9400    8.0030 C.3    61  ILE61       0.1561
     53  C         26.9650   34.8200    9.3410 C.2    61  ILE61       0.2260
     54  O         26.5930   33.7030    9.7650 O.2    61  ILE61      -0.2867
     55  CB        26.7730   34.5460    6.9020 C.3    61  ILE61       0.0252
     56  CG1       26.1590   35.7890    6.2800 C.3    61  ILE61       0.0019
     57  CG2       25.8000   33.3040    7.3740 C.3    61  ILE61       0.0019
     58  CD1       27.2250   36.5700    5.4950 C.3    61  ILE61       0.0001
     59  N         19.9130   37.6000    8.5380 N.3    77  LEU77      -0.1231
     60  CA        21.3440   37.3260    8.3980 C.3    77  LEU77       0.1693
     61  C         22.0630   38.5970    8.0880 C.2    77  LEU77       0.2592
     62  O         21.4790   39.5340    7.5490 O.2    77  LEU77      -0.2718
     63  CB        21.6310   36.3010    7.2910 C.3    77  LEU77       0.0284
     64  CG        20.9280   34.9670    7.4550 C.3    77  LEU77       0.0019
     65  CD1       20.8140   34.3680    6.1100 C.3    77  LEU77       0.0001
     66  CD2       21.6750   34.0300    8.3530 C.3    77  LEU77       0.0001
     67  N         23.3360   38.6190    8.4420 N.am   78  GLU78      -0.1966
     68  CA        24.2010   39.7400    8.1360 C.3    78  GLU78       0.1733
     69  C         24.1920   39.9460    6.6340 C.2    78  GLU78       0.2616
     70  O         24.0340   38.9630    5.8790 O.2    78  GLU78      -0.2715
     71  CB        25.5720   39.3910    8.6930 C.3    78  GLU78       0.0429
     72  CG        26.7610   40.1630    8.2190 C.3    78  GLU78       0.1163
     73  CD        28.0610   39.6710    8.8970 C.2    78  GLU78       0.3649
     74  OE1       27.9870   38.7630    9.8230 O.co2  78  GLU78      -0.2457
     75  OE2       29.1430   40.2210    8.4910 O.co2  78  GLU78      -0.2457
     76  N         24.2640   41.1990    6.1870 N.am   79  ARG79      -0.1964
     77  CA        24.4610   41.4990    4.7650 C.3    79  ARG79       0.1714
     78  C         25.5240   42.5620    4.6120 C.2    79  ARG79       0.2458
     79  O         25.3280   43.7110    5.0430 O.2    79  ARG79      -0.2730
     80  CB        23.1900   41.9760    4.0840 C.3    79  ARG79       0.0347
     81  CG        23.3780   42.3300    2.6310 C.3    79  ARG79       0.0492
     82  CD        22.0170   42.4050    1.8850 C.3    79  ARG79       0.2205
     83  NE        21.1380   43.4610    2.4220 N.pl3  79  ARG79      -0.0865
     84  CZ        21.2750   44.7660    2.1460 C.cat  79  ARG79       0.5346
     85  NH1       22.2390   45.1840    1.3240 N.pl3  79  ARG79       0.1354
     86  NH2       20.4660   45.6600    2.7020 N.pl3  79  ARG79       0.1354
     87  N         26.6660   42.1920    4.0280 N.am   80  PRO80      -0.2727
     88  CA        27.6980   43.2260    3.7420 C.3    80  PRO80       0.1402
     89  C         27.2990   43.9540    2.4640 C.2    80  PRO80       0.2269
     90  O         26.4520   43.4650    1.7000 O.2    80  PRO80      -0.2865
     91  CB        29.0010   42.4260    3.5520 C.3    80  PRO80       0.0296
     92  CG        28.6020   40.9080    3.6780 C.3    80  PRO80       0.0237
     93  CD        27.0880   40.8160    3.6900 C.3    80  PRO80       0.0939
     94  N         28.6320   43.6160   -1.8160 N.3    83  VAL83      -0.1245
     95  CA        28.9750   42.2090   -1.7240 C.3    83  VAL83       0.1561
     96  C         28.8430   41.5570   -3.1160 C.2    83  VAL83       0.2260
     97  O         28.0740   42.0220   -3.9410 O.2    83  VAL83      -0.2867
     98  CB        27.9880   41.5180   -0.7640 C.3    83  VAL83       0.0252
     99  CG1       26.6130   41.4590   -1.3980 C.3    83  VAL83       0.0019
    100  CG2       28.4230   40.1160   -0.4760 C.3    83  VAL83       0.0019
    101  N         29.0690   37.2480   -4.6390 N.3    85  ASP85      -0.1239
    102  CA        29.4380   35.9050   -4.2790 C.3    85  ASP85       0.1674
    103  C         30.5850   35.5010   -5.1700 C.2    85  ASP85       0.2266
    104  O         30.7980   36.1300   -6.2200 O.2    85  ASP85      -0.2867
    105  CB        28.2740   34.9680   -4.4040 C.3    85  ASP85       0.1410
    106  CG        27.9090   34.6900   -5.8150 C.2    85  ASP85       0.3668
    107  OD1       26.8410   35.1720   -6.2470 O.co2  85  ASP85      -0.2456
    108  OD2       28.6680   33.9820   -6.5110 O.co2  85  ASP85      -0.2456
    109  N         31.1120   32.8320   -7.0060 N.3    87  PHE87      -0.1227
    110  CA        30.7490   32.2690   -8.3250 C.3    87  PHE87       0.1736
    111  C         30.6420   33.4050   -9.3590 C.2    87  PHE87       0.2595
    112  O         31.2810   33.4140  -10.3830 O.2    87  PHE87      -0.2718
    113  CB        29.4390   31.4710   -8.2690 C.3    87  PHE87       0.0547
    114  CG        28.9930   31.0010   -9.5970 C.ar   87  PHE87      -0.0202
    115  CD1       29.4950   29.8020  -10.1340 C.ar   87  PHE87      -0.0042
    116  CD2       28.0900   31.7570  -10.3570 C.ar   87  PHE87      -0.0042
    117  CE1       29.0850   29.3480  -11.4210 C.ar   87  PHE87      -0.0003
    118  CE2       27.6740   31.3220  -11.6470 C.ar   87  PHE87      -0.0003
    119  CZ        28.1800   30.1070  -12.1750 C.ar   87  PHE87      -0.0000
    120  N         29.8540   34.3980   -9.0390 N.am   88  ASP88      -0.1974
    121  CA        29.8570   35.6050   -9.8060 C.3    88  ASP88       0.1709
    122  C         31.1750   36.2470  -10.0820 C.2    88  ASP88       0.2293
    123  O         31.4090   36.7460  -11.1910 O.2    88  ASP88      -0.2864
    124  CB        29.0880   36.6310   -9.0630 C.3    88  ASP88       0.1436
    125  CG        27.8060   36.8380   -9.6560 C.2    88  ASP88       0.3671
    126  OD1       27.6510   38.0070  -10.1370 O.co2  88  ASP88      -0.2456
    127  OD2       27.0390   35.8190   -9.7050 O.co2  88  ASP88      -0.2456
    128  N         29.6820   29.4680   -4.8680 N.3   128  GLU128     -0.1231
    129  CA        28.3660   30.1240   -4.6910 C.3   128  GLU128      0.1699
    130  C         28.0060   30.3600   -3.2560 C.2   128  GLU128      0.2592
    131  O         27.1880   31.2550   -2.9580 O.2   128  GLU128     -0.2718
    132  CB        27.2400   29.2810   -5.2270 C.3   128  GLU128      0.0402
    133  CG        27.3220   28.9000   -6.6930 C.3   128  GLU128      0.1161
    134  CD        26.1020   28.0730   -7.1630 C.2   128  GLU128      0.3649
    135  OE1       24.9460   28.6080   -7.0160 O.co2 128  GLU128     -0.2457
    136  OE2       26.3230   26.9160   -7.6500 O.co2 128  GLU128     -0.2457
    137  N         28.5520   29.5480   -2.3510 N.am  129  ASN129     -0.1974
    138  CA        28.2640   29.7260   -0.9230 C.3   129  ASN129      0.1688
    139  C         29.3000   30.5630   -0.2530 C.2   129  ASN129      0.2292
    140  O         29.4370   30.4710    0.9620 O.2   129  ASN129     -0.2864
    141  CB        28.1240   28.3790   -0.2010 C.3   129  ASN129      0.1181
    142  CG        26.8710   27.6370   -0.6390 C.2   129  ASN129      0.2629
    143  OD1       25.9420   28.2870   -1.1140 O.2   129  ASN129     -0.2716
    144  ND2       26.8300   26.3010   -0.5130 N.am  129  ASN129     -0.0877
    145  N         30.6090   34.6370    0.1070 N.3   131  LEU131     -0.1245
    146  CA        30.4260   36.0300   -0.1990 C.3   131  LEU131      0.1561
    147  C         31.6780   36.8230    0.0240 C.2   131  LEU131      0.2260
    148  O         32.4200   36.5610    0.9540 O.2   131  LEU131     -0.2867
    149  CB        29.3640   36.6300    0.6930 C.3   131  LEU131      0.0270
    150  CG        27.9800   36.0500    0.5010 C.3   131  LEU131      0.0019
    151  CD1       27.0570   36.9160    1.3820 C.3   131  LEU131      0.0001
    152  CD2       27.5050   35.9440   -0.9770 C.3   131  LEU131      0.0001
    153  N         28.2080   31.1310    3.6410 N.3   142  ILE142     -0.1231
    154  CA        26.7570   31.1900    3.7860 C.3   142  ILE142      0.1692
    155  C         26.1690   29.8080    3.5320 C.2   142  ILE142      0.2592
    156  O         26.8590   28.9000    3.0580 O.2   142  ILE142     -0.2718
    157  CB        26.1080   32.2380    2.8290 C.3   142  ILE142      0.0266
    158  CG1       26.5310   31.9490    1.3740 C.3   142  ILE142      0.0019
    159  CG2       26.4770   33.6630    3.2540 C.3   142  ILE142      0.0020
    160  CD1       25.6790   32.5310    0.2730 C.3   142  ILE142      0.0001
    161  N         24.8920   29.6830    3.8780 N.am  143  ASP143     -0.1974
    162  CA        24.0370   28.5590    3.5950 C.3   143  ASP143      0.1709
    163  C         24.4660   27.2940    4.3160 C.2   143  ASP143      0.2293
    164  O         25.1360   26.4250    3.7440 O.2   143  ASP143     -0.2864
    165  CB        23.8040   28.3530    2.0870 C.3   143  ASP143      0.1436
    166  CG        22.8760   27.1560    1.7930 C.2   143  ASP143      0.3671
    167  OD1       22.0600   26.7670    2.6790 O.co2 143  ASP143     -0.2456
    168  OD2       22.9770   26.5580    0.6910 O.co2 143  ASP143     -0.2456
@<TRIPOS>BOND
     1   119   118   ar
     2   119   117   ar
     3   118   116   ar
     4   117   115   ar
     5   123   122    2
     6   112   111    2
     7   116   114   ar
     8   126   125   ar
     9   115   114   ar
    10   122   121    1
    11   121   124    1
    12   121   120    1
    13   127   125   ar
    14   125   124    1
    15   114   113    1
    16   111   120   am
    17   111   110    1
    18   110   113    1
    19   110   109    1
    20   136   134   ar
    21   134   135   ar
    22   134   133    1
    23   133   132    1
    24   108   106   ar
    25   107   106   ar
    26    16    15    2
    27   104   103    2
    28    18    17    1
    29   106   105    1
    30     4     3    2
    31   132   129    1
    32   103   102    1
    33    15    14    1
    34    13    14    1
    35    13    11   am
    36    17    14    1
    37    10    11    1
    38    10     9    1
    39   128   129    1
    40   129   130    1
    41   101   102    1
    42     3     9   am
    43     3     2    1
    44   105   102    1
    45    11    12    2
    46    97    96    2
    47     2     1    1
    48     2     5    1
    49   130   131    2
    50   130   137   am
    51    96    95    1
    52     8     6    1
    53     5     6    1
    54   137   138    1
    55    28    29   ar
    56    28    26   ar
    57     6     7    1
    58    94    95    1
    59    95    98    1
    60    29    27   ar
    61    26    24   ar
    62    19    20    1
    63    99    98    1
    64    33    32    2
    65   143   142    2
    66   152   150    1
    67   138   139    1
    68   138   141    1
    69    98   100    1
    70   142   144   am
    71   142   141    1
    72    30    31    1
    73    27    25   ar
    74    24    25   ar
    75    24    23    1
    76   139   140    2
    77   146   147    1
    78   146   145    1
    79   146   149    1
    80    32    31    1
    81   147   148    2
    82    20    23    1
    83    20    21    1
    84    34    31    1
    85    34    36    1
    86    34    35    1
    87   160   158    1
    88    21    22    2
    89   150   149    1
    90   150   151    1
    91   168   166   ar
    92    85    84    1
    93   158   157    1
    94    90    89    2
    95   166   165    1
    96   166   167   ar
    97    82    83    1
    98    82    81    1
    99   165   162    1
   100    84    83    2
   101    84    86    1
   102    89    88    1
   103    81    80    1
   104   157   159    1
   105   157   154    1
   106   156   155    2
   107   155   154    1
   108   155   161   am
   109    91    92    1
   110    91    88    1
   111   162   161    1
   112   162   163    1
   113   153   154    1
   114    49    50    1
   115    49    48    1
   116    41    38    1
   117    92    93    1
   118    93    87    1
   119    88    87    1
   120   164   163    2
   121    87    78   am
   122    47    48    1
   123    47    46    1
   124    80    77    1
   125    38    39    1
   126    38    37    1
   127    43    46    1
   128    43    44    1
   129    43    42    1
   130    78    77    1
   131    78    79    2
   132    44    45    2
   133    77    76    1
   134    39    40    2
   135    58    56    1
   136    70    69    2
   137    65    64    1
   138    76    69   am
   139    56    55    1
   140    69    68    1
   141    55    57    1
   142    55    52    1
   143    63    64    1
   144    63    60    1
   145    64    66    1
   146    62    61    2
   147    51    52    1
   148    52    53    1
   149    61    60    1
   150    61    67   am
   151    68    67    1
   152    68    71    1
   153    72    71    1
   154    72    73    1
   155    60    59    1
   156    75    73   ar
   157    73    74   ar
   158    53    54    2
