@<TRIPOS>MOLECULE
tmp/3un4K00.pdb
 142 133 0 0 0
SMALL
GASTEIGER

@<TRIPOS>ATOM
      1  N         11.7440 -140.3620    9.9740 N.3     1  THR1       -0.1218
      2  CA        11.2880 -139.4790    8.8570 C.3     1  THR1        0.1862
      3  C         11.7170 -139.8800    7.4630 C.2     1  THR1        0.2287
      4  O         12.6450 -140.6620    7.3070 O.2     1  THR1       -0.2866
      5  CB        11.7680 -138.0320    9.1380 C.3     1  THR1        0.1770
      6  OG1       11.2070 -137.6620   10.4100 O.3     1  THR1       -0.2211
      7  CG2       11.2830 -136.9730    8.1080 C.3     1  THR1        0.0375
      8  N          5.0680 -139.5670    9.7510 N.3    19  ARG19      -0.1231
      9  CA         5.2950 -140.4140   10.9200 C.3    19  ARG19       0.1694
     10  C          6.2090 -139.7320   11.9420 C.2    19  ARG19       0.2592
     11  O          7.1230 -138.9960   11.5790 O.2    19  ARG19      -0.2718
     12  CB         5.8490 -141.7860   10.5060 C.3    19  ARG19       0.0321
     13  CG         5.8760 -142.8230   11.6240 C.3    19  ARG19       0.0489
     14  CD         6.0020 -144.2420   11.0900 C.3    19  ARG19       0.2205
     15  NE         4.7350 -144.7370   10.5510 N.pl3  19  ARG19      -0.0865
     16  CZ         4.5400 -145.9630   10.0700 C.cat  19  ARG19       0.5346
     17  NH1        5.5290 -146.8520   10.0490 N.pl3  19  ARG19       0.1354
     18  NH2        3.3440 -146.3030    9.6080 N.pl3  19  ARG19       0.1354
     19  N          5.9260 -139.9600   13.2200 N.am   20  ALA20      -0.1966
     20  CA         6.7740 -139.4930   14.3090 C.3    20  ALA20       0.1728
     21  C          6.9310 -140.6360   15.3020 C.2    20  ALA20       0.2617
     22  O          5.9510 -141.2940   15.6500 O.2    20  ALA20      -0.2715
     23  CB         6.1630 -138.2740   14.9780 C.3    20  ALA20       0.0334
     24  N          8.1600 -140.8730   15.7530 N.am   21  THR21      -0.1937
     25  CA         8.4600 -142.0760   16.5260 C.3    21  THR21       0.2028
     26  C          9.2510 -141.8540   17.8140 C.2    21  THR21       0.2642
     27  O          9.9890 -140.8790   17.9530 O.2    21  THR21      -0.2714
     28  CB         9.1990 -143.1270   15.6670 C.3    21  THR21       0.1808
     29  OG1       10.1570 -142.4740   14.8230 O.3    21  THR21      -0.2208
     30  CG2        8.2170 -143.9100   14.8010 C.3    21  THR21       0.0379
     31  N          9.0610 -142.7760   18.7540 N.am   22  ALA22      -0.1977
     32  CA         9.8840 -142.8870   19.9460 C.3    22  ALA22       0.1597
     33  C         10.2600 -144.3590   20.0720 C.2    22  ALA22       0.2287
     34  O          9.6190 -145.1200   20.8000 O.2    22  ALA22      -0.2864
     35  CB         9.1210 -142.4090   21.1700 C.3    22  ALA22       0.0319
     36  N          4.3870 -142.5390   17.3820 N.3    27  ALA27      -0.1245
     37  CA         3.7890 -141.4670   18.1740 C.3    27  ALA27       0.1562
     38  C          2.7330 -140.6820   17.4050 C.2    27  ALA27       0.2260
     39  O          1.7490 -140.2350   17.9930 O.2    27  ALA27      -0.2867
     40  CB         4.8650 -140.5330   18.7040 C.3    27  ALA27       0.0290
     41  N          1.6470 -135.6920   11.3520 N.3    31  VAL31      -0.1245
     42  CA         2.5370 -134.5540   11.5940 C.3    31  VAL31       0.1561
     43  C          2.7750 -133.7690   10.3040 C.2    31  VAL31       0.2260
     44  O          2.7690 -134.3420    9.2170 O.2    31  VAL31      -0.2867
     45  CB         3.8870 -134.9850   12.2130 C.3    31  VAL31       0.0252
     46  CG1        4.8080 -133.7890   12.3660 C.3    31  VAL31       0.0019
     47  CG2        3.6740 -135.6370   13.5680 C.3    31  VAL31       0.0019
     48  N          5.4850 -131.9230    8.3320 N.3    33  LYS33      -0.1245
     49  CA         6.9430 -131.8330    8.2610 C.3    33  LYS33       0.1561
     50  C          7.4440 -130.7380    7.3150 C.2    33  LYS33       0.2260
     51  O          8.6400 -130.6480    7.0400 O.2    33  LYS33      -0.2867
     52  CB         7.5470 -133.1940    7.8950 C.3    33  LYS33       0.0271
     53  CG         7.5380 -134.1920    9.0420 C.3    33  LYS33       0.0035
     54  CD         8.0000 -135.5660    8.5920 C.3    33  LYS33       0.0206
     55  CE         7.9320 -136.5650    9.7340 C.3    33  LYS33       0.1093
     56  NZ         8.2460 -137.9520    9.2900 N.3    33  LYS33      -0.1314
     57  N         11.1390 -130.6260    7.7760 N.3    45  MET45      -0.1230
     58  CA        11.4800 -131.0350    9.1210 C.3    45  MET45       0.1702
     59  C         11.8360 -132.5200    9.1690 C.2    45  MET45       0.2592
     60  O         11.0540 -133.3730    8.7400 O.2    45  MET45      -0.2718
     61  CB        10.3450 -130.6530   10.0690 C.3    45  MET45       0.0401
     62  CG        10.2070 -129.1400   10.2110 C.3    45  MET45       0.0596
     63  SD         8.6360 -128.5310   10.8470 S.3    45  MET45      -0.1393
     64  CE         8.4410 -129.5110   12.3310 C.3    45  MET45       0.0692
     65  N         13.0430 -132.8100    9.6580 N.am   46  ALA46      -0.1966
     66  CA        13.5730 -134.1750    9.7280 C.3    46  ALA46       0.1728
     67  C         14.6150 -134.3080   10.8380 C.2    46  ALA46       0.2617
     68  O         15.6200 -133.5900   10.8430 O.2    46  ALA46      -0.2715
     69  CB        14.1710 -134.5860    8.3900 C.3    46  ALA46       0.0334
     70  N         14.3680 -135.2310   11.7670 N.am   47  GLY47      -0.1940
     71  CA        15.2390 -135.4330   12.9280 C.3    47  GLY47       0.2014
     72  C         14.5030 -135.2290   14.2420 C.2    47  GLY47       0.2639
     73  O         13.4210 -135.7840   14.4470 O.2    47  GLY47      -0.2714
     74  N         15.0960 -134.4410   15.1370 N.am   48  GLY48      -0.1939
     75  CA        14.4540 -134.0770   16.4000 C.3    48  GLY48       0.2014
     76  C         13.2380 -133.2200   16.1220 C.2    48  GLY48       0.2639
     77  O         13.3440 -132.1870   15.4590 O.2    48  GLY48      -0.2714
     78  N         12.0840 -133.6580   16.6150 N.am   49  ALA49      -0.1963
     79  CA        10.8160 -132.9880   16.3380 C.3    49  ALA49       0.1728
     80  C         10.8160 -131.5310   16.7980 C.2    49  ALA49       0.2616
     81  O         10.5700 -130.6270   15.9970 O.2    49  ALA49      -0.2715
     82  CB         9.6620 -133.7550   16.9590 C.3    49  ALA49       0.0334
     83  N         11.1100 -131.3110   18.0790 N.am   50  ALA50      -0.1963
     84  CA        11.1980 -129.9630   18.6360 C.3    50  ALA50       0.1728
     85  C         12.3120 -129.1540   17.9760 C.2    50  ALA50       0.2616
     86  O         12.1030 -127.9970   17.6120 O.2    50  ALA50      -0.2715
     87  CB        11.3980 -130.0180   20.1420 C.3    50  ALA50       0.0334
     88  N         13.4810 -129.7770   17.8140 N.am   51  ASP51      -0.1957
     89  CA        14.6400 -129.1560   17.1610 C.3    51  ASP51       0.1840
     90  C         14.3000 -128.5200   15.8160 C.2    51  ASP51       0.2622
     91  O         14.6790 -127.3770   15.5520 O.2    51  ASP51      -0.2715
     92  CB        15.7680 -130.1760   16.9830 C.3    51  ASP51       0.1450
     93  CG        16.4830 -130.4890   18.2780 C.2    51  ASP51       0.3671
     94  OD1       17.3920 -131.3450   18.2580 O.co2  51  ASP51      -0.2456
     95  OD2       16.1470 -129.8810   19.3160 O.co2  51  ASP51      -0.2456
     96  N         13.5850 -129.2690   14.9780 N.am   52  CYS52      -0.1954
     97  CA        13.1220 -128.7730   13.6880 C.3    52  CYS52       0.1843
     98  C         12.0610 -127.6970   13.8790 C.2    52  CYS52       0.2625
     99  O         12.2560 -126.5450   13.4850 O.2    52  CYS52      -0.2714
    100  CB        12.5530 -129.9170   12.8550 C.3    52  CYS52       0.0997
    101  SG        13.7680 -131.1510   12.3600 S.3    52  CYS52      -0.0797
    102  N         10.9520 -128.0900   14.5010 N.am   53  GLN53      -0.1977
    103  CA         9.8070 -127.2180   14.7490 C.3    53  GLN53       0.1601
    104  C         10.2220 -125.8680   15.3180 C.2    53  GLN53       0.2287
    105  O          9.9420 -124.8260   14.7250 O.2    53  GLN53      -0.2864
    106  CB         8.8490 -127.9060   15.7140 C.3    53  GLN53       0.0394
    107  CG         7.3830 -127.7440   15.3740 C.3    53  GLN53       0.0908
    108  CD         6.5410 -128.8130   16.0290 C.2    53  GLN53       0.2608
    109  OE1        6.5190 -128.9340   17.2500 O.2    53  GLN53      -0.2717
    110  NE2        5.8480 -129.6020   15.2180 N.am   53  GLN53      -0.0878
    111  N         24.1340 -131.4700   20.9160 N.3    94  GLY94      -0.1225
    112  CA        23.1640 -132.5550   20.8200 C.3    94  GLY94       0.1811
    113  C         21.9120 -132.2580   20.0130 C.2    94  GLY94       0.2280
    114  O         20.9500 -133.0340   20.0550 O.2    94  GLY94      -0.2866
    115  N         19.6210 -132.2360   16.7500 N.3    96  SER96      -0.1217
    116  CA        19.4550 -133.2580   15.7210 C.3    96  SER96       0.1889
    117  C         18.4290 -132.8320   14.6770 C.2    96  SER96       0.2288
    118  O         17.2210 -132.9090   14.9080 O.2    96  SER96      -0.2866
    119  CB        19.0620 -134.5980   16.3530 C.3    96  SER96       0.2089
    120  OG        18.6990 -135.5480   15.3640 O.3    96  SER96      -0.2183
    121  N         16.3580 -138.1770    5.9020 N.3   130  GLY130     -0.1210
    122  CA        15.6230 -138.9570    6.8940 C.3   130  GLY130      0.1956
    123  C         15.9840 -140.4280    6.9040 C.2   130  GLY130      0.2612
    124  O         16.7940 -140.8870    6.0960 O.2   130  GLY130     -0.2717
    125  N         15.3700 -141.1650    7.8270 N.am  131  SER131     -0.1952
    126  CA        15.5710 -142.6090    7.9510 C.3   131  SER131      0.1924
    127  C         15.2420 -143.3770    6.6640 C.2   131  SER131      0.2314
    128  O         15.6750 -144.5150    6.4880 O.2   131  SER131     -0.2863
    129  CB        14.7430 -143.1550    9.1170 C.3   131  SER131      0.2116
    130  OG        13.3740 -142.8080    8.9770 O.3   131  SER131     -0.2180
    131  N         10.3200 -146.5070   10.0570 N.3   170  TYR170     -0.1241
    132  CA        10.2090 -145.1910   10.6880 C.3   170  TYR170      0.1605
    133  C          9.7620 -144.1060    9.7040 C.2   170  TYR170      0.2264
    134  O         10.1630 -142.9420    9.8070 O.2   170  TYR170     -0.2867
    135  CB        11.5250 -144.8200   11.3850 C.3   170  TYR170      0.0534
    136  CG        11.9800 -145.8530   12.3930 C.ar  170  TYR170     -0.0201
    137  CD1       11.1580 -146.2240   13.4570 C.ar  170  TYR170     -0.0009
    138  CD2       13.2290 -146.4620   12.2840 C.ar  170  TYR170     -0.0009
    139  CE1       11.5650 -147.1720   14.3810 C.ar  170  TYR170      0.0417
    140  CE2       13.6470 -147.4100   13.2080 C.ar  170  TYR170      0.0417
    141  CZ        12.8090 -147.7600   14.2540 C.ar  170  TYR170      0.1957
    142  OH        13.2040 -148.7000   15.1790 O.3   170  TYR170     -0.2866
@<TRIPOS>BOND
     1   121   122    1
     2   124   123    2
     3   128   127    2
     4   127   126    1
     5   122   123    1
     6   123   125   am
     7    51    50    2
     8     4     3    2
     9    50    49    1
    10     3     2    1
    11    57    58    1
    12   125   126    1
    13    52    49    1
    14    52    53    1
    15   126   129    1
    16     7     5    1
    17    49    48    1
    18    69    66    1
    19    54    53    1
    20    54    55    1
    21    60    59    2
    22     2     5    1
    23     2     1    1
    24   130   129    1
    25    58    59    1
    26    58    61    1
    27     5     6    1
    28    59    65   am
    29    44    43    2
    30    56    55    1
    31    18    16    1
    32    65    66    1
    33   133   134    2
    34   133   132    1
    35    66    67    1
    36     8     9    1
    37    17    16    1
    38   131   132    1
    39    61    62    1
    40    16    15    2
    41    62    63    1
    42    43    42    1
    43    12     9    1
    44    12    13    1
    45    15    14    1
    46   132   135    1
    47    67    68    2
    48    67    70   am
    49    63    64    1
    50     9    10    1
    51    14    13    1
    52    41    42    1
    53   135   136    1
    54    11    10    2
    55    42    45    1
    56    70    71    1
    57    10    19   am
    58    45    46    1
    59    45    47    1
    60   138   136   ar
    61   138   140   ar
    62   101   100    1
    63   136   137   ar
    64   100    97    1
    65    71    72    1
    66   140   141   ar
    67    19    20    1
    68   137   139   ar
    69    99    98    2
    70    97    98    1
    71    97    96    1
    72    98   102   am
    73    72    73    2
    74    72    74   am
    75   141   139   ar
    76   141   142    1
    77    20    23    1
    78    20    21    1
    79   102   103    1
    80   117   118    2
    81   117   116    1
    82   105   104    2
    83   103   104    1
    84   103   106    1
    85    30    28    1
    86    29    28    1
    87    96    90   am
    88    74    75    1
    89   110   108   am
    90    21    22    2
    91    21    24   am
    92   120   119    1
    93   107   106    1
    94   107   108    1
    95    77    76    2
    96    91    90    2
    97    28    25    1
    98   116   119    1
    99   116   115    1
   100    24    25    1
   101    90    89    1
   102    81    80    2
   103   108   109    2
   104    76    75    1
   105    76    78   am
   106    79    78    1
   107    79    80    1
   108    79    82    1
   109    25    26    1
   110    80    83   am
   111    92    89    1
   112    92    93    1
   113    89    88    1
   114    36    37    1
   115    38    39    2
   116    38    37    1
   117    86    85    2
   118    26    27    2
   119    26    31   am
   120    88    85   am
   121    85    84    1
   122    83    84    1
   123    37    40    1
   124    94    93   ar
   125    93    95   ar
   126    84    87    1
   127    31    32    1
   128    32    33    1
   129    32    35    1
   130   113   114    2
   131   113   112    1
   132    33    34    2
   133   112   111    1
