@<TRIPOS>MOLECULE
tmp/3un8Y00.pdb
 103 98 0 0 0
SMALL
GASTEIGER

@<TRIPOS>ATOM
      1  N         57.1730 -152.3900    7.6450 N.3     1  THR1       -0.1218
      2  CA        57.2830 -153.6430    6.8480 C.3     1  THR1        0.1862
      3  C         56.5860 -153.4450    5.4970 C.2     1  THR1        0.2287
      4  O         55.4080 -153.0880    5.4470 O.2     1  THR1       -0.2866
      5  CB        56.7060 -154.8660    7.6170 C.3     1  THR1        0.1770
      6  OG1       57.4260 -155.0740    8.8530 O.3     1  THR1       -0.2211
      7  CG2       56.7800 -156.1370    6.7700 C.3     1  THR1        0.0375
      8  N         63.4500 -154.1140    8.0280 N.3    19  ARG19      -0.1231
      9  CA        63.3430 -153.4190    9.3110 C.3    19  ARG19       0.1694
     10  C         62.3320 -154.0860   10.2480 C.2    19  ARG19       0.2592
     11  O         61.2880 -154.5670    9.8120 O.2    19  ARG19      -0.2718
     12  CB        63.0010 -151.9370    9.1000 C.3    19  ARG19       0.0321
     13  CG        63.0410 -151.0870   10.3650 C.3    19  ARG19       0.0489
     14  CD        62.8000 -149.6140   10.0750 C.3    19  ARG19       0.2205
     15  NE        63.9580 -148.9780    9.4520 N.pl3  19  ARG19      -0.0865
     16  CZ        64.0460 -147.6830    9.1590 C.cat  19  ARG19       0.5346
     17  NH1       63.0400 -146.8590    9.4270 N.pl3  19  ARG19       0.1354
     18  NH2       65.1480 -147.2100    8.5940 N.pl3  19  ARG19       0.1354
     19  N         62.6690 -154.1290   11.5340 N.am   20  ALA20      -0.1966
     20  CA        61.7530 -154.5960   12.5710 C.3    20  ALA20       0.1728
     21  C         61.6430 -153.5260   13.6490 C.2    20  ALA20       0.2616
     22  O         62.6570 -153.0340   14.1470 O.2    20  ALA20      -0.2715
     23  CB        62.2370 -155.9110   13.1630 C.3    20  ALA20       0.0334
     24  N         60.4110 -153.1560   13.9920 N.am   21  THR21      -0.1951
     25  CA        60.1670 -152.1000   14.9760 C.3    21  THR21       0.1897
     26  C         59.1670 -152.5080   16.0550 C.2    21  THR21       0.2313
     27  O         58.1740 -153.1850   15.7760 O.2    21  THR21      -0.2863
     28  CB        59.6720 -150.7920   14.3160 C.3    21  THR21       0.1794
     29  OG1       58.5380 -151.0660   13.4850 O.3    21  THR21      -0.2208
     30  CG2       60.7710 -150.1460   13.4780 C.3    21  THR21       0.0378
     31  N         66.4960 -157.9480    9.2130 N.3    31  VAL31      -0.1231
     32  CA        65.6180 -159.0860    9.4920 C.3    31  VAL31       0.1692
     33  C         65.1040 -159.7030    8.1910 C.2    31  VAL31       0.2592
     34  O         64.5580 -159.0030    7.3380 O.2    31  VAL31      -0.2718
     35  CB        64.4310 -158.6850   10.4030 C.3    31  VAL31       0.0266
     36  CG1       63.4140 -159.8100   10.5100 C.3    31  VAL31       0.0020
     37  CG2       64.9260 -158.3090   11.7890 C.3    31  VAL31       0.0020
     38  N         65.2930 -161.0140    8.0470 N.am   32  LYS32      -0.1966
     39  CA        64.7550 -161.7570    6.9100 C.3    32  LYS32       0.1728
     40  C         63.2310 -161.7630    6.9560 C.2    32  LYS32       0.2616
     41  O         62.6380 -161.9940    8.0100 O.2    32  LYS32      -0.2715
     42  CB        65.2870 -163.1950    6.8930 C.3    32  LYS32       0.0311
     43  CG        66.6580 -163.3630    6.2510 C.3    32  LYS32       0.0038
     44  CD        67.7920 -163.1460    7.2420 C.3    32  LYS32       0.0206
     45  CE        69.1410 -163.4270    6.6010 C.3    32  LYS32       0.1093
     46  NZ        70.2640 -163.2480    7.5620 N.3    32  LYS32      -0.1314
     47  N         62.6070 -161.4910    5.8120 N.am   33  LYS33      -0.1977
     48  CA        61.1470 -161.4430    5.7160 C.3    33  LYS33       0.1596
     49  C         60.5920 -162.3820    4.6480 C.2    33  LYS33       0.2287
     50  O         59.3870 -162.4020    4.3920 O.2    33  LYS33      -0.2864
     51  CB        60.6650 -160.0090    5.4860 C.3    33  LYS33       0.0298
     52  CG        60.7720 -159.1390    6.7230 C.3    33  LYS33       0.0038
     53  CD        60.2230 -157.7470    6.4840 C.3    33  LYS33       0.0206
     54  CE        60.4640 -156.8780    7.7040 C.3    33  LYS33       0.1093
     55  NZ        60.0970 -155.4590    7.4590 N.3    33  LYS33      -0.1314
     56  N         56.6960 -162.2140    4.8540 N.3    45  MET45      -0.1230
     57  CA        56.3340 -162.0580    6.2640 C.3    45  MET45       0.1702
     58  C         55.9430 -160.6240    6.6110 C.2    45  MET45       0.2592
     59  O         56.7210 -159.6880    6.4060 O.2    45  MET45      -0.2718
     60  CB        57.4700 -162.5320    7.1810 C.3    45  MET45       0.0401
     61  CG        57.8130 -164.0100    7.0620 C.3    45  MET45       0.0596
     62  SD        58.6300 -164.6710    8.5290 S.3    45  MET45      -0.1393
     63  CE        60.2890 -164.0290    8.3420 C.3    45  MET45       0.0692
     64  N         54.7280 -160.4640    7.1320 N.am   46  ALA46      -0.1966
     65  CA        54.2380 -159.1730    7.6160 C.3    46  ALA46       0.1728
     66  C         53.2930 -159.3720    8.7950 C.2    46  ALA46       0.2617
     67  O         52.5220 -160.3330    8.8290 O.2    46  ALA46      -0.2715
     68  CB        53.5490 -158.4020    6.5000 C.3    46  ALA46       0.0334
     69  N         53.3560 -158.4530    9.7550 N.am   47  GLY47      -0.1940
     70  CA        52.6080 -158.5780   11.0020 C.3    47  GLY47       0.2014
     71  C         53.4980 -159.1610   12.0800 C.2    47  GLY47       0.2639
     72  O         54.6570 -158.7680   12.2090 O.2    47  GLY47      -0.2714
     73  N         52.9600 -160.1060   12.8460 N.am   48  GLY48      -0.1939
     74  CA        53.7190 -160.7830   13.8990 C.3    48  GLY48       0.2014
     75  C         54.8530 -161.6180   13.3340 C.2    48  GLY48       0.2638
     76  O         54.6240 -162.5260   12.5310 O.2    48  GLY48      -0.2714
     77  N         56.0760 -161.3000   13.7550 N.am   49  ALA49      -0.1977
     78  CA        57.2810 -161.9640   13.2560 C.3    49  ALA49       0.1597
     79  C         57.3330 -163.4450   13.6230 C.2    49  ALA49       0.2287
     80  O         57.7410 -164.2720   12.8070 O.2    49  ALA49      -0.2864
     81  CB        58.5280 -161.2470   13.7540 C.3    49  ALA49       0.0319
     82  N         51.6680 -154.7400    4.4830 N.3   130  GLY130     -0.1210
     83  CA        52.4580 -154.0350    5.4870 C.3   130  GLY130      0.1956
     84  C         52.0060 -152.6010    5.6820 C.2   130  GLY130      0.2612
     85  O         51.0230 -152.1650    5.0800 O.2   130  GLY130     -0.2717
     86  N         52.7250 -151.8660    6.5270 N.am  131  SER131     -0.1952
     87  CA        52.3980 -150.4690    6.8130 C.3   131  SER131      0.1924
     88  C         52.7440 -149.5420    5.6460 C.2   131  SER131      0.2314
     89  O         52.1240 -148.4900    5.4770 O.2   131  SER131     -0.2863
     90  CB        53.0940 -150.0010    8.0940 C.3   131  SER131      0.2116
     91  OG        54.4930 -150.2160    8.0270 O.3   131  SER131     -0.2180
     92  N         58.2490 -147.1570    9.5370 N.3   170  TYR170     -0.1241
     93  CA        58.4740 -148.5240    9.9820 C.3   170  TYR170      0.1605
     94  C         59.2300 -149.3700    8.9550 C.2   170  TYR170      0.2264
     95  O         59.7880 -150.4090    9.3010 O.2   170  TYR170     -0.2867
     96  CB        57.1460 -149.1850   10.3620 C.3   170  TYR170      0.0534
     97  CG        56.3760 -148.4640   11.4510 C.ar  170  TYR170     -0.0201
     98  CD1       56.9690 -148.1700   12.6810 C.ar  170  TYR170     -0.0009
     99  CD2       55.0470 -148.0890   11.2570 C.ar  170  TYR170     -0.0009
    100  CE1       56.2650 -147.5120   13.6780 C.ar  170  TYR170      0.0417
    101  CE2       54.3350 -147.4340   12.2510 C.ar  170  TYR170      0.0417
    102  CZ        54.9470 -147.1480   13.4570 C.ar  170  TYR170      0.1957
    103  OH        54.2400 -146.4970   14.4420 O.3   170  TYR170     -0.2866
@<TRIPOS>BOND
     1    50    49    2
     2    82    83    1
     3    49    48    1
     4    56    57    1
     5    85    84    2
     6     4     3    2
     7    89    88    2
     8    51    48    1
     9    51    52    1
    10    83    84    1
    11     3     2    1
    12    88    87    1
    13    84    86   am
    14    48    47    1
    15    47    40   am
    16    43    42    1
    17    43    44    1
    18    57    58    1
    19    57    60    1
    20    59    58    2
    21    53    52    1
    22    53    54    1
    23    68    65    1
    24    86    87    1
    25    45    44    1
    26    45    46    1
    27    58    64   am
    28     7     5    1
    29    87    90    1
    30     2     5    1
    31     2     1    1
    32    42    39    1
    33    39    40    1
    34    39    38    1
    35    40    41    2
    36    61    60    1
    37    61    62    1
    38    64    65    1
    39    34    33    2
    40    55    54    1
    41    65    66    1
    42     5     6    1
    43    91    90    1
    44     8     9    1
    45    38    33   am
    46    33    32    1
    47    63    62    1
    48    18    16    1
    49    66    67    2
    50    66    69   am
    51    94    95    2
    52    94    93    1
    53    12     9    1
    54    12    13    1
    55    16    17    1
    56    16    15    2
    57    31    32    1
    58     9    10    1
    59    15    14    1
    60    32    35    1
    61    92    93    1
    62    69    70    1
    63    11    10    2
    64    93    96    1
    65    14    13    1
    66    10    19   am
    67    96    97    1
    68    35    36    1
    69    35    37    1
    70    70    71    1
    71    99    97   ar
    72    99   101   ar
    73    97    98   ar
    74    19    20    1
    75    71    72    2
    76    71    73   am
    77   101   102   ar
    78    76    75    2
    79    20    23    1
    80    20    21    1
    81    98   100   ar
    82    80    79    2
    83    73    74    1
    84    78    79    1
    85    78    81    1
    86    78    77    1
    87    75    77   am
    88    75    74    1
    89   102   100   ar
    90   102   103    1
    91    30    28    1
    92    29    28    1
    93    21    24   am
    94    21    22    2
    95    24    25    1
    96    28    25    1
    97    25    26    1
    98    27    26    2
