@<TRIPOS>MOLECULE
tmp/3unbV00.pdb
 138 130 0 0 0
SMALL
GASTEIGER

@<TRIPOS>ATOM
      1  N         44.0790   53.7430   43.6930 N.3     1  THR1       -0.1218
      2  CA        45.1920   54.7170   43.9090 C.3     1  THR1        0.1862
      3  C         44.7390   56.0180   44.5450 C.2     1  THR1        0.2287
      4  O         43.7110   56.5610   44.1570 O.2     1  THR1       -0.2866
      5  CB        45.8650   54.9760   42.5300 C.3     1  THR1        0.1770
      6  OG1       46.3520   53.7040   42.0660 O.3     1  THR1       -0.2211
      7  CG2       47.0780   55.9430   42.5320 C.3     1  THR1        0.0375
      8  N         49.3010   51.0080   47.1410 N.3    19  ARG19      -0.1231
      9  CA        48.2980   49.9450   47.1150 C.3    19  ARG19       0.1694
     10  C         47.8620   49.5910   45.6950 C.2    19  ARG19       0.2592
     11  O         47.4950   50.4650   44.9150 O.2    19  ARG19      -0.2718
     12  CB        47.0850   50.3400   47.9670 C.3    19  ARG19       0.0321
     13  CG        45.8810   49.4160   47.8440 C.3    19  ARG19       0.0489
     14  CD        44.8000   49.7670   48.8530 C.3    19  ARG19       0.2205
     15  NE        45.1120   49.2580   50.1860 N.pl3  19  ARG19      -0.0865
     16  CZ        44.2690   49.2670   51.2130 C.cat  19  ARG19       0.5346
     17  NH1       43.0460   49.7670   51.0790 N.pl3  19  ARG19       0.1354
     18  NH2       44.6550   48.7720   52.3810 N.pl3  19  ARG19       0.1354
     19  N         47.9230   48.3050   45.3680 N.am   20  ALA20      -0.1966
     20  CA        47.3170   47.7840   44.1470 C.3    20  ALA20       0.1728
     21  C         46.1910   46.8400   44.5390 C.2    20  ALA20       0.2617
     22  O         46.3150   46.0860   45.5060 O.2    20  ALA20      -0.2715
     23  CB        48.3450   47.0600   43.2960 C.3    20  ALA20       0.0334
     24  N         45.0870   46.8920   43.8020 N.am   21  THR21      -0.1937
     25  CA        43.9290   46.0660   44.1270 C.3    21  THR21       0.2028
     26  C         43.4630   45.2370   42.9360 C.2    21  THR21       0.2642
     27  O         43.4390   45.7260   41.8050 O.2    21  THR21      -0.2714
     28  CB        42.7450   46.9170   44.6480 C.3    21  THR21       0.1808
     29  OG1       42.4650   47.9800   43.7270 O.3    21  THR21      -0.2208
     30  CG2       43.0560   47.5100   46.0220 C.3    21  THR21       0.0379
     31  N         43.1170   43.9770   43.1980 N.am   22  GLU22      -0.1963
     32  CA        42.3630   43.1520   42.2450 C.3    22  GLU22       0.1733
     33  C         40.9950   42.8200   42.8480 C.2    22  GLU22       0.2616
     34  O         40.9010   42.1010   43.8470 O.2    22  GLU22      -0.2715
     35  CB        43.1430   41.8920   41.8170 C.3    22  GLU22       0.0429
     36  CG        43.9320   41.1760   42.9140 C.3    22  GLU22       0.1163
     37  CD        43.2820   39.8940   43.4200 C.2    22  GLU22       0.3649
     38  OE1       43.5720   39.5040   44.5730 O.co2  22  GLU22      -0.2457
     39  OE2       42.5030   39.2630   42.6710 O.co2  22  GLU22      -0.2457
     40  N         39.9400   43.3670   42.2500 N.am   23  GLY23      -0.1955
     41  CA        38.6210   43.3470   42.8690 C.3    23  GLY23       0.1869
     42  C         38.6440   44.2520   44.0890 C.2    23  GLY23       0.2309
     43  O         39.0990   45.3970   44.0070 O.2    23  GLY23      -0.2863
     44  N         46.2390   43.4870   46.2260 N.3    27  ALA27      -0.1245
     45  CA        47.1450   42.6040   45.4870 C.3    27  ALA27       0.1562
     46  C         48.6120   42.8540   45.8340 C.2    27  ALA27       0.2260
     47  O         49.4010   41.9130   45.9410 O.2    27  ALA27      -0.2867
     48  CB        46.9250   42.7530   43.9920 C.3    27  ALA27       0.0290
     49  N         53.7790   48.8130   45.8190 N.3    31  CYS31      -0.1221
     50  CA        54.0260   48.9250   44.3790 C.3    31  CYS31       0.1808
     51  C         54.4670   50.3320   44.0040 C.2    31  CYS31       0.2602
     52  O         54.0380   51.3090   44.6130 O.2    31  CYS31      -0.2717
     53  CB        52.7820   48.5300   43.5750 C.3    31  CYS31       0.0970
     54  SG        51.3040   49.5250   43.9010 S.3    31  CYS31      -0.0800
     55  N         55.3250   50.4300   42.9970 N.am   32  SER32      -0.1938
     56  CA        55.8880   51.7140   42.6030 C.3    32  SER32       0.2055
     57  C         54.9760   52.4210   41.5990 C.2    32  SER32       0.2642
     58  O         54.7750   51.9400   40.4780 O.2    32  SER32      -0.2714
     59  CB        57.2970   51.5240   42.0410 C.3    32  SER32       0.2130
     60  OG        58.0530   52.7160   42.1520 O.3    32  SER32      -0.2179
     61  N         54.4230   53.5600   42.0190 N.am   33  LYS33      -0.1977
     62  CA        53.4690   54.3230   41.2070 C.3    33  LYS33       0.1596
     63  C         54.0750   55.5880   40.6110 C.2    33  LYS33       0.2287
     64  O         53.5060   56.1800   39.6950 O.2    33  LYS33      -0.2864
     65  CB        52.2220   54.6730   42.0230 C.3    33  LYS33       0.0298
     66  CG        51.3560   53.4760   42.3630 C.3    33  LYS33       0.0038
     67  CD        50.1370   53.8870   43.1630 C.3    33  LYS33       0.0206
     68  CE        49.3900   52.6660   43.6650 C.3    33  LYS33       0.1093
     69  NZ        48.0850   53.0230   44.2820 N.3    33  LYS33      -0.1314
     70  N         56.8510   56.8770   38.3340 N.3    35  HIS35      -0.1241
     71  CA        57.6470   56.2470   37.2880 C.3    35  HIS35       0.1621
     72  C         58.6660   57.1560   36.6870 C.2    35  HIS35       0.2264
     73  O         58.4320   58.3580   36.5250 O.2    35  HIS35      -0.2867
     74  CB        56.7530   55.7240   36.1790 C.3    35  HIS35       0.0745
     75  CG        55.6830   54.7800   36.6500 C.ar   35  HIS35       0.0817
     76  ND1       55.9450   53.5130   37.0080 N.ar   35  HIS35      -0.2268
     77  CD2       54.3090   54.9550   36.7900 C.ar   35  HIS35       0.1154
     78  CE1       54.8000   52.9080   37.3750 C.ar   35  HIS35       0.1986
     79  NE2       53.8000   53.7910   37.2400 N.ar   35  HIS35      -0.2212
     80  N         51.1100   57.4760   38.1760 N.3    45  GLY45      -0.1210
     81  CA        50.0950   56.7450   37.4160 C.3    45  GLY45       0.1956
     82  C         48.9860   56.1350   38.2540 C.2    45  GLY45       0.2612
     83  O         49.2290   55.6210   39.3480 O.2    45  GLY45      -0.2717
     84  N         47.7650   56.1910   37.7220 N.am   46  ALA46      -0.1965
     85  CA        46.5730   55.6700   38.3950 C.3    46  ALA46       0.1728
     86  C         45.6140   55.0270   37.3990 C.2    46  ALA46       0.2617
     87  O         45.6350   55.3510   36.2080 O.2    46  ALA46      -0.2715
     88  CB        45.8660   56.7820   39.1490 C.3    46  ALA46       0.0334
     89  N         44.7680   54.1280   37.8950 N.am   47  GLY47      -0.1940
     90  CA        43.8150   53.4080   37.0520 C.3    47  GLY47       0.2014
     91  C         44.2590   51.9830   36.7850 C.2    47  GLY47       0.2640
     92  O         44.6530   51.2680   37.7090 O.2    47  GLY47      -0.2714
     93  N         44.1920   51.5730   35.5200 N.am   48  THR48      -0.1936
     94  CA        44.6270   50.2360   35.1040 C.3    48  THR48       0.2028
     95  C         46.1480   50.1280   35.2330 C.2    48  THR48       0.2642
     96  O         46.8930   50.7400   34.4630 O.2    48  THR48      -0.2714
     97  CB        44.1890   49.9130   33.6550 C.3    48  THR48       0.1808
     98  OG1       42.8100   50.2550   33.4800 O.3    48  THR48      -0.2208
     99  CG2       44.3780   48.4330   33.3440 C.3    48  THR48       0.0379
    100  N         46.5930   49.3450   36.2130 N.am   49  ALA49      -0.1963
    101  CA        48.0100   49.2430   36.5600 C.3    49  ALA49       0.1728
    102  C         48.9190   48.9020   35.3740 C.2    49  ALA49       0.2616
    103  O         49.9260   49.5770   35.1540 O.2    49  ALA49      -0.2715
    104  CB        48.2040   48.2470   37.6920 C.3    49  ALA49       0.0334
    105  N         48.5630   47.8670   34.6120 N.am   50  ALA50      -0.1977
    106  CA        49.3600   47.4490   33.4520 C.3    50  ALA50       0.1597
    107  C         49.4440   48.5340   32.3770 C.2    50  ALA50       0.2287
    108  O         50.4880   48.7070   31.7420 O.2    50  ALA50      -0.2864
    109  CB        48.8170   46.1560   32.8650 C.3    50  ALA50       0.0319
    110  N         49.1820   51.7230   33.0930 N.3    52  THR52      -0.1203
    111  CA        50.0490   52.6830   33.7640 C.3    52  THR52       0.1994
    112  C         51.5300   52.3780   33.4940 C.2    52  THR52       0.2617
    113  O         52.2780   53.2630   33.0810 O.2    52  THR52      -0.2717
    114  CB        49.7300   52.7350   35.2770 C.3    52  THR52       0.1784
    115  OG1       48.5470   53.5160   35.4820 O.3    52  THR52      -0.2211
    116  CG2       50.8660   53.3440   36.0790 C.3    52  THR52       0.0376
    117  N         51.9310   51.1210   33.6940 N.am   53  ASP53      -0.1973
    118  CA        53.3250   50.7000   33.5190 C.3    53  ASP53       0.1709
    119  C         53.8180   50.8190   32.0770 C.2    53  ASP53       0.2293
    120  O         54.8980   51.3510   31.8330 O.2    53  ASP53      -0.2864
    121  CB        53.5310   49.2600   34.0120 C.3    53  ASP53       0.1436
    122  CG        53.5090   49.1410   35.5240 C.2    53  ASP53       0.3671
    123  OD1       52.9760   48.1290   36.0270 O.co2  53  ASP53      -0.2456
    124  OD2       54.0300   50.0440   36.2120 O.co2  53  ASP53      -0.2456
    125  N         43.4810   59.6850   40.4690 N.3   128  GLY128     -0.1210
    126  CA        43.1990   58.4460   41.1850 C.3   128  GLY128      0.1956
    127  C         41.8390   58.4610   41.8450 C.2   128  GLY128      0.2612
    128  O         41.0920   59.4350   41.7270 O.2   128  GLY128     -0.2717
    129  N         41.5210   57.3720   42.5410 N.am  129  SER129     -0.1952
    130  CA        40.2480   57.2400   43.2510 C.3   129  SER129      0.1924
    131  C         40.2510   58.0040   44.5750 C.2   129  SER129      0.2314
    132  O         39.1960   58.2930   45.1360 O.2   129  SER129     -0.2863
    133  CB        39.8990   55.7660   43.4650 C.3   129  SER129      0.2116
    134  OG        41.0550   55.0170   43.8180 O.3   129  SER129     -0.2180
    135  N         40.3860   52.3200   47.8820 N.3   168  GLY168     -0.1225
    136  CA        41.3030   51.9070   46.8320 C.3   168  GLY168      0.1811
    137  C         42.7400   52.3220   47.0930 C.2   168  GLY168      0.2280
    138  O         43.6330   51.9770   46.3250 O.2   168  GLY168     -0.2866
@<TRIPOS>BOND
     1   108   107    2
     2   120   119    2
     3   119   118    1
     4   107   106    1
     5   109   106    1
     6   113   112    2
     7   110   111    1
     8    99    97    1
     9   106   105    1
    10    98    97    1
    11   112   117   am
    12   112   111    1
    13   118   117    1
    14   118   121    1
    15    97    94    1
    16   111   114    1
    17   121   122    1
    18    96    95    2
    19   105   102   am
    20    94    95    1
    21    94    93    1
    22   103   102    2
    23    95   100   am
    24   114   115    1
    25   114   116    1
    26   102   101    1
    27    93    91   am
    28   122   123   ar
    29   122   124   ar
    30    74    75    1
    31    74    71    1
    32    87    86    2
    33   100   101    1
    34    73    72    2
    35   101   104    1
    36    75    77   ar
    37    75    76   ar
    38    72    71    1
    39    91    90    1
    40    91    92    2
    41    77    79   ar
    42    76    78   ar
    43    90    89    1
    44    79    78   ar
    45    71    70    1
    46    86    89   am
    47    86    85    1
    48    81    80    1
    49    81    82    1
    50    84    82   am
    51    84    85    1
    52    82    83    2
    53    85    88    1
    54    64    63    2
    55   125   126    1
    56    58    57    2
    57    63    62    1
    58   126   127    1
    59    62    61    1
    60    62    65    1
    61    57    61   am
    62    57    56    1
    63   128   127    2
    64    27    26    2
    65    35    32    1
    66    35    36    1
    67   127   129   am
    68    65    66    1
    69    59    60    1
    70    59    56    1
    71     6     5    1
    72    32    33    1
    73    32    31    1
    74    40    33   am
    75    40    41    1
    76    66    67    1
    77     5     7    1
    78     5     2    1
    79   129   130    1
    80    56    55    1
    81    39    37   ar
    82    33    34    2
    83    41    42    1
    84    36    37    1
    85    26    31   am
    86    26    25    1
    87    55    51   am
    88    67    68    1
    89   130   133    1
    90   130   131    1
    91    23    20    1
    92    37    38   ar
    93   133   134    1
    94    53    54    1
    95    53    50    1
    96    68    69    1
    97     1     2    1
    98    29    28    1
    99    24    25    1
   100    24    21   am
   101     2     3    1
   102    48    45    1
   103    51    50    1
   104    51    52    2
   105    43    42    2
   106    25    28    1
   107    20    21    1
   108    20    19    1
   109     4     3    2
   110    50    49    1
   111    21    22    2
   112   131   132    2
   113    28    30    1
   114    11    10    2
   115    19    10   am
   116    45    46    1
   117    45    44    1
   118    10     9    1
   119    46    47    2
   120   138   137    2
   121   136   137    1
   122   136   135    1
   123     9     8    1
   124     9    12    1
   125    13    12    1
   126    13    14    1
   127    14    15    1
   128    15    16    2
   129    17    16    1
   130    16    18    1
