@<TRIPOS>MOLECULE
tmp/3unbN00.pdb
 157 149 0 0 0
SMALL
GASTEIGER

@<TRIPOS>ATOM
      1  N          5.5870   75.1120   26.5470 N.3     1  THR1       -0.1218
      2  CA         5.1930   76.3830   27.2330 C.3     1  THR1        0.1862
      3  C          6.3510   77.3130   27.5630 C.2     1  THR1        0.2287
      4  O          7.4310   76.8600   27.9150 O.2     1  THR1       -0.2866
      5  CB         4.4190   76.0000   28.5200 C.3     1  THR1        0.1770
      6  OG1        3.2960   75.2100   28.0970 O.3     1  THR1       -0.2211
      7  CG2        3.8170   77.1890   29.3110 C.3     1  THR1        0.0375
      8  N          1.0230   78.6920   22.9580 N.3    19  ARG19      -0.1231
      9  CA         1.3130   77.5050   22.1520 C.3    19  ARG19       0.1694
     10  C          1.1110   76.2140   22.9460 C.2    19  ARG19       0.2593
     11  O          1.5710   76.1000   24.0760 O.2    19  ARG19      -0.2718
     12  CB         2.7400   77.5800   21.5760 C.3    19  ARG19       0.0321
     13  CG         3.0880   76.4960   20.5590 C.3    19  ARG19       0.0489
     14  CD         4.3920   76.7850   19.8230 C.3    19  ARG19       0.2205
     15  NE         4.2480   77.8210   18.7960 N.pl3  19  ARG19      -0.0865
     16  CZ         5.1580   78.1110   17.8650 C.cat  19  ARG19       0.5346
     17  NH1        6.3070   77.4450   17.7980 N.pl3  19  ARG19       0.1354
     18  NH2        4.9110   79.0710   16.9840 N.pl3  19  ARG19       0.1354
     19  N          0.3940   75.2590   22.3590 N.am   20  THR20      -0.1939
     20  CA         0.3680   73.8890   22.8750 C.3    20  THR20       0.2028
     21  C          0.6930   72.8930   21.7630 C.2    20  THR20       0.2643
     22  O          0.1340   72.9670   20.6670 O.2    20  THR20      -0.2714
     23  CB        -0.9480   73.5160   23.6120 C.3    20  THR20       0.1808
     24  OG1       -1.0380   72.0920   23.7470 O.3    20  THR20      -0.2208
     25  CG2       -2.1590   73.9800   22.8820 C.3    20  THR20       0.0379
     26  N          1.5980   71.9630   22.0570 N.am   21  THR21      -0.1936
     27  CA         2.1130   71.0480   21.0440 C.3    21  THR21       0.2028
     28  C          1.7270   69.6010   21.3000 C.2    21  THR21       0.2643
     29  O          1.5340   69.1890   22.4460 O.2    21  THR21      -0.2714
     30  CB         3.6490   71.1310   20.9330 C.3    21  THR21       0.1808
     31  OG1        4.2390   70.8910   22.2170 O.3    21  THR21      -0.2208
     32  CG2        4.0850   72.5040   20.4210 C.3    21  THR21       0.0379
     33  N          1.6000   68.8480   20.2120 N.am   22  THR22      -0.1936
     34  CA         1.5210   67.3980   20.2610 C.3    22  THR22       0.2028
     35  C          2.7120   66.9000   19.4570 C.2    22  THR22       0.2642
     36  O          2.6010   66.6230   18.2620 O.2    22  THR22      -0.2714
     37  CB         0.2050   66.8650   19.6620 C.3    22  THR22       0.1808
     38  OG1        0.0040   67.4320   18.3630 O.3    22  THR22      -0.2208
     39  CG2       -0.9730   67.2230   20.5480 C.3    22  THR22       0.0379
     40  N          3.8650   66.8190   20.1150 N.am   23  GLY23      -0.1954
     41  CA         5.1160   66.5130   19.4300 C.3    23  GLY23       0.1869
     42  C          5.6890   67.7760   18.8180 C.2    23  GLY23       0.2309
     43  O          6.1090   68.6820   19.5370 O.2    23  GLY23      -0.2863
     44  N         -1.1050   72.0000   18.2730 N.3    27  ALA27      -0.1245
     45  CA        -2.5150   71.6280   18.3580 C.3    27  ALA27       0.1562
     46  C         -3.4110   72.8570   18.5180 C.2    27  ALA27       0.2260
     47  O         -4.4440   72.9690   17.8530 O.2    27  ALA27      -0.2867
     48  CB        -2.7340   70.6500   19.5010 C.3    27  ALA27       0.0290
     49  N         -3.7790   79.2060   22.9260 N.3    31  THR31      -0.1203
     50  CA        -4.2530   78.6510   24.1990 C.3    31  THR31       0.1994
     51  C         -4.2970   79.6770   25.3320 C.2    31  THR31       0.2618
     52  O         -3.4750   80.5990   25.3890 O.2    31  THR31      -0.2717
     53  CB        -3.3470   77.4920   24.6530 C.3    31  THR31       0.1784
     54  OG1       -2.9660   76.7170   23.5140 O.3    31  THR31      -0.2211
     55  CG2       -4.0620   76.5960   25.6600 C.3    31  THR31       0.0376
     56  N         -5.2680   79.5010   26.2290 N.am   32  ASP32      -0.1959
     57  CA        -5.3260   80.2510   27.4770 C.3    32  ASP32       0.1840
     58  C         -4.7440   79.3850   28.5920 C.2    32  ASP32       0.2621
     59  O         -5.4160   78.4990   29.1220 O.2    32  ASP32      -0.2715
     60  CB        -6.7690   80.6650   27.7930 C.3    32  ASP32       0.1450
     61  CG        -6.8710   81.5750   29.0120 C.2    32  ASP32       0.3671
     62  OD1       -5.9050   82.3160   29.2980 O.co2  32  ASP32      -0.2456
     63  OD2       -7.9270   81.5550   29.6840 O.co2  32  ASP32      -0.2456
     64  N         -3.4850   79.6450   28.9330 N.am   33  LYS33      -0.1977
     65  CA        -2.7720   78.8500   29.9360 C.3    33  LYS33       0.1596
     66  C         -2.9690   79.3660   31.3560 C.2    33  LYS33       0.2287
     67  O         -2.5670   78.7160   32.3190 O.2    33  LYS33      -0.2864
     68  CB        -1.2820   78.7860   29.6090 C.3    33  LYS33       0.0298
     69  CG        -0.9830   78.0380   28.3280 C.3    33  LYS33       0.0038
     70  CD         0.5010   77.9840   28.0360 C.3    33  LYS33       0.0206
     71  CE         0.7440   77.1550   26.7900 C.3    33  LYS33       0.1093
     72  NZ         2.1590   77.2020   26.3360 N.3    33  LYS33      -0.1314
     73  N         -0.1290   77.1730   33.9490 N.3    45  ARG45      -0.1231
     74  CA         0.0280   75.7470   33.6920 C.3    45  ARG45       0.1694
     75  C          1.1300   75.4650   32.6740 C.2    45  ARG45       0.2593
     76  O          1.1660   76.0690   31.6020 O.2    45  ARG45      -0.2718
     77  CB        -1.2940   75.1220   33.2210 C.3    45  ARG45       0.0321
     78  CG        -2.5370   75.6020   33.9600 C.3    45  ARG45       0.0489
     79  CD        -3.6020   74.5210   34.0810 C.3    45  ARG45       0.2205
     80  NE        -3.8130   73.7510   32.8530 N.pl3  45  ARG45      -0.0865
     81  CZ        -4.7000   74.0500   31.9050 C.cat  45  ARG45       0.5346
     82  NH1       -5.4760   75.1210   32.0170 N.pl3  45  ARG45       0.1354
     83  NH2       -4.8100   73.2720   30.8360 N.pl3  45  ARG45       0.1354
     84  N          2.0280   74.5500   33.0270 N.am   46  SER46      -0.1938
     85  CA         3.0500   74.0640   32.1040 C.3    46  SER46       0.2055
     86  C          3.2560   72.5660   32.2820 C.2    46  SER46       0.2644
     87  O          3.0590   72.0250   33.3720 O.2    46  SER46      -0.2714
     88  CB         4.3710   74.8120   32.2920 C.3    46  SER46       0.2130
     89  OG         5.0010   74.4520   33.5080 O.3    46  SER46      -0.2179
     90  N          3.6600   71.9060   31.2020 N.am   47  GLY47      -0.1939
     91  CA         3.8300   70.4630   31.2000 C.3    47  GLY47       0.2014
     92  C          2.6830   69.8080   30.4660 C.2    47  GLY47       0.2640
     93  O          2.2270   70.3160   29.4440 O.2    47  GLY47      -0.2714
     94  N          2.2130   68.6810   30.9910 N.am   48  SER48      -0.1935
     95  CA         1.1390   67.9300   30.3540 C.3    48  SER48       0.2055
     96  C         -0.1730   68.6950   30.4140 C.2    48  SER48       0.2643
     97  O         -0.6200   69.0850   31.4930 O.2    48  SER48      -0.2714
     98  CB         0.9840   66.5580   31.0070 C.3    48  SER48       0.2130
     99  OG        -0.1640   65.8860   30.5120 O.3    48  SER48      -0.2179
    100  N         -0.7800   68.9080   29.2480 N.am   49  ALA49      -0.1963
    101  CA        -2.0420   69.6430   29.1480 C.3    49  ALA49       0.1728
    102  C         -3.1420   68.9830   29.9720 C.2    49  ALA49       0.2616
    103  O         -3.8420   69.6590   30.7230 O.2    49  ALA49      -0.2715
    104  CB        -2.4750   69.7860   27.6950 C.3    49  ALA49       0.0334
    105  N         -3.2690   67.6640   29.8470 N.am   50  ALA50      -0.1963
    106  CA        -4.3170   66.9150   30.5410 C.3    50  ALA50       0.1728
    107  C         -4.0990   66.8360   32.0540 C.2    50  ALA50       0.2616
    108  O         -5.0590   66.9430   32.8210 O.2    50  ALA50      -0.2715
    109  CB        -4.4670   65.5210   29.9430 C.3    50  ALA50       0.0334
    110  N         -2.8440   66.6610   32.4750 N.am   51  ASP51      -0.1957
    111  CA        -2.4960   66.5600   33.8980 C.3    51  ASP51       0.1840
    112  C         -2.7710   67.8560   34.6540 C.2    51  ASP51       0.2623
    113  O         -3.4690   67.8550   35.6650 O.2    51  ASP51      -0.2715
    114  CB        -1.0270   66.1600   34.0790 C.3    51  ASP51       0.1450
    115  CG        -0.7690   64.6970   33.7660 C.2    51  ASP51       0.3671
    116  OD1       -1.7350   63.9050   33.6950 O.co2  51  ASP51      -0.2456
    117  OD2        0.4160   64.3350   33.6020 O.co2  51  ASP51      -0.2456
    118  N         -2.2210   68.9570   34.1510 N.am   52  THR52      -0.1937
    119  CA        -2.3900   70.2710   34.7690 C.3    52  THR52       0.2028
    120  C         -3.8550   70.7010   34.7710 C.2    52  THR52       0.2642
    121  O         -4.3060   71.3830   35.6890 O.2    52  THR52      -0.2714
    122  CB        -1.5620   71.3410   34.0400 C.3    52  THR52       0.1808
    123  OG1       -1.8720   71.3090   32.6420 O.3    52  THR52      -0.2208
    124  CG2       -0.0740   71.0910   34.2270 C.3    52  THR52       0.0379
    125  N         -4.5830   70.2900   33.7340 N.am   53  GLN53      -0.1976
    126  CA        -6.0030   70.6000   33.5850 C.3    53  GLN53       0.1601
    127  C         -6.8370   69.9230   34.6670 C.2    53  GLN53       0.2287
    128  O         -7.7420   70.5360   35.2280 O.2    53  GLN53      -0.2864
    129  CB        -6.4910   70.1640   32.2010 C.3    53  GLN53       0.0394
    130  CG        -7.8060   70.7800   31.7530 C.3    53  GLN53       0.0908
    131  CD        -8.0640   70.5790   30.2710 C.2    53  GLN53       0.2608
    132  OE1       -9.1150   70.0780   29.8780 O.2    53  GLN53      -0.2717
    133  NE2       -7.0980   70.9650   29.4400 N.am   53  GLN53      -0.0878
    134  N          2.8590   65.1950   35.0320 N.3    95  MET95      -0.1245
    135  CA         3.8970   66.0400   34.4580 C.3    95  MET95       0.1570
    136  C          3.4180   67.4790   34.5890 C.2    95  MET95       0.2261
    137  O          2.9400   68.0790   33.6230 O.2    95  MET95      -0.2867
    138  CB         4.1430   65.6840   32.9890 C.3    95  MET95       0.0387
    139  CG         4.6450   64.2670   32.7480 C.3    95  MET95       0.0595
    140  SD         6.4160   64.0560   33.0130 S.3    95  MET95      -0.1393
    141  CE         7.0890   64.9880   31.6360 C.3    95  MET95       0.0692
    142  N          8.1010   76.3540   32.6010 N.3   129  GLY129     -0.1210
    143  CA         7.9200   75.8540   31.2380 C.3   129  GLY129      0.1956
    144  C          9.2340   75.6390   30.5120 C.2   129  GLY129      0.2612
    145  O         10.2870   76.0920   30.9650 O.2   129  GLY129     -0.2717
    146  N          9.1690   74.9530   29.3740 N.am  130  SER130     -0.1952
    147  CA        10.3590   74.6310   28.5840 C.3   130  SER130      0.1924
    148  C         11.0910   75.8800   28.1110 C.2   130  SER130      0.2314
    149  O         12.3230   75.9100   28.0760 O.2   130  SER130     -0.2863
    150  CB         9.9910   73.7550   27.3820 C.3   130  SER130      0.2116
    151  OG         9.0860   74.4210   26.5150 O.3   130  SER130     -0.2180
    152  N          8.7380   75.2020   21.4010 N.3   169  SER169     -0.1217
    153  CA         7.5490   74.8130   22.1510 C.3   169  SER169      0.1889
    154  C          6.7560   76.0260   22.6530 C.2   169  SER169      0.2288
    155  O          5.6610   75.8770   23.2010 O.2   169  SER169     -0.2866
    156  CB         7.9410   73.9180   23.3300 C.3   169  SER169      0.2089
    157  OG         8.8840   72.9360   22.9410 O.3   169  SER169     -0.2183
@<TRIPOS>BOND
     1    18    16    1
     2    17    16    1
     3    47    46    2
     4    16    15    2
     5    36    35    2
     6    44    45    1
     7    45    46    1
     8    45    48    1
     9    38    37    1
    10    15    14    1
    11    42    41    1
    12    42    43    2
    13    41    40    1
    14    35    40   am
    15    35    34    1
    16    37    34    1
    17    37    39    1
    18    14    13    1
    19    33    34    1
    20    33    28   am
    21    32    30    1
    22    13    12    1
    23    22    21    2
    24    30    27    1
    25    30    31    1
    26    27    28    1
    27    27    26    1
    28    28    29    2
    29   152   153    1
    30    12     9    1
    31    21    26   am
    32    21    20    1
    33   153   154    1
    34   153   156    1
    35     9    10    1
    36     9     8    1
    37    19    20    1
    38    19    10   am
    39   154   155    2
    40    20    23    1
    41    25    23    1
    42    49    50    1
    43   157   156    1
    44    10    11    2
    45    54    53    1
    46    23    24    1
    47    50    53    1
    48    50    51    1
    49    53    55    1
    50    51    52    2
    51    51    56   am
    52    56    57    1
    53    72    71    1
    54   151   150    1
    55     1     2    1
    56    71    70    1
    57     2     3    1
    58     2     5    1
    59   150   147    1
    60    57    60    1
    61    57    58    1
    62     3     4    2
    63   104   101    1
    64    60    61    1
    65    70    69    1
    66   149   148    2
    67     6     5    1
    68   148   147    1
    69    69    68    1
    70     5     7    1
    71   147   146    1
    72    58    64   am
    73    58    59    2
    74    64    65    1
    75    61    62   ar
    76    61    63   ar
    77   101   100    1
    78   101   102    1
    79   100    96   am
    80   146   144   am
    81   133   131   am
    82    93    92    2
    83    68    65    1
    84   105   102   am
    85   105   106    1
    86   132   131    2
    87    65    66    1
    88   109   106    1
    89   102   103    2
    90   131   130    1
    91    95    96    1
    92    95    94    1
    93    95    98    1
    94    96    97    2
    95    92    94   am
    96    92    91    1
    97   144   145    2
    98   144   143    1
    99    99    98    1
   100   106   107    1
   101    83    81    1
   102    91    90    1
   103    90    86   am
   104   143   142    1
   105    66    67    2
   106    76    75    2
   107   141   140    1
   108   130   129    1
   109    81    82    1
   110    81    80    2
   111   107   110   am
   112   107   108    2
   113    85    86    1
   114    85    88    1
   115    85    84    1
   116   129   126    1
   117    86    87    2
   118    88    89    1
   119   110   111    1
   120   123   122    1
   121    75    84   am
   122    75    74    1
   123   139   138    1
   124   139   140    1
   125    80    79    1
   126   138   135    1
   127    77    74    1
   128    77    78    1
   129   126   125    1
   130   126   127    1
   131   117   115   ar
   132   137   136    2
   133    74    73    1
   134   116   115   ar
   135   125   120   am
   136   115   114    1
   137   111   114    1
   138   111   112    1
   139    78    79    1
   140   122   124    1
   141   122   119    1
   142   118   112   am
   143   118   119    1
   144   135   136    1
   145   135   134    1
   146   112   113    2
   147   127   128    2
   148   119   120    1
   149   120   121    2
