@<TRIPOS>MOLECULE
tmp/3unbY00.pdb
 143 134 0 0 0
SMALL
GASTEIGER

@<TRIPOS>ATOM
      1  N          8.0560   23.3240    2.3190 N.3     1  THR1       -0.1218
      2  CA         8.4260   22.1880    1.4330 C.3     1  THR1        0.1862
      3  C          8.2030   20.8540    2.1060 C.2     1  THR1        0.2287
      4  O          8.4220   20.7100    3.3000 O.2     1  THR1       -0.2866
      5  CB         9.9070   22.3490    1.0150 C.3     1  THR1        0.1770
      6  OG1        9.9970   23.6270    0.3710 O.3     1  THR1       -0.2211
      7  CG2       10.4040   21.3120   -0.0250 C.3     1  THR1        0.0375
      8  N          4.9280   23.5660   -3.6390 N.3    19  ARG19      -0.1231
      9  CA         4.4760   24.7690   -2.9420 C.3    19  ARG19       0.1694
     10  C          5.6390   25.6920   -2.5540 C.2    19  ARG19       0.2592
     11  O          6.7020   25.2280   -2.1410 O.2    19  ARG19      -0.2718
     12  CB         3.6400   24.3940   -1.7100 C.3    19  ARG19       0.0321
     13  CG         3.0770   25.5820   -0.9400 C.3    19  ARG19       0.0489
     14  CD         2.0700   25.1550    0.1110 C.3    19  ARG19       0.2205
     15  NE         0.7960   24.7810   -0.4920 N.pl3  19  ARG19      -0.0865
     16  CZ        -0.3220   24.5410    0.1870 C.cat  19  ARG19       0.5346
     17  NH1       -0.3450   24.6410    1.5120 N.pl3  19  ARG19       0.1354
     18  NH2       -1.4250   24.2060   -0.4680 N.pl3  19  ARG19       0.1354
     19  N          5.4250   26.9980   -2.7070 N.am   20  ALA20      -0.1966
     20  CA         6.3390   28.0120   -2.1890 C.3    20  ALA20       0.1728
     21  C          5.5460   29.0470   -1.3950 C.2    20  ALA20       0.2617
     22  O          4.5220   29.5430   -1.8660 O.2    20  ALA20      -0.2715
     23  CB         7.1050   28.6730   -3.3220 C.3    20  ALA20       0.0334
     24  N          6.0140   29.3640   -0.1890 N.am   21  THR21      -0.1937
     25  CA         5.2890   30.2770    0.7020 C.3    21  THR21       0.2028
     26  C          6.0900   31.5160    1.1010 C.2    21  THR21       0.2642
     27  O          7.3100   31.4610    1.2640 O.2    21  THR21      -0.2714
     28  CB         4.7950   29.5710    1.9890 C.3    21  THR21       0.1808
     29  OG1        5.8910   28.9000    2.6280 O.3    21  THR21      -0.2208
     30  CG2        3.6850   28.5660    1.6780 C.3    21  THR21       0.0379
     31  N          5.3800   32.6320    1.2470 N.am   22  ALA22      -0.1963
     32  CA         5.9300   33.8650    1.8030 C.3    22  ALA22       0.1728
     33  C          5.0980   34.2470    3.0280 C.2    22  ALA22       0.2616
     34  O          4.1160   34.9870    2.9240 O.2    22  ALA22      -0.2715
     35  CB         5.9130   34.9720    0.7610 C.3    22  ALA22       0.0334
     36  N          5.4930   33.7270    4.1870 N.am   23  GLY23      -0.1955
     37  CA         4.6810   33.8230    5.3990 C.3    23  GLY23       0.1869
     38  C          3.5460   32.8170    5.3330 C.2    23  GLY23       0.2309
     39  O          3.7710   31.6350    5.0550 O.2    23  GLY23      -0.2863
     40  N          2.8400   31.4690   -2.4170 N.3    27  ALA27      -0.1245
     41  CA         3.3820   32.2330   -3.5370 C.3    27  ALA27       0.1562
     42  C          3.2290   31.4910   -4.8610 C.2    27  ALA27       0.2260
     43  O          2.8650   32.0870   -5.8770 O.2    27  ALA27      -0.2867
     44  CB         4.8410   32.5810   -3.2820 C.3    27  ALA27       0.0290
     45  N          6.2600   25.0190   -8.4970 N.3    31  VAL31      -0.1245
     46  CA         7.7040   25.1190   -8.3380 C.3    31  VAL31       0.1561
     47  C          8.3670   23.7730   -8.6100 C.2    31  VAL31       0.2260
     48  O          8.0010   22.7630   -8.0030 O.2    31  VAL31      -0.2867
     49  CB         8.0840   25.5900   -6.9170 C.3    31  VAL31       0.0252
     50  CG1        9.5930   25.6290   -6.7550 C.3    31  VAL31       0.0019
     51  CG2        7.4960   26.9590   -6.6240 C.3    31  VAL31       0.0019
     52  N         11.0990   21.6290   -7.7280 N.3    33  LYS33      -0.1245
     53  CA        12.0340   21.5430   -6.6010 C.3    33  LYS33       0.1561
     54  C         13.1890   20.5670   -6.8260 C.2    33  LYS33       0.2260
     55  O         14.1520   20.5490   -6.0580 O.2    33  LYS33      -0.2867
     56  CB        11.2890   21.2160   -5.3050 C.3    33  LYS33       0.0271
     57  CG        10.3700   22.3400   -4.8540 C.3    33  LYS33       0.0035
     58  CD         9.7320   22.0590   -3.5070 C.3    33  LYS33       0.0206
     59  CE         8.7290   23.1450   -3.1760 C.3    33  LYS33       0.1093
     60  NZ         8.0950   22.9390   -1.8500 N.3    33  LYS33      -0.1314
     61  N         15.3110   20.6330   -3.5560 N.3    45  MET45      -0.1230
     62  CA        15.3080   21.9580   -2.9330 C.3    45  MET45       0.1702
     63  C         14.3290   22.0620   -1.7660 C.2    45  MET45       0.2592
     64  O         13.1570   21.6930   -1.8860 O.2    45  MET45      -0.2718
     65  CB        14.9960   23.0410   -3.9630 C.3    45  MET45       0.0401
     66  CG        16.0610   23.2170   -5.0270 C.3    45  MET45       0.0596
     67  SD        15.6750   24.5860   -6.1280 S.3    45  MET45      -0.1393
     68  CE        16.9870   24.4010   -7.3270 C.3    45  MET45       0.0692
     69  N         14.8270   22.5690   -0.6410 N.am   46  ALA46      -0.1966
     70  CA        14.0180   22.8070    0.5500 C.3    46  ALA46       0.1728
     71  C         14.6590   23.9020    1.3930 C.2    46  ALA46       0.2617
     72  O         15.8720   23.8930    1.6130 O.2    46  ALA46      -0.2715
     73  CB        13.8640   21.5290    1.3630 C.3    46  ALA46       0.0334
     74  N         13.8390   24.8400    1.8590 N.am   47  GLY47      -0.1940
     75  CA        14.3150   25.9660    2.6550 C.3    47  GLY47       0.2014
     76  C         14.1420   27.2710    1.9120 C.2    47  GLY47       0.2639
     77  O         13.1220   27.4890    1.2620 O.2    47  GLY47      -0.2714
     78  N         15.1430   28.1410    2.0110 N.am   48  GLY48      -0.1939
     79  CA        15.1260   29.4370    1.3330 C.3    48  GLY48       0.2014
     80  C         15.0580   29.2560   -0.1670 C.2    48  GLY48       0.2639
     81  O         15.9080   28.5850   -0.7480 O.2    48  GLY48      -0.2714
     82  N         14.0390   29.8520   -0.7840 N.am   49  ALA49      -0.1963
     83  CA        13.7650   29.6790   -2.2130 C.3    49  ALA49       0.1728
     84  C         14.9380   30.0730   -3.1080 C.2    49  ALA49       0.2616
     85  O         15.3730   29.2840   -3.9450 O.2    49  ALA49      -0.2715
     86  CB        12.5080   30.4370   -2.6140 C.3    49  ALA49       0.0334
     87  N         15.4460   31.2880   -2.9280 N.am   50  ALA50      -0.1963
     88  CA        16.5620   31.7760   -3.7340 C.3    50  ALA50       0.1728
     89  C         17.8730   31.0670   -3.3930 C.2    50  ALA50       0.2616
     90  O         18.6930   30.8120   -4.2770 O.2    50  ALA50      -0.2715
     91  CB        16.7110   33.2810   -3.5840 C.3    50  ALA50       0.0334
     92  N         18.0610   30.7510   -2.1140 N.am   51  ASP51      -0.1957
     93  CA        19.2670   30.0720   -1.6490 C.3    51  ASP51       0.1840
     94  C         19.4590   28.7180   -2.3270 C.2    51  ASP51       0.2622
     95  O         20.5580   28.3970   -2.7830 O.2    51  ASP51      -0.2715
     96  CB        19.2360   29.9050   -0.1280 C.3    51  ASP51       0.1450
     97  CG        19.2340   31.2310    0.6030 C.2    51  ASP51       0.3671
     98  OD1       19.4750   32.2740   -0.0400 O.co2  51  ASP51      -0.2456
     99  OD2       18.9960   31.2300    1.8270 O.co2  51  ASP51      -0.2456
    100  N         18.3870   27.9350   -2.3970 N.am   52  CYS52      -0.1954
    101  CA        18.4460   26.6190   -3.0130 C.3    52  CYS52       0.1843
    102  C         18.6710   26.7240   -4.5160 C.2    52  CYS52       0.2626
    103  O         19.4370   25.9450   -5.0880 O.2    52  CYS52      -0.2714
    104  CB        17.1700   25.8390   -2.7190 C.3    52  CYS52       0.0997
    105  SG        16.9670   25.4310   -0.9760 S.3    52  CYS52      -0.0797
    106  N         18.0180   27.7010   -5.1430 N.am   53  SER53      -0.1950
    107  CA        18.1080   27.8820   -6.5860 C.3    53  SER53       0.1924
    108  C         19.4930   28.3480   -7.0210 C.2    53  SER53       0.2314
    109  O         20.0440   27.8340   -7.9940 O.2    53  SER53      -0.2863
    110  CB        17.0270   28.8430   -7.0760 C.3    53  SER53       0.2116
    111  OG        15.7400   28.3000   -6.8410 O.3    53  SER53      -0.2180
    112  N         22.8940   33.4460    7.6530 N.3    94  GLY94      -0.1225
    113  CA        21.4600   33.5150    7.3780 C.3    94  GLY94       0.1811
    114  C         20.9400   32.6060    6.2760 C.2    94  GLY94       0.2280
    115  O         19.7300   32.5410    6.0530 O.2    94  GLY94      -0.2866
    116  N         19.6010   29.4250    4.4110 N.3    96  SER96      -0.1217
    117  CA        18.7280   28.3550    4.8780 C.3    96  SER96       0.1889
    118  C         18.3660   27.3960    3.7490 C.2    96  SER96       0.2288
    119  O         17.4550   27.6680    2.9660 O.2    96  SER96      -0.2866
    120  CB        17.4580   28.9500    5.4910 C.3    96  SER96       0.2089
    121  OG        16.5400   27.9370    5.8520 O.3    96  SER96      -0.2183
    122  N         12.5470   18.9110    4.7400 N.3   129  GLY129     -0.1210
    123  CA        11.5420   19.9670    4.6520 C.3   129  GLY129      0.1956
    124  C         10.7350   20.1490    5.9210 C.2   129  GLY129      0.2612
    125  O         11.0020   19.5020    6.9360 O.2   129  GLY129     -0.2717
    126  N          9.7450   21.0380    5.8580 N.am  130  SER130     -0.1952
    127  CA         8.8820   21.3280    7.0040 C.3   130  SER130      0.1924
    128  C          7.9040   20.1900    7.2860 C.2   130  SER130      0.2314
    129  O          7.5350   19.9540    8.4400 O.2   130  SER130     -0.2863
    130  CB         8.1290   22.6470    6.8030 C.3   130  SER130      0.2116
    131  OG         7.4040   22.6470    5.5870 O.3   130  SER130     -0.2180
    132  N          2.7150   24.1670    4.9040 N.3   169  TYR169     -0.1241
    133  CA         3.7220   24.6850    3.9840 C.3   169  TYR169      0.1605
    134  C          4.1760   23.6050    3.0060 C.2   169  TYR169      0.2264
    135  O          5.3290   23.5710    2.5780 O.2   169  TYR169     -0.2867
    136  CB         4.8960   25.2910    4.7660 C.3   169  TYR169      0.0534
    137  CG         4.4530   26.3130    5.7940 C.ar  169  TYR169     -0.0201
    138  CD1        4.3020   25.9600    7.1360 C.ar  169  TYR169     -0.0009
    139  CD2        4.1560   27.6240    5.4210 C.ar  169  TYR169     -0.0009
    140  CE1        3.8810   26.8870    8.0770 C.ar  169  TYR169      0.0417
    141  CE2        3.7350   28.5580    6.3560 C.ar  169  TYR169      0.0417
    142  CZ         3.5990   28.1840    7.6800 C.ar  169  TYR169      0.1957
    143  OH         3.1790   29.1070    8.6080 O.3   169  TYR169     -0.2866
@<TRIPOS>BOND
     1    47    46    1
     2    47    48    2
     3    45    46    1
     4    46    49    1
     5   109   108    2
     6    52    53    1
     7    68    67    1
     8   110   111    1
     9   110   107    1
    10   108   107    1
    11    49    50    1
    12    49    51    1
    13    54    53    1
    14    54    55    2
    15    53    56    1
    16   107   106    1
    17    67    66    1
    18    43    42    2
    19    56    57    1
    20   106   102   am
    21   103   102    2
    22    66    65    1
    23    42    41    1
    24    57    58    1
    25   102   101    1
    26    90    89    2
    27    65    62    1
    28    85    84    2
    29    88    91    1
    30    88    89    1
    31    88    87    1
    32     8     9    1
    33    61    62    1
    34    41    44    1
    35    41    40    1
    36    58    59    1
    37    89    92   am
    38    23    20    1
    39    59    60    1
    40    84    87   am
    41    84    83    1
    42   101   104    1
    43   101   100    1
    44     9    10    1
    45     9    12    1
    46    62    63    1
    47    95    94    2
    48   104   105    1
    49    19    10   am
    50    19    20    1
    51    86    83    1
    52    10    11    2
    53   100    94   am
    54    94    93    1
    55    83    82    1
    56    20    21    1
    57    92    93    1
    58    64    63    2
    59    22    21    2
    60    63    69   am
    61    12    13    1
    62    93    96    1
    63    21    24   am
    64    13    14    1
    65    82    80   am
    66    81    80    2
    67    69    70    1
    68    15    14    1
    69    15    16    2
    70    18    16    1
    71    24    25    1
    72    80    79    1
    73    96    97    1
    74    98    97   ar
    75     7     5    1
    76    16    17    1
    77     6     5    1
    78    70    73    1
    79    70    71    1
    80    97    99   ar
    81    25    26    1
    82    25    28    1
    83    35    32    1
    84     5     2    1
    85    26    31   am
    86    26    27    2
    87    31    32    1
    88    77    76    2
    89    79    78    1
    90    71    72    2
    91    71    74   am
    92     2     3    1
    93     2     1    1
    94    30    28    1
    95    32    33    1
    96    74    75    1
    97    76    78   am
    98    76    75    1
    99    28    29    1
   100     3     4    2
   101   135   134    2
   102    34    33    2
   103   119   118    2
   104   134   133    1
   105    33    36   am
   106   118   117    1
   107   133   136    1
   108   133   132    1
   109    36    37    1
   110   116   117    1
   111   123   122    1
   112   123   124    1
   113   136   137    1
   114   117   120    1
   115    39    38    2
   116    38    37    1
   117   139   137   ar
   118   139   141   ar
   119   120   121    1
   120   131   130    1
   121   137   138   ar
   122   126   124   am
   123   126   127    1
   124   124   125    2
   125   115   114    2
   126   114   113    1
   127   141   142   ar
   128   130   127    1
   129   127   128    1
   130   138   140   ar
   131   128   129    2
   132   113   112    1
   133   142   140   ar
   134   142   143    1
