@<TRIPOS>MOLECULE
tmp/3undB01.pdb
 141 132 0 0 0
SMALL
GASTEIGER

@<TRIPOS>ATOM
      1  N         -1.0030  -19.8730  -44.2150 N.3    56  LYS56      -0.1245
      2  CA        -0.9030  -18.4060  -44.3760 C.3    56  LYS56       0.1561
      3  C          0.4850  -17.9430  -44.8200 C.2    56  LYS56       0.2260
      4  O          1.5030  -18.4380  -44.3340 O.2    56  LYS56      -0.2867
      5  CB        -1.2330  -17.6860  -43.0500 C.3    56  LYS56       0.0271
      6  CG        -1.3100  -16.1270  -43.1500 C.3    56  LYS56       0.0035
      7  CD        -0.0100  -15.4420  -42.7700 C.3    56  LYS56       0.0206
      8  CE         0.0250  -13.9730  -43.2420 C.3    56  LYS56       0.1093
      9  NZ         1.2400  -13.1770  -42.8530 N.3    56  LYS56      -0.1314
     10  N          2.0850  -13.8360  -46.5490 N.3    58  SER58      -0.1217
     11  CA         1.8930  -12.6160  -47.3490 C.3    58  SER58       0.1889
     12  C          2.8110  -12.6580  -48.5750 C.2    58  SER58       0.2288
     13  O          4.0040  -12.9810  -48.4640 O.2    58  SER58      -0.2866
     14  CB         2.2320  -11.3750  -46.5150 C.3    58  SER58       0.2089
     15  OG         1.4760  -11.3120  -45.3180 O.3    58  SER58      -0.2183
     16  N          4.5610   -7.2860  -48.0360 N.3    61  LYS61      -0.1245
     17  CA         4.3960   -6.4610  -46.8570 C.3    61  LYS61       0.1561
     18  C          4.3350   -5.0120  -47.3700 C.2    61  LYS61       0.2260
     19  O          5.3840   -4.3560  -47.6080 O.2    61  LYS61      -0.2867
     20  CB         5.5480   -6.6620  -45.8720 C.3    61  LYS61       0.0271
     21  CG         5.9380   -8.1030  -45.6010 C.3    61  LYS61       0.0035
     22  CD         4.7370   -8.9850  -45.2550 C.3    61  LYS61       0.0206
     23  CE         4.1350   -8.6480  -43.8950 C.3    61  LYS61       0.1093
     24  NZ         3.1920   -9.7350  -43.4990 N.3    61  LYS61      -0.1314
     25  N          3.1670   -2.3990  -45.8160 N.3    63  ASN63      -0.1240
     26  CA         3.0760   -1.4560  -44.7220 C.3    63  ASN63       0.1653
     27  C          4.2810   -1.5030  -43.7760 C.2    63  ASN63       0.2266
     28  O          4.1570   -1.1790  -42.6010 O.2    63  ASN63      -0.2867
     29  CB         1.7810   -1.6950  -43.9180 C.3    63  ASN63       0.1155
     30  CG         1.8070   -2.9870  -43.1170 C.2    63  ASN63       0.2627
     31  OD1        2.5050   -3.9120  -43.4710 O.2    63  ASN63      -0.2716
     32  ND2        1.0910   -3.0240  -42.0200 N.am   63  ASN63      -0.0877
     33  N         -3.1060  -11.8710  -47.5840 N.3    96  ASP96      -0.1239
     34  CA        -3.6660  -10.5410  -47.4990 C.3    96  ASP96       0.1674
     35  C         -3.5640   -9.7450  -48.8120 C.2    96  ASP96       0.2266
     36  O         -2.6480   -9.9480  -49.6170 O.2    96  ASP96      -0.2867
     37  CB        -3.1340   -9.7260  -46.2740 C.3    96  ASP96       0.1410
     38  CG        -1.6130   -9.6960  -46.1650 C.2    96  ASP96       0.3668
     39  OD1       -0.9170  -10.5970  -46.7160 O.co2  96  ASP96      -0.2456
     40  OD2       -1.1120   -8.8060  -45.4580 O.co2  96  ASP96      -0.2456
     41  N         -3.7880   -5.8480  -50.6630 N.3    98  HIS98      -0.1241
     42  CA        -3.4820   -4.4540  -50.3370 C.3    98  HIS98       0.1621
     43  C         -4.0720   -3.3850  -51.2350 C.2    98  HIS98       0.2264
     44  O         -4.1020   -2.2290  -50.8540 O.2    98  HIS98      -0.2867
     45  CB        -1.9700   -4.3110  -50.2970 C.3    98  HIS98       0.0745
     46  CG        -1.3140   -5.4260  -49.5500 C.ar   98  HIS98       0.0817
     47  ND1       -1.3150   -5.4790  -48.2120 N.ar   98  HIS98      -0.2268
     48  CD2       -0.6890   -6.5960  -49.9940 C.ar   98  HIS98       0.1154
     49  CE1       -0.6990   -6.6000  -47.7950 C.ar   98  HIS98       0.1986
     50  NE2       -0.3090   -7.2960  -48.8780 N.ar   98  HIS98      -0.2212
     51  N         -7.5920  -11.8630  -47.0070 N.3   114  GLN114     -0.1245
     52  CA        -7.5160  -11.1250  -45.7620 C.3   114  GLN114      0.1566
     53  C         -7.4380   -9.6230  -46.0220 C.2   114  GLN114      0.2260
     54  O         -6.6530   -9.1530  -46.8800 O.2   114  GLN114     -0.2867
     55  CB        -6.3070  -11.5870  -44.9820 C.3   114  GLN114      0.0367
     56  CG        -6.0090  -10.7960  -43.7160 C.3   114  GLN114      0.0905
     57  CD        -4.9810  -11.4810  -42.8810 C.2   114  GLN114      0.2608
     58  OE1       -5.2430  -12.5550  -42.3500 O.2   114  GLN114     -0.2717
     59  NE2       -3.8200  -10.8940  -42.7550 N.am  114  GLN114     -0.0878
     60  N         -6.1300   -6.3330  -44.6090 N.3   116  PRO116     -0.2102
     61  CA        -5.2120   -5.8540  -43.5730 C.3   116  PRO116      0.1504
     62  C         -5.8280   -4.9090  -42.5130 C.2   116  PRO116      0.2576
     63  O         -6.6730   -4.0540  -42.8360 O.2   116  PRO116     -0.2718
     64  CB        -4.1340   -5.1250  -44.3670 C.3   116  PRO116      0.0282
     65  CG        -4.2410   -5.7050  -45.7550 C.3   116  PRO116      0.0208
     66  CD        -5.6730   -6.0110  -45.9580 C.3   116  PRO116      0.0893
     67  N         -5.3110   -5.0150  -41.2840 N.am  117  ALA117     -0.1966
     68  CA        -5.7740   -4.2290  -40.1580 C.3   117  ALA117      0.1728
     69  C         -5.8740   -2.6920  -40.4470 C.2   117  ALA117      0.2616
     70  O         -6.9740   -2.0830  -40.2860 O.2   117  ALA117     -0.2715
     71  CB        -4.9240   -4.5380  -38.9130 C.3   117  ALA117      0.0334
     72  N         -4.8120   -2.0880  -41.0030 N.am  118  PHE118     -0.1974
     73  CA        -4.8410   -0.6550  -41.2460 C.3   118  PHE118      0.1639
     74  C         -5.8730   -0.2550  -42.3070 C.2   118  PHE118      0.2290
     75  O         -6.2810    0.9030  -42.3720 O.2   118  PHE118     -0.2864
     76  CB        -3.4650   -0.1190  -41.6850 C.3   118  PHE118      0.0560
     77  CG        -2.3660   -0.2220  -40.6520 C.ar  118  PHE118     -0.0200
     78  CD1       -2.6340   -0.2440  -39.2930 C.ar  118  PHE118     -0.0042
     79  CD2       -1.0430   -0.2430  -41.0530 C.ar  118  PHE118     -0.0042
     80  CE1       -1.6070   -0.2920  -38.3480 C.ar  118  PHE118     -0.0003
     81  CE2       -0.0090   -0.2940  -40.1170 C.ar  118  PHE118     -0.0003
     82  CZ        -0.2860   -0.3150  -38.7560 C.ar  118  PHE118     -0.0000
     83  N         -8.9400   -8.4150  -40.5640 N.3   139  LYS139     -0.1245
     84  CA        -8.1230   -8.1090  -39.4090 C.3   139  LYS139      0.1561
     85  C         -8.6910   -6.8840  -38.7250 C.2   139  LYS139      0.2260
     86  O         -8.8000   -5.8350  -39.3410 O.2   139  LYS139     -0.2867
     87  CB        -6.6690   -7.8260  -39.7800 C.3   139  LYS139      0.0271
     88  CG        -5.8630   -9.0520  -40.1370 C.3   139  LYS139      0.0035
     89  CD        -5.5570   -9.9570  -38.9340 C.3   139  LYS139      0.0206
     90  CE        -4.4910  -10.9630  -39.3050 C.3   139  LYS139      0.1093
     91  NZ        -3.1240  -10.3720  -39.3440 N.3   139  LYS139     -0.1314
     92  N         -6.2240   -2.0610  -34.9130 N.3   142  GLN142     -0.1245
     93  CA        -5.7480   -1.7040  -33.5790 C.3   142  GLN142      0.1566
     94  C         -6.5580   -0.4970  -33.0700 C.2   142  GLN142      0.2260
     95  O         -6.7060   -0.3010  -31.8690 O.2   142  GLN142     -0.2867
     96  CB        -4.2360   -1.3170  -33.5960 C.3   142  GLN142      0.0367
     97  CG        -3.2380   -2.3330  -34.1680 C.3   142  GLN142      0.0905
     98  CD        -3.1070   -2.3250  -35.7050 C.2   142  GLN142      0.2608
     99  OE1       -4.0510   -2.1870  -36.4130 O.2   142  GLN142     -0.2717
    100  NE2       -1.8890   -2.4600  -36.1930 N.am  142  GLN142     -0.0878
    101  N         -6.3610   -8.9440  -33.4430 N.3   169  ARG169     -0.1245
    102  CA        -4.9080   -8.7990  -33.3440 C.3   169  ARG169      0.1563
    103  C         -4.4300   -7.7620  -32.3580 C.2   169  ARG169      0.2260
    104  O         -3.3100   -7.2610  -32.4400 O.2   169  ARG169     -0.2867
    105  CB        -4.2790   -8.5670  -34.7240 C.3   169  ARG169      0.0307
    106  CG        -4.9000   -7.4880  -35.5610 C.3   169  ARG169      0.0489
    107  CD        -4.1890   -6.1860  -35.4280 C.3   169  ARG169      0.2205
    108  NE        -2.9780   -6.1620  -36.2570 N.pl3 169  ARG169     -0.0865
    109  CZ        -1.7300   -6.0310  -35.7980 C.cat 169  ARG169      0.5346
    110  NH1       -1.4770   -5.9430  -34.5170 N.pl3 169  ARG169      0.1354
    111  NH2       -0.7120   -5.9920  -36.6700 N.pl3 169  ARG169      0.1354
    112  N          0.3710  -11.3840  -34.1220 N.3   203  HIS203     -0.1241
    113  CA         0.3650   -9.9270  -34.2180 C.3   203  HIS203      0.1621
    114  C         -0.1300   -9.2590  -32.9760 C.2   203  HIS203      0.2264
    115  O          0.2360   -8.1260  -32.7270 O.2   203  HIS203     -0.2867
    116  CB        -0.3350   -9.4610  -35.4600 C.3   203  HIS203      0.0745
    117  CG         0.3710   -9.8940  -36.7280 C.ar  203  HIS203      0.0817
    118  ND1       -0.0440  -10.9510  -37.4780 N.ar  203  HIS203     -0.2268
    119  CD2        1.5140   -9.3930  -37.3560 C.ar  203  HIS203      0.1154
    120  CE1        0.7740  -11.1010  -38.5320 C.ar  203  HIS203      0.1986
    121  NE2        1.7340  -10.1660  -38.4660 N.ar  203  HIS203     -0.2212
    122  N         -4.7760  -17.8710  -35.5340 N.3   238  PHE238     -0.1241
    123  CA        -3.9170  -17.4130  -36.6190 C.3   238  PHE238      0.1605
    124  C         -2.5050  -17.3150  -36.0050 C.2   238  PHE238      0.2264
    125  O         -2.3070  -16.6560  -34.9590 O.2   238  PHE238     -0.2867
    126  CB        -4.4600  -16.0710  -37.0990 C.3   238  PHE238      0.0534
    127  CG        -3.6960  -15.4200  -38.2090 C.ar  238  PHE238     -0.0203
    128  CD1       -2.4190  -14.9110  -38.0100 C.ar  238  PHE238     -0.0042
    129  CD2       -4.2970  -15.2140  -39.4380 C.ar  238  PHE238     -0.0042
    130  CE1       -1.7500  -14.2330  -39.0370 C.ar  238  PHE238     -0.0003
    131  CE2       -3.6220  -14.5710  -40.4610 C.ar  238  PHE238     -0.0003
    132  CZ        -2.3600  -14.0720  -40.2630 C.ar  238  PHE238     -0.0000
    133  N          1.9470  -17.3470  -36.8940 N.3   240  GLU240     -0.1245
    134  CA         3.1440  -17.4070  -37.7350 C.3   240  GLU240      0.1567
    135  C          4.3080  -18.0670  -37.0010 C.2   240  GLU240      0.2260
    136  O          4.4530  -17.9320  -35.7770 O.2   240  GLU240     -0.2867
    137  CB         3.5570  -16.0280  -38.2190 C.3   240  GLU240      0.0388
    138  CG         2.4780  -15.3410  -39.0440 C.3   240  GLU240      0.1160
    139  CD         2.7970  -13.9050  -39.4010 C.2   240  GLU240      0.3649
    140  OE1        3.8300  -13.3270  -38.9080 O.co2 240  GLU240     -0.2457
    141  OE2        2.0110  -13.3530  -40.2160 O.co2 240  GLU240     -0.2457
@<TRIPOS>BOND
     1    43    44    2
     2    43    42    1
     3    41    42    1
     4    42    45    1
     5    45    46    1
     6    48    46   ar
     7    48    50   ar
     8    36    35    2
     9    46    47   ar
    10    50    49   ar
    11    35    34    1
    12    12    13    2
    13    12    11    1
    14    47    49   ar
    15    16    17    1
    16    19    18    2
    17    33    34    1
    18    34    37    1
    19    18    17    1
    20    11    10    1
    21    11    14    1
    22    51    52    1
    23    54    53    2
    24    17    20    1
    25    39    38   ar
    26    14    15    1
    27    37    38    1
    28    38    40   ar
    29    53    52    1
    30    66    65    1
    31    66    60    1
    32    20    21    1
    33    25    26    1
    34    52    55    1
    35    65    64    1
    36    21    22    1
    37    22    23    1
    38    55    56    1
    39     3     2    1
    40     3     4    2
    41    26    29    1
    42    26    27    1
    43    60    61    1
    44     2     1    1
    45     2     5    1
    46    64    61    1
    47    29    30    1
    48    23    24    1
    49    27    28    2
    50    56    57    1
    51    61    62    1
    52    31    30    2
    53     8     9    1
    54     8     7    1
    55     6     5    1
    56     6     7    1
    57    30    32   am
    58    57    59   am
    59    57    58    2
    60    63    62    2
    61    62    67   am
    62    75    74    2
    63    74    73    1
    64    76    73    1
    65    76    77    1
    66    67    68    1
    67    73    72    1
    68    79    77   ar
    69    79    81   ar
    70    72    69   am
    71    77    78   ar
    72    83    84    1
    73   131   132   ar
    74   131   129   ar
    75    69    70    2
    76    69    68    1
    77   132   130   ar
    78   141   139   ar
    79    68    71    1
    80    88    87    1
    81    88    89    1
    82    81    82   ar
    83    87    84    1
    84   129   127   ar
    85    84    85    1
    86   139   138    1
    87   139   140   ar
    88    91    90    1
    89    86    85    2
    90    90    89    1
    91    78    80   ar
    92   138   137    1
    93   130   128   ar
    94    82    80   ar
    95   120   121   ar
    96   120   118   ar
    97   121   119   ar
    98   137   134    1
    99   127   128   ar
   100   127   126    1
   101   134   135    1
   102   134   133    1
   103   118   117   ar
   104   119   117   ar
   105   126   123    1
   106   135   136    2
   107   117   116    1
   108   111   109    1
   109   123   124    1
   110   123   122    1
   111    99    98    2
   112   108   109    2
   113   108   107    1
   114   100    98   am
   115   124   125    2
   116   109   110    1
   117    98    97    1
   118   106   107    1
   119   106   105    1
   120   116   113    1
   121    92    93    1
   122   105   102    1
   123   113   112    1
   124   113   114    1
   125    97    96    1
   126    96    93    1
   127    93    94    1
   128   101   102    1
   129   102   103    1
   130    94    95    2
   131   114   115    2
   132   104   103    2
