@<TRIPOS>MOLECULE
tmp/3undB00.pdb
 165 153 0 0 0
SMALL
GASTEIGER

@<TRIPOS>ATOM
      1  N          5.2650  -15.3290  -42.0780 N.3    27  ASN27      -0.1240
      2  CA         4.9200  -13.9420  -42.2680 C.3    27  ASN27       0.1653
      3  C          4.9060  -13.5210  -43.7470 C.2    27  ASN27       0.2266
      4  O          3.9350  -12.8960  -44.2040 O.2    27  ASN27      -0.2867
      5  CB         5.8610  -13.0570  -41.5100 C.3    27  ASN27       0.1155
      6  CG         5.4510  -11.6200  -41.5920 C.2    27  ASN27       0.2627
      7  OD1        5.7610  -10.9330  -42.5770 O.2    27  ASN27      -0.2716
      8  ND2        4.6710  -11.1840  -40.6290 N.am   27  ASN27      -0.0877
      9  N         -1.0030  -19.8730  -44.2150 N.3    56  LYS56      -0.1245
     10  CA        -0.9030  -18.4060  -44.3760 C.3    56  LYS56       0.1561
     11  C          0.4850  -17.9430  -44.8200 C.2    56  LYS56       0.2260
     12  O          1.5030  -18.4380  -44.3340 O.2    56  LYS56      -0.2867
     13  CB        -1.2330  -17.6860  -43.0500 C.3    56  LYS56       0.0271
     14  CG        -1.3100  -16.1270  -43.1500 C.3    56  LYS56       0.0035
     15  CD        -0.0100  -15.4420  -42.7700 C.3    56  LYS56       0.0206
     16  CE         0.0250  -13.9730  -43.2420 C.3    56  LYS56       0.1093
     17  NZ         1.2400  -13.1770  -42.8530 N.3    56  LYS56      -0.1314
     18  N          4.5610   -7.2860  -48.0360 N.3    61  LYS61      -0.1245
     19  CA         4.3960   -6.4610  -46.8570 C.3    61  LYS61       0.1561
     20  C          4.3350   -5.0120  -47.3700 C.2    61  LYS61       0.2260
     21  O          5.3840   -4.3560  -47.6080 O.2    61  LYS61      -0.2867
     22  CB         5.5480   -6.6620  -45.8720 C.3    61  LYS61       0.0271
     23  CG         5.9380   -8.1030  -45.6010 C.3    61  LYS61       0.0035
     24  CD         4.7370   -8.9850  -45.2550 C.3    61  LYS61       0.0206
     25  CE         4.1350   -8.6480  -43.8950 C.3    61  LYS61       0.1093
     26  NZ         3.1920   -9.7350  -43.4990 N.3    61  LYS61      -0.1314
     27  N          3.1670   -2.3990  -45.8160 N.3    63  ASN63      -0.1225
     28  CA         3.0760   -1.4560  -44.7220 C.3    63  ASN63       0.1785
     29  C          4.2810   -1.5030  -43.7760 C.2    63  ASN63       0.2597
     30  O          4.1570   -1.1790  -42.6010 O.2    63  ASN63      -0.2718
     31  CB         1.7810   -1.6950  -43.9180 C.3    63  ASN63       0.1169
     32  CG         1.8070   -2.9870  -43.1170 C.2    63  ASN63       0.2627
     33  OD1        2.5050   -3.9120  -43.4710 O.2    63  ASN63      -0.2716
     34  ND2        1.0910   -3.0240  -42.0200 N.am   63  ASN63      -0.0877
     35  N          5.4510   -1.8850  -44.2670 N.am   64  ARG64      -0.1966
     36  CA         6.6250   -1.8370  -43.4170 C.3    64  ARG64       0.1729
     37  C          6.8220   -0.4040  -42.9210 C.2    64  ARG64       0.2617
     38  O          6.5610    0.5670  -43.6330 O.2    64  ARG64      -0.2715
     39  CB         7.8890   -2.2890  -44.1310 C.3    64  ARG64       0.0348
     40  CG         7.9030   -3.7090  -44.7070 C.3    64  ARG64       0.0492
     41  CD         7.6070   -4.7940  -43.6960 C.3    64  ARG64       0.2205
     42  NE         8.3900   -4.7330  -42.4710 N.pl3  64  ARG64      -0.0865
     43  CZ         9.4520   -5.4920  -42.1720 C.cat  64  ARG64       0.5346
     44  NH1        9.9730   -6.3530  -43.0450 N.pl3  64  ARG64       0.1354
     45  NH2       10.0460   -5.3460  -40.9900 N.pl3  64  ARG64       0.1354
     46  N          7.3130   -0.2600  -41.7050 N.am   65  SER65      -0.1936
     47  CA         7.6570    1.0510  -41.2250 C.3    65  SER65       0.2055
     48  C          8.7380    1.6900  -42.1360 C.2    65  SER65       0.2643
     49  O          8.6060    2.8650  -42.5180 O.2    65  SER65      -0.2714
     50  CB         8.1020    0.9900  -39.7440 C.3    65  SER65       0.2130
     51  OG         7.0300    0.6070  -38.8880 O.3    65  SER65      -0.2179
     52  N          9.8030    0.9430  -42.4350 N.am   66  SER66      -0.1949
     53  CA        10.9530    1.4940  -43.1440 C.3    66  SER66       0.1924
     54  C         10.9660    1.1340  -44.6240 C.2    66  SER66       0.2314
     55  O         10.6910    0.0160  -44.9960 O.2    66  SER66      -0.2863
     56  CB        12.2890    1.0610  -42.5240 C.3    66  SER66       0.2116
     57  OG        13.3590    1.4770  -43.3690 O.3    66  SER66      -0.2180
     58  N         13.0290   -1.9480  -45.3970 N.3    69  SER69      -0.1217
     59  CA        12.7130   -3.2750  -44.8640 C.3    69  SER69       0.1889
     60  C         12.1650   -4.2010  -45.9380 C.2    69  SER69       0.2288
     61  O         11.5350   -3.7670  -46.8790 O.2    69  SER69      -0.2866
     62  CB        11.7140   -3.1880  -43.7410 C.3    69  SER69       0.2089
     63  OG        12.2650   -2.4770  -42.6620 O.3    69  SER69      -0.2183
     64  N         -3.1060  -11.8710  -47.5840 N.3    96  ASP96      -0.1239
     65  CA        -3.6660  -10.5410  -47.4990 C.3    96  ASP96       0.1674
     66  C         -3.5640   -9.7450  -48.8120 C.2    96  ASP96       0.2266
     67  O         -2.6480   -9.9480  -49.6170 O.2    96  ASP96      -0.2867
     68  CB        -3.1340   -9.7260  -46.2740 C.3    96  ASP96       0.1410
     69  CG        -1.6130   -9.6960  -46.1650 C.2    96  ASP96       0.3668
     70  OD1       -0.9170  -10.5970  -46.7160 O.co2  96  ASP96      -0.2456
     71  OD2       -1.1120   -8.8060  -45.4580 O.co2  96  ASP96      -0.2456
     72  N         -4.8120   -2.0880  -41.0030 N.3   118  PHE118     -0.1241
     73  CA        -4.8410   -0.6550  -41.2460 C.3   118  PHE118      0.1605
     74  C         -5.8730   -0.2550  -42.3070 C.2   118  PHE118      0.2264
     75  O         -6.2810    0.9030  -42.3720 O.2   118  PHE118     -0.2867
     76  CB        -3.4650   -0.1190  -41.6850 C.3   118  PHE118      0.0534
     77  CG        -2.3660   -0.2220  -40.6520 C.ar  118  PHE118     -0.0203
     78  CD1       -2.6340   -0.2440  -39.2930 C.ar  118  PHE118     -0.0042
     79  CD2       -1.0430   -0.2430  -41.0530 C.ar  118  PHE118     -0.0042
     80  CE1       -1.6070   -0.2920  -38.3480 C.ar  118  PHE118     -0.0003
     81  CE2       -0.0090   -0.2940  -40.1170 C.ar  118  PHE118     -0.0003
     82  CZ        -0.2860   -0.3150  -38.7560 C.ar  118  PHE118     -0.0000
     83  N         -8.9400   -8.4150  -40.5640 N.3   139  LYS139     -0.1245
     84  CA        -8.1230   -8.1090  -39.4090 C.3   139  LYS139      0.1561
     85  C         -8.6910   -6.8840  -38.7250 C.2   139  LYS139      0.2260
     86  O         -8.8000   -5.8350  -39.3410 O.2   139  LYS139     -0.2867
     87  CB        -6.6690   -7.8260  -39.7800 C.3   139  LYS139      0.0271
     88  CG        -5.8630   -9.0520  -40.1370 C.3   139  LYS139      0.0035
     89  CD        -5.5570   -9.9570  -38.9340 C.3   139  LYS139      0.0206
     90  CE        -4.4910  -10.9630  -39.3050 C.3   139  LYS139      0.1093
     91  NZ        -3.1240  -10.3720  -39.3440 N.3   139  LYS139     -0.1314
     92  N         -6.3610   -8.9440  -33.4430 N.3   169  ARG169     -0.1245
     93  CA        -4.9080   -8.7990  -33.3440 C.3   169  ARG169      0.1563
     94  C         -4.4300   -7.7620  -32.3580 C.2   169  ARG169      0.2260
     95  O         -3.3100   -7.2610  -32.4400 O.2   169  ARG169     -0.2867
     96  CB        -4.2790   -8.5670  -34.7240 C.3   169  ARG169      0.0307
     97  CG        -4.9000   -7.4880  -35.5610 C.3   169  ARG169      0.0489
     98  CD        -4.1890   -6.1860  -35.4280 C.3   169  ARG169      0.2205
     99  NE        -2.9780   -6.1620  -36.2570 N.pl3 169  ARG169     -0.0865
    100  CZ        -1.7300   -6.0310  -35.7980 C.cat 169  ARG169      0.5346
    101  NH1       -1.4770   -5.9430  -34.5170 N.pl3 169  ARG169      0.1354
    102  NH2       -0.7120   -5.9920  -36.6700 N.pl3 169  ARG169      0.1354
    103  N          0.3710  -11.3840  -34.1220 N.3   203  HIS203     -0.1241
    104  CA         0.3650   -9.9270  -34.2180 C.3   203  HIS203      0.1621
    105  C         -0.1300   -9.2590  -32.9760 C.2   203  HIS203      0.2264
    106  O          0.2360   -8.1260  -32.7270 O.2   203  HIS203     -0.2867
    107  CB        -0.3350   -9.4610  -35.4600 C.3   203  HIS203      0.0745
    108  CG         0.3710   -9.8940  -36.7280 C.ar  203  HIS203      0.0817
    109  ND1       -0.0440  -10.9510  -37.4780 N.ar  203  HIS203     -0.2268
    110  CD2        1.5140   -9.3930  -37.3560 C.ar  203  HIS203      0.1154
    111  CE1        0.7740  -11.1010  -38.5320 C.ar  203  HIS203      0.1986
    112  NE2        1.7340  -10.1660  -38.4660 N.ar  203  HIS203     -0.2212
    113  N          2.8190   -7.9390  -30.7860 N.3   206  GLN206     -0.1245
    114  CA         3.6380   -6.8110  -31.2460 C.3   206  GLN206      0.1566
    115  C          3.7410   -5.7200  -30.1700 C.2   206  GLN206      0.2260
    116  O          2.8600   -5.5410  -29.3540 O.2   206  GLN206     -0.2867
    117  CB         3.1020   -6.1910  -32.5560 C.3   206  GLN206      0.0367
    118  CG         3.0980   -7.1240  -33.7710 C.3   206  GLN206      0.0905
    119  CD         2.9070   -6.3980  -35.1140 C.2   206  GLN206      0.2608
    120  OE1        1.8230   -5.8390  -35.4260 O.2   206  GLN206     -0.2717
    121  NE2        3.9560   -6.4570  -35.9460 N.am  206  GLN206     -0.0878
    122  N          6.7350   -2.0380  -29.6830 N.3   208  ARG208     -0.1245
    123  CA         7.9380   -1.4550  -30.2620 C.3   208  ARG208      0.1563
    124  C          8.6600   -0.4790  -29.3960 C.2   208  ARG208      0.2260
    125  O          8.1190    0.0320  -28.4340 O.2   208  ARG208     -0.2867
    126  CB         7.6980   -0.8510  -31.6600 C.3   208  ARG208      0.0307
    127  CG         6.3630   -0.1820  -31.9220 C.3   208  ARG208      0.0489
    128  CD         6.3860    0.5730  -33.2600 C.3   208  ARG208      0.2205
    129  NE         5.8950   -0.2910  -34.3090 N.pl3 208  ARG208     -0.0865
    130  CZ         6.5760   -0.6860  -35.3870 C.cat 208  ARG208      0.5346
    131  NH1        7.8160   -0.2500  -35.6540 N.pl3 208  ARG208      0.1354
    132  NH2        5.9670   -1.5100  -36.2310 N.pl3 208  ARG208      0.1354
    133  N         13.1600    0.8410  -35.9140 N.3   213  ASP213     -0.1225
    134  CA        12.9310    0.7730  -37.3790 C.3   213  ASP213      0.1805
    135  C         11.9300   -0.3090  -37.7930 C.2   213  ASP213      0.2598
    136  O         11.4680   -0.3090  -38.9130 O.2   213  ASP213     -0.2718
    137  CB        14.2440    0.3800  -38.0960 C.3   213  ASP213      0.1424
    138  CG        15.2630    1.4470  -38.0580 C.2   213  ASP213      0.3668
    139  OD1       14.9150    2.5980  -37.6820 O.co2 213  ASP213     -0.2456
    140  OD2       16.4330    1.1570  -38.4130 O.co2 213  ASP213     -0.2456
    141  N         11.7350   -1.2990  -36.9260 N.am  214  ALA214     -0.1966
    142  CA        10.9330   -2.4820  -37.2300 C.3   214  ALA214      0.1728
    143  C         10.2410   -2.8850  -35.9190 C.2   214  ALA214      0.2616
    144  O         10.6960   -2.4980  -34.8210 O.2   214  ALA214     -0.2715
    145  CB        11.8140   -3.6120  -37.7480 C.3   214  ALA214      0.0334
    146  N          9.1810   -3.6810  -36.0210 N.am  215  SER215     -0.1950
    147  CA         8.4330   -4.0390  -34.8500 C.3   215  SER215      0.1924
    148  C          9.2570   -4.8510  -33.8750 C.2   215  SER215      0.2314
    149  O         10.0410   -5.7160  -34.2610 O.2   215  SER215     -0.2863
    150  CB         7.1400   -4.7960  -35.2110 C.3   215  SER215      0.2116
    151  OG         6.3500   -5.0260  -34.0430 O.3   215  SER215     -0.2180
    152  N         10.5830  -10.4570  -41.3940 N.3   250  CYS250     -0.1221
    153  CA         9.4710   -9.6210  -40.8680 C.3   250  CYS250      0.1808
    154  C          8.7770  -10.3110  -39.6790 C.2   250  CYS250      0.2601
    155  O          8.5030  -11.5310  -39.7050 O.2   250  CYS250     -0.2717
    156  CB         8.4690   -9.2770  -41.9900 C.3   250  CYS250      0.0970
    157  SG         7.1600   -8.0950  -41.5090 S.3   250  CYS250     -0.0800
    158  N          8.5600   -9.5340  -38.6190 N.am  251  ASP251     -0.1973
    159  CA         7.8850   -9.9990  -37.4100 C.3   251  ASP251      0.1709
    160  C          8.5100  -11.2460  -36.7130 C.2   251  ASP251      0.2293
    161  O          7.8190  -11.9720  -35.9710 O.2   251  ASP251     -0.2864
    162  CB         6.3920  -10.2290  -37.6870 C.3   251  ASP251      0.1436
    163  CG         5.6280   -8.9290  -37.8530 C.2   251  ASP251      0.3671
    164  OD1        6.0020   -7.9310  -37.2010 O.co2 251  ASP251     -0.2456
    165  OD2        4.6450   -8.9120  -38.6250 O.co2 251  ASP251     -0.2456
@<TRIPOS>BOND
     1    67    66    2
     2    66    65    1
     3    18    19    1
     4    21    20    2
     5    64    65    1
     6    65    68    1
     7    20    19    1
     8    61    60    2
     9    19    22    1
    10    70    69   ar
    11    68    69    1
    12    69    71   ar
    13    60    59    1
    14    22    23    1
    15    27    28    1
    16    23    24    1
    17    58    59    1
    18    24    25    1
    19    55    54    2
    20    59    62    1
    21    11    10    1
    22    11    12    2
    23    28    31    1
    24    28    29    1
    25    40    39    1
    26    40    41    1
    27    54    53    1
    28    10     9    1
    29    10    13    1
    30    35    29   am
    31    35    36    1
    32     4     3    2
    33    39    36    1
    34    31    32    1
    35    25    26    1
    36    29    30    2
    37     3     2    1
    38    62    63    1
    39    41    42    1
    40    38    37    2
    41    33    32    2
    42    36    37    1
    43    57    56    1
    44    16    17    1
    45    16    15    1
    46    14    13    1
    47    14    15    1
    48    53    56    1
    49    53    52    1
    50    32    34   am
    51    44    43    1
    52    37    46   am
    53     7     6    2
    54    49    48    2
    55    42    43    2
    56    52    48   am
    57    75    74    2
    58    74    73    1
    59     2     1    1
    60     2     5    1
    61    43    45    1
    62    48    47    1
    63   156   157    1
    64   156   153    1
    65    46    47    1
    66    76    73    1
    67    76    77    1
    68     6     5    1
    69     6     8   am
    70   152   153    1
    71    73    72    1
    72    47    50    1
    73    79    77   ar
    74    79    81   ar
    75   153   154    1
    76    77    78   ar
    77    83    84    1
    78    88    87    1
    79    88    89    1
    80    81    82   ar
    81    87    84    1
    82    50    51    1
    83   155   154    2
    84   154   158   am
    85    84    85    1
    86    91    90    1
    87    86    85    2
    88    90    89    1
    89    78    80   ar
    90   136   135    2
    91    82    80   ar
    92   165   163   ar
    93   158   159    1
    94   111   112   ar
    95   111   109   ar
    96   112   110   ar
    97   140   138   ar
    98   137   138    1
    99   137   134    1
   100   138   139   ar
   101   163   162    1
   102   163   164   ar
   103   135   134    1
   104   135   141   am
   105   145   142    1
   106   162   159    1
   107   109   108   ar
   108   159   160    1
   109   134   133    1
   110   110   108   ar
   111   142   141    1
   112   142   143    1
   113   108   107    1
   114   160   161    2
   115   102   100    1
   116    99   100    2
   117    99    98    1
   118   132   130    1
   119   146   143   am
   120   146   147    1
   121   121   119   am
   122   143   144    2
   123   100   101    1
   124   131   130    1
   125    97    98    1
   126    97    96    1
   127   107   104    1
   128   120   119    2
   129   130   129    2
   130   150   147    1
   131   150   151    1
   132   119   118    1
   133   147   148    1
   134    96    93    1
   135   129   128    1
   136   149   148    2
   137   104   103    1
   138   104   105    1
   139   118   117    1
   140    92    93    1
   141    93    94    1
   142   128   127    1
   143   105   106    2
   144   117   114    1
   145    95    94    2
   146   127   126    1
   147   126   123    1
   148   114   113    1
   149   114   115    1
   150   123   122    1
   151   123   124    1
   152   115   116    2
   153   124   125    2
