@<TRIPOS>MOLECULE
tmp/3undB02.pdb
 212 198 0 0 0
SMALL
GASTEIGER

@<TRIPOS>ATOM
      1  N          5.2650  -15.3290  -42.0780 N.3    27  ASN27      -0.1240
      2  CA         4.9200  -13.9420  -42.2680 C.3    27  ASN27       0.1653
      3  C          4.9060  -13.5210  -43.7470 C.2    27  ASN27       0.2266
      4  O          3.9350  -12.8960  -44.2040 O.2    27  ASN27      -0.2867
      5  CB         5.8610  -13.0570  -41.5100 C.3    27  ASN27       0.1155
      6  CG         5.4510  -11.6200  -41.5920 C.2    27  ASN27       0.2627
      7  OD1        5.7610  -10.9330  -42.5770 O.2    27  ASN27      -0.2716
      8  ND2        4.6710  -11.1840  -40.6290 N.am   27  ASN27      -0.0877
      9  N         -1.0030  -19.8730  -44.2150 N.3    56  LYS56      -0.1245
     10  CA        -0.9030  -18.4060  -44.3760 C.3    56  LYS56       0.1561
     11  C          0.4850  -17.9430  -44.8200 C.2    56  LYS56       0.2260
     12  O          1.5030  -18.4380  -44.3340 O.2    56  LYS56      -0.2867
     13  CB        -1.2330  -17.6860  -43.0500 C.3    56  LYS56       0.0271
     14  CG        -1.3100  -16.1270  -43.1500 C.3    56  LYS56       0.0035
     15  CD        -0.0100  -15.4420  -42.7700 C.3    56  LYS56       0.0206
     16  CE         0.0250  -13.9730  -43.2420 C.3    56  LYS56       0.1093
     17  NZ         1.2400  -13.1770  -42.8530 N.3    56  LYS56      -0.1314
     18  N          2.0850  -13.8360  -46.5490 N.3    58  SER58      -0.1217
     19  CA         1.8930  -12.6160  -47.3490 C.3    58  SER58       0.1889
     20  C          2.8110  -12.6580  -48.5750 C.2    58  SER58       0.2288
     21  O          4.0040  -12.9810  -48.4640 O.2    58  SER58      -0.2866
     22  CB         2.2320  -11.3750  -46.5150 C.3    58  SER58       0.2089
     23  OG         1.4760  -11.3120  -45.3180 O.3    58  SER58      -0.2183
     24  N          4.5610   -7.2860  -48.0360 N.3    61  LYS61      -0.1245
     25  CA         4.3960   -6.4610  -46.8570 C.3    61  LYS61       0.1561
     26  C          4.3350   -5.0120  -47.3700 C.2    61  LYS61       0.2260
     27  O          5.3840   -4.3560  -47.6080 O.2    61  LYS61      -0.2867
     28  CB         5.5480   -6.6620  -45.8720 C.3    61  LYS61       0.0271
     29  CG         5.9380   -8.1030  -45.6010 C.3    61  LYS61       0.0035
     30  CD         4.7370   -8.9850  -45.2550 C.3    61  LYS61       0.0206
     31  CE         4.1350   -8.6480  -43.8950 C.3    61  LYS61       0.1093
     32  NZ         3.1920   -9.7350  -43.4990 N.3    61  LYS61      -0.1314
     33  N          3.1670   -2.3990  -45.8160 N.3    63  ASN63      -0.1225
     34  CA         3.0760   -1.4560  -44.7220 C.3    63  ASN63       0.1785
     35  C          4.2810   -1.5030  -43.7760 C.2    63  ASN63       0.2597
     36  O          4.1570   -1.1790  -42.6010 O.2    63  ASN63      -0.2718
     37  CB         1.7810   -1.6950  -43.9180 C.3    63  ASN63       0.1169
     38  CG         1.8070   -2.9870  -43.1170 C.2    63  ASN63       0.2627
     39  OD1        2.5050   -3.9120  -43.4710 O.2    63  ASN63      -0.2716
     40  ND2        1.0910   -3.0240  -42.0200 N.am   63  ASN63      -0.0877
     41  N          5.4510   -1.8850  -44.2670 N.am   64  ARG64      -0.1966
     42  CA         6.6250   -1.8370  -43.4170 C.3    64  ARG64       0.1729
     43  C          6.8220   -0.4040  -42.9210 C.2    64  ARG64       0.2617
     44  O          6.5610    0.5670  -43.6330 O.2    64  ARG64      -0.2715
     45  CB         7.8890   -2.2890  -44.1310 C.3    64  ARG64       0.0348
     46  CG         7.9030   -3.7090  -44.7070 C.3    64  ARG64       0.0492
     47  CD         7.6070   -4.7940  -43.6960 C.3    64  ARG64       0.2205
     48  NE         8.3900   -4.7330  -42.4710 N.pl3  64  ARG64      -0.0865
     49  CZ         9.4520   -5.4920  -42.1720 C.cat  64  ARG64       0.5346
     50  NH1        9.9730   -6.3530  -43.0450 N.pl3  64  ARG64       0.1354
     51  NH2       10.0460   -5.3460  -40.9900 N.pl3  64  ARG64       0.1354
     52  N          7.3130   -0.2600  -41.7050 N.am   65  SER65      -0.1936
     53  CA         7.6570    1.0510  -41.2250 C.3    65  SER65       0.2055
     54  C          8.7380    1.6900  -42.1360 C.2    65  SER65       0.2643
     55  O          8.6060    2.8650  -42.5180 O.2    65  SER65      -0.2714
     56  CB         8.1020    0.9900  -39.7440 C.3    65  SER65       0.2130
     57  OG         7.0300    0.6070  -38.8880 O.3    65  SER65      -0.2179
     58  N          9.8030    0.9430  -42.4350 N.am   66  SER66      -0.1949
     59  CA        10.9530    1.4940  -43.1440 C.3    66  SER66       0.1924
     60  C         10.9660    1.1340  -44.6240 C.2    66  SER66       0.2314
     61  O         10.6910    0.0160  -44.9960 O.2    66  SER66      -0.2863
     62  CB        12.2890    1.0610  -42.5240 C.3    66  SER66       0.2116
     63  OG        13.3590    1.4770  -43.3690 O.3    66  SER66      -0.2180
     64  N         13.0290   -1.9480  -45.3970 N.3    69  SER69      -0.1217
     65  CA        12.7130   -3.2750  -44.8640 C.3    69  SER69       0.1889
     66  C         12.1650   -4.2010  -45.9380 C.2    69  SER69       0.2288
     67  O         11.5350   -3.7670  -46.8790 O.2    69  SER69      -0.2866
     68  CB        11.7140   -3.1880  -43.7410 C.3    69  SER69       0.2089
     69  OG        12.2650   -2.4770  -42.6620 O.3    69  SER69      -0.2183
     70  N         -3.1060  -11.8710  -47.5840 N.3    96  ASP96      -0.1239
     71  CA        -3.6660  -10.5410  -47.4990 C.3    96  ASP96       0.1674
     72  C         -3.5640   -9.7450  -48.8120 C.2    96  ASP96       0.2266
     73  O         -2.6480   -9.9480  -49.6170 O.2    96  ASP96      -0.2867
     74  CB        -3.1340   -9.7260  -46.2740 C.3    96  ASP96       0.1410
     75  CG        -1.6130   -9.6960  -46.1650 C.2    96  ASP96       0.3668
     76  OD1       -0.9170  -10.5970  -46.7160 O.co2  96  ASP96      -0.2456
     77  OD2       -1.1120   -8.8060  -45.4580 O.co2  96  ASP96      -0.2456
     78  N         -7.5920  -11.8630  -47.0070 N.3   114  GLN114     -0.1245
     79  CA        -7.5160  -11.1250  -45.7620 C.3   114  GLN114      0.1566
     80  C         -7.4380   -9.6230  -46.0220 C.2   114  GLN114      0.2260
     81  O         -6.6530   -9.1530  -46.8800 O.2   114  GLN114     -0.2867
     82  CB        -6.3070  -11.5870  -44.9820 C.3   114  GLN114      0.0367
     83  CG        -6.0090  -10.7960  -43.7160 C.3   114  GLN114      0.0905
     84  CD        -4.9810  -11.4810  -42.8810 C.2   114  GLN114      0.2608
     85  OE1       -5.2430  -12.5550  -42.3500 O.2   114  GLN114     -0.2717
     86  NE2       -3.8200  -10.8940  -42.7550 N.am  114  GLN114     -0.0878
     87  N         -6.1300   -6.3330  -44.6090 N.3   116  PRO116     -0.2102
     88  CA        -5.2120   -5.8540  -43.5730 C.3   116  PRO116      0.1504
     89  C         -5.8280   -4.9090  -42.5130 C.2   116  PRO116      0.2576
     90  O         -6.6730   -4.0540  -42.8360 O.2   116  PRO116     -0.2718
     91  CB        -4.1340   -5.1250  -44.3670 C.3   116  PRO116      0.0282
     92  CG        -4.2410   -5.7050  -45.7550 C.3   116  PRO116      0.0208
     93  CD        -5.6730   -6.0110  -45.9580 C.3   116  PRO116      0.0893
     94  N         -5.3110   -5.0150  -41.2840 N.am  117  ALA117     -0.1966
     95  CA        -5.7740   -4.2290  -40.1580 C.3   117  ALA117      0.1728
     96  C         -5.8740   -2.6920  -40.4470 C.2   117  ALA117      0.2616
     97  O         -6.9740   -2.0830  -40.2860 O.2   117  ALA117     -0.2715
     98  CB        -4.9240   -4.5380  -38.9130 C.3   117  ALA117      0.0334
     99  N         -4.8120   -2.0880  -41.0030 N.am  118  PHE118     -0.1974
    100  CA        -4.8410   -0.6550  -41.2460 C.3   118  PHE118      0.1639
    101  C         -5.8730   -0.2550  -42.3070 C.2   118  PHE118      0.2290
    102  O         -6.2810    0.9030  -42.3720 O.2   118  PHE118     -0.2864
    103  CB        -3.4650   -0.1190  -41.6850 C.3   118  PHE118      0.0560
    104  CG        -2.3660   -0.2220  -40.6520 C.ar  118  PHE118     -0.0200
    105  CD1       -2.6340   -0.2440  -39.2930 C.ar  118  PHE118     -0.0042
    106  CD2       -1.0430   -0.2430  -41.0530 C.ar  118  PHE118     -0.0042
    107  CE1       -1.6070   -0.2920  -38.3480 C.ar  118  PHE118     -0.0003
    108  CE2       -0.0090   -0.2940  -40.1170 C.ar  118  PHE118     -0.0003
    109  CZ        -0.2860   -0.3150  -38.7560 C.ar  118  PHE118     -0.0000
    110  N         -8.9400   -8.4150  -40.5640 N.3   139  LYS139     -0.1245
    111  CA        -8.1230   -8.1090  -39.4090 C.3   139  LYS139      0.1561
    112  C         -8.6910   -6.8840  -38.7250 C.2   139  LYS139      0.2260
    113  O         -8.8000   -5.8350  -39.3410 O.2   139  LYS139     -0.2867
    114  CB        -6.6690   -7.8260  -39.7800 C.3   139  LYS139      0.0271
    115  CG        -5.8630   -9.0520  -40.1370 C.3   139  LYS139      0.0035
    116  CD        -5.5570   -9.9570  -38.9340 C.3   139  LYS139      0.0206
    117  CE        -4.4910  -10.9630  -39.3050 C.3   139  LYS139      0.1093
    118  NZ        -3.1240  -10.3720  -39.3440 N.3   139  LYS139     -0.1314
    119  N         -6.3610   -8.9440  -33.4430 N.3   169  ARG169     -0.1245
    120  CA        -4.9080   -8.7990  -33.3440 C.3   169  ARG169      0.1563
    121  C         -4.4300   -7.7620  -32.3580 C.2   169  ARG169      0.2260
    122  O         -3.3100   -7.2610  -32.4400 O.2   169  ARG169     -0.2867
    123  CB        -4.2790   -8.5670  -34.7240 C.3   169  ARG169      0.0307
    124  CG        -4.9000   -7.4880  -35.5610 C.3   169  ARG169      0.0489
    125  CD        -4.1890   -6.1860  -35.4280 C.3   169  ARG169      0.2205
    126  NE        -2.9780   -6.1620  -36.2570 N.pl3 169  ARG169     -0.0865
    127  CZ        -1.7300   -6.0310  -35.7980 C.cat 169  ARG169      0.5346
    128  NH1       -1.4770   -5.9430  -34.5170 N.pl3 169  ARG169      0.1354
    129  NH2       -0.7120   -5.9920  -36.6700 N.pl3 169  ARG169      0.1354
    130  N          0.3710  -11.3840  -34.1220 N.3   203  HIS203     -0.1241
    131  CA         0.3650   -9.9270  -34.2180 C.3   203  HIS203      0.1621
    132  C         -0.1300   -9.2590  -32.9760 C.2   203  HIS203      0.2264
    133  O          0.2360   -8.1260  -32.7270 O.2   203  HIS203     -0.2867
    134  CB        -0.3350   -9.4610  -35.4600 C.3   203  HIS203      0.0745
    135  CG         0.3710   -9.8940  -36.7280 C.ar  203  HIS203      0.0817
    136  ND1       -0.0440  -10.9510  -37.4780 N.ar  203  HIS203     -0.2268
    137  CD2        1.5140   -9.3930  -37.3560 C.ar  203  HIS203      0.1154
    138  CE1        0.7740  -11.1010  -38.5320 C.ar  203  HIS203      0.1986
    139  NE2        1.7340  -10.1660  -38.4660 N.ar  203  HIS203     -0.2212
    140  N          2.8190   -7.9390  -30.7860 N.3   206  GLN206     -0.1245
    141  CA         3.6380   -6.8110  -31.2460 C.3   206  GLN206      0.1566
    142  C          3.7410   -5.7200  -30.1700 C.2   206  GLN206      0.2260
    143  O          2.8600   -5.5410  -29.3540 O.2   206  GLN206     -0.2867
    144  CB         3.1020   -6.1910  -32.5560 C.3   206  GLN206      0.0367
    145  CG         3.0980   -7.1240  -33.7710 C.3   206  GLN206      0.0905
    146  CD         2.9070   -6.3980  -35.1140 C.2   206  GLN206      0.2608
    147  OE1        1.8230   -5.8390  -35.4260 O.2   206  GLN206     -0.2717
    148  NE2        3.9560   -6.4570  -35.9460 N.am  206  GLN206     -0.0878
    149  N          6.7350   -2.0380  -29.6830 N.3   208  ARG208     -0.1245
    150  CA         7.9380   -1.4550  -30.2620 C.3   208  ARG208      0.1563
    151  C          8.6600   -0.4790  -29.3960 C.2   208  ARG208      0.2260
    152  O          8.1190    0.0320  -28.4340 O.2   208  ARG208     -0.2867
    153  CB         7.6980   -0.8510  -31.6600 C.3   208  ARG208      0.0307
    154  CG         6.3630   -0.1820  -31.9220 C.3   208  ARG208      0.0489
    155  CD         6.3860    0.5730  -33.2600 C.3   208  ARG208      0.2205
    156  NE         5.8950   -0.2910  -34.3090 N.pl3 208  ARG208     -0.0865
    157  CZ         6.5760   -0.6860  -35.3870 C.cat 208  ARG208      0.5346
    158  NH1        7.8160   -0.2500  -35.6540 N.pl3 208  ARG208      0.1354
    159  NH2        5.9670   -1.5100  -36.2310 N.pl3 208  ARG208      0.1354
    160  N         13.1600    0.8410  -35.9140 N.3   213  ASP213     -0.1225
    161  CA        12.9310    0.7730  -37.3790 C.3   213  ASP213      0.1805
    162  C         11.9300   -0.3090  -37.7930 C.2   213  ASP213      0.2598
    163  O         11.4680   -0.3090  -38.9130 O.2   213  ASP213     -0.2718
    164  CB        14.2440    0.3800  -38.0960 C.3   213  ASP213      0.1424
    165  CG        15.2630    1.4470  -38.0580 C.2   213  ASP213      0.3668
    166  OD1       14.9150    2.5980  -37.6820 O.co2 213  ASP213     -0.2456
    167  OD2       16.4330    1.1570  -38.4130 O.co2 213  ASP213     -0.2456
    168  N         11.7350   -1.2990  -36.9260 N.am  214  ALA214     -0.1966
    169  CA        10.9330   -2.4820  -37.2300 C.3   214  ALA214      0.1728
    170  C         10.2410   -2.8850  -35.9190 C.2   214  ALA214      0.2616
    171  O         10.6960   -2.4980  -34.8210 O.2   214  ALA214     -0.2715
    172  CB        11.8140   -3.6120  -37.7480 C.3   214  ALA214      0.0334
    173  N          9.1810   -3.6810  -36.0210 N.am  215  SER215     -0.1950
    174  CA         8.4330   -4.0390  -34.8500 C.3   215  SER215      0.1924
    175  C          9.2570   -4.8510  -33.8750 C.2   215  SER215      0.2314
    176  O         10.0410   -5.7160  -34.2610 O.2   215  SER215     -0.2863
    177  CB         7.1400   -4.7960  -35.2110 C.3   215  SER215      0.2116
    178  OG         6.3500   -5.0260  -34.0430 O.3   215  SER215     -0.2180
    179  N         -4.7760  -17.8710  -35.5340 N.3   238  PHE238     -0.1241
    180  CA        -3.9170  -17.4130  -36.6190 C.3   238  PHE238      0.1605
    181  C         -2.5050  -17.3150  -36.0050 C.2   238  PHE238      0.2264
    182  O         -2.3070  -16.6560  -34.9590 O.2   238  PHE238     -0.2867
    183  CB        -4.4600  -16.0710  -37.0990 C.3   238  PHE238      0.0534
    184  CG        -3.6960  -15.4200  -38.2090 C.ar  238  PHE238     -0.0203
    185  CD1       -2.4190  -14.9110  -38.0100 C.ar  238  PHE238     -0.0042
    186  CD2       -4.2970  -15.2140  -39.4380 C.ar  238  PHE238     -0.0042
    187  CE1       -1.7500  -14.2330  -39.0370 C.ar  238  PHE238     -0.0003
    188  CE2       -3.6220  -14.5710  -40.4610 C.ar  238  PHE238     -0.0003
    189  CZ        -2.3600  -14.0720  -40.2630 C.ar  238  PHE238     -0.0000
    190  N          1.9470  -17.3470  -36.8940 N.3   240  GLU240     -0.1245
    191  CA         3.1440  -17.4070  -37.7350 C.3   240  GLU240      0.1567
    192  C          4.3080  -18.0670  -37.0010 C.2   240  GLU240      0.2260
    193  O          4.4530  -17.9320  -35.7770 O.2   240  GLU240     -0.2867
    194  CB         3.5570  -16.0280  -38.2190 C.3   240  GLU240      0.0388
    195  CG         2.4780  -15.3410  -39.0440 C.3   240  GLU240      0.1160
    196  CD         2.7970  -13.9050  -39.4010 C.2   240  GLU240      0.3649
    197  OE1        3.8300  -13.3270  -38.9080 O.co2 240  GLU240     -0.2457
    198  OE2        2.0110  -13.3530  -40.2160 O.co2 240  GLU240     -0.2457
    199  N         10.5830  -10.4570  -41.3940 N.3   250  CYS250     -0.1221
    200  CA         9.4710   -9.6210  -40.8680 C.3   250  CYS250      0.1808
    201  C          8.7770  -10.3110  -39.6790 C.2   250  CYS250      0.2601
    202  O          8.5030  -11.5310  -39.7050 O.2   250  CYS250     -0.2717
    203  CB         8.4690   -9.2770  -41.9900 C.3   250  CYS250      0.0970
    204  SG         7.1600   -8.0950  -41.5090 S.3   250  CYS250     -0.0800
    205  N          8.5600   -9.5340  -38.6190 N.am  251  ASP251     -0.1973
    206  CA         7.8850   -9.9990  -37.4100 C.3   251  ASP251      0.1709
    207  C          8.5100  -11.2460  -36.7130 C.2   251  ASP251      0.2293
    208  O          7.8190  -11.9720  -35.9710 O.2   251  ASP251     -0.2864
    209  CB         6.3920  -10.2290  -37.6870 C.3   251  ASP251      0.1436
    210  CG         5.6280   -8.9290  -37.8530 C.2   251  ASP251      0.3671
    211  OD1        6.0020   -7.9310  -37.2010 O.co2 251  ASP251     -0.2456
    212  OD2        4.6450   -8.9120  -38.6250 O.co2 251  ASP251     -0.2456
@<TRIPOS>BOND
     1    73    72    2
     2    72    71    1
     3    20    21    2
     4    20    19    1
     5    24    25    1
     6    27    26    2
     7    70    71    1
     8    71    74    1
     9    26    25    1
    10    19    18    1
    11    19    22    1
    12    78    79    1
    13    81    80    2
    14    67    66    2
    15    25    28    1
    16    76    75   ar
    17    22    23    1
    18    74    75    1
    19    75    77   ar
    20    80    79    1
    21    93    92    1
    22    93    87    1
    23    66    65    1
    24    28    29    1
    25    33    34    1
    26    79    82    1
    27    92    91    1
    28    29    30    1
    29    64    65    1
    30    30    31    1
    31    61    60    2
    32    82    83    1
    33    65    68    1
    34    11    10    1
    35    11    12    2
    36    34    37    1
    37    34    35    1
    38    46    45    1
    39    46    47    1
    40    60    59    1
    41    87    88    1
    42    10     9    1
    43    10    13    1
    44    91    88    1
    45    41    35   am
    46    41    42    1
    47     4     3    2
    48    45    42    1
    49    37    38    1
    50    31    32    1
    51    35    36    2
    52     3     2    1
    53    68    69    1
    54    83    84    1
    55    47    48    1
    56    44    43    2
    57    88    89    1
    58    39    38    2
    59    42    43    1
    60    63    62    1
    61    16    17    1
    62    16    15    1
    63    14    13    1
    64    14    15    1
    65    59    62    1
    66    59    58    1
    67    38    40   am
    68    50    49    1
    69    43    52   am
    70    84    86   am
    71    84    85    2
    72    90    89    2
    73     7     6    2
    74    55    54    2
    75    89    94   am
    76    48    49    2
    77    58    54   am
    78   102   101    2
    79   101   100    1
    80     2     1    1
    81     2     5    1
    82    49    51    1
    83    54    53    1
    84   203   204    1
    85   203   200    1
    86    52    53    1
    87   103   100    1
    88   103   104    1
    89     6     5    1
    90     6     8   am
    91   199   200    1
    92    94    95    1
    93   100    99    1
    94    53    56    1
    95   106   104   ar
    96   106   108   ar
    97    99    96   am
    98   200   201    1
    99   104   105   ar
   100   110   111    1
   101   188   189   ar
   102   188   186   ar
   103    96    97    2
   104    96    95    1
   105   189   187   ar
   106   198   196   ar
   107    95    98    1
   108   115   114    1
   109   115   116    1
   110   108   109   ar
   111   114   111    1
   112    56    57    1
   113   202   201    2
   114   201   205   am
   115   186   184   ar
   116   111   112    1
   117   196   195    1
   118   196   197   ar
   119   118   117    1
   120   113   112    2
   121   117   116    1
   122   105   107   ar
   123   195   194    1
   124   187   185   ar
   125   163   162    2
   126   109   107   ar
   127   212   210   ar
   128   205   206    1
   129   138   139   ar
   130   138   136   ar
   131   139   137   ar
   132   167   165   ar
   133   194   191    1
   134   184   185   ar
   135   184   183    1
   136   164   165    1
   137   164   161    1
   138   165   166   ar
   139   210   209    1
   140   210   211   ar
   141   162   161    1
   142   162   168   am
   143   172   169    1
   144   191   192    1
   145   191   190    1
   146   209   206    1
   147   136   135   ar
   148   206   207    1
   149   161   160    1
   150   137   135   ar
   151   169   168    1
   152   169   170    1
   153   183   180    1
   154   192   193    2
   155   135   134    1
   156   207   208    2
   157   129   127    1
   158   180   181    1
   159   180   179    1
   160   126   127    2
   161   126   125    1
   162   159   157    1
   163   173   170   am
   164   173   174    1
   165   181   182    2
   166   148   146   am
   167   170   171    2
   168   127   128    1
   169   158   157    1
   170   124   125    1
   171   124   123    1
   172   134   131    1
   173   147   146    2
   174   157   156    2
   175   177   174    1
   176   177   178    1
   177   146   145    1
   178   174   175    1
   179   123   120    1
   180   156   155    1
   181   176   175    2
   182   131   130    1
   183   131   132    1
   184   145   144    1
   185   119   120    1
   186   120   121    1
   187   155   154    1
   188   132   133    2
   189   144   141    1
   190   122   121    2
   191   154   153    1
   192   153   150    1
   193   141   140    1
   194   141   142    1
   195   150   149    1
   196   150   151    1
   197   142   143    2
   198   151   152    2
