@<TRIPOS>MOLECULE
tmp/3unfH00.pdb
 145 137 0 0 0
SMALL
GASTEIGER

@<TRIPOS>ATOM
      1  N          3.6870  -59.7990  -18.0310 N.3     1  THR1       -0.1218
      2  CA         3.3220  -60.8980  -18.9740 C.3     1  THR1        0.1862
      3  C          3.0920  -62.2690  -18.3610 C.2     1  THR1        0.2287
      4  O          3.6600  -62.5840  -17.3180 O.2     1  THR1       -0.2866
      5  CB         4.3950  -61.0120  -20.0860 C.3     1  THR1        0.1770
      6  OG1        4.4760  -59.7150  -20.6950 O.3     1  THR1       -0.2211
      7  CG2        4.0410  -61.9970  -21.2300 C.3     1  THR1        0.0375
      8  N         -1.7190  -57.5530  -21.6390 N.3    19  ARG19      -0.1231
      9  CA        -1.3900  -56.4180  -20.7690 C.3    19  ARG19       0.1694
     10  C          0.0580  -55.9440  -20.9130 C.2    19  ARG19       0.2592
     11  O          0.9780  -56.7500  -20.9820 O.2    19  ARG19      -0.2718
     12  CB        -1.6820  -56.7770  -19.3080 C.3    19  ARG19       0.0321
     13  CG        -1.2500  -55.7300  -18.2890 C.3    19  ARG19       0.0489
     14  CD        -1.6130  -56.1310  -16.8660 C.3    19  ARG19       0.2205
     15  NE        -3.0540  -56.0500  -16.6230 N.pl3  19  ARG19      -0.0865
     16  CZ        -3.6220  -56.0330  -15.4180 C.cat  19  ARG19       0.5346
     17  NH1       -2.8800  -56.0840  -14.3170 N.pl3  19  ARG19       0.1354
     18  NH2       -4.9420  -55.9570  -15.3120 N.pl3  19  ARG19       0.1354
     19  N          0.2390  -54.6270  -20.9580 N.am   20  ALA20      -0.1966
     20  CA         1.5630  -54.0070  -20.9080 C.3    20  ALA20       0.1728
     21  C          1.6030  -53.0030  -19.7640 C.2    20  ALA20       0.2617
     22  O          0.6390  -52.2640  -19.5480 O.2    20  ALA20      -0.2715
     23  CB         1.8880  -53.3250  -22.2250 C.3    20  ALA20       0.0334
     24  N          2.7100  -52.9840  -19.0260 N.am   21  THR21      -0.1937
     25  CA         2.8330  -52.0980  -17.8660 C.3    21  THR21       0.2028
     26  C          3.9830  -51.1040  -18.0160 C.2    21  THR21       0.2642
     27  O          5.0880  -51.4670  -18.4280 O.2    21  THR21      -0.2714
     28  CB         2.9900  -52.8690  -16.5250 C.3    21  THR21       0.1808
     29  OG1        4.3660  -52.8930  -16.1200 O.3    21  THR21      -0.2208
     30  CG2        2.4570  -54.3000  -16.6200 C.3    21  THR21       0.0379
     31  N          3.6980  -49.8470  -17.6920 N.am   22  ASN22      -0.1957
     32  CA         4.7200  -48.8200  -17.5590 C.3    22  ASN22       0.1819
     33  C          4.7610  -48.4320  -16.0910 C.2    22  ASN22       0.2621
     34  O          3.8080  -47.8470  -15.5730 O.2    22  ASN22      -0.2715
     35  CB         4.3960  -47.6100  -18.4390 C.3    22  ASN22       0.1195
     36  CG         5.6410  -46.9290  -18.9860 C.2    22  ASN22       0.2630
     37  OD1        6.6960  -46.9120  -18.3480 O.2    22  ASN22      -0.2716
     38  ND2        5.5190  -46.3560  -20.1790 N.am   22  ASN22      -0.0877
     39  N          5.8630  -48.7770  -15.4270 N.am   23  ASP23      -0.1971
     40  CA         5.9590  -48.7580  -13.9630 C.3    23  ASP23       0.1709
     41  C          5.0450  -49.8270  -13.3580 C.2    23  ASP23       0.2293
     42  O          5.2850  -51.0230  -13.5320 O.2    23  ASP23      -0.2864
     43  CB         5.6610  -47.3650  -13.3850 C.3    23  ASP23       0.1436
     44  CG         6.7140  -46.3370  -13.7590 C.2    23  ASP23       0.3671
     45  OD1        7.1250  -46.2960  -14.9390 O.co2  23  ASP23      -0.2456
     46  OD2        7.1250  -45.5640  -12.8690 O.co2  23  ASP23      -0.2456
     47  N         -0.4040  -49.7860  -19.1040 N.3    27  ALA27      -0.1245
     48  CA        -0.3000  -48.9400  -20.2880 C.3    27  ALA27       0.1562
     49  C         -1.2520  -49.4190  -21.3830 C.2    27  ALA27       0.2260
     50  O         -2.1500  -48.6800  -21.7930 O.2    27  ALA27      -0.2867
     51  CB         1.1360  -48.9020  -20.7920 C.3    27  ALA27       0.0290
     52  N         -2.4770  -55.3330  -26.0660 N.3    31  CYS31      -0.1221
     53  CA        -1.2480  -55.4410  -26.8520 C.3    31  CYS31       0.1808
     54  C         -1.0480  -56.8820  -27.3090 C.2    31  CYS31       0.2601
     55  O         -1.4450  -57.8170  -26.6130 O.2    31  CYS31      -0.2717
     56  CB        -0.0360  -54.9610  -26.0480 C.3    31  CYS31       0.0970
     57  SG         0.4540  -56.0450  -24.6860 S.3    31  CYS31      -0.0800
     58  N         -0.4380  -57.0580  -28.4780 N.am   32  GLU32      -0.1965
     59  CA        -0.2050  -58.3970  -29.0270 C.3    32  GLU32       0.1733
     60  C          1.1930  -58.9450  -28.7150 C.2    32  GLU32       0.2616
     61  O          2.2070  -58.2870  -28.9690 O.2    32  GLU32      -0.2715
     62  CB        -0.5280  -58.4590  -30.5280 C.3    32  GLU32       0.0429
     63  CG        -0.4210  -57.1410  -31.2820 C.3    32  GLU32       0.1163
     64  CD        -1.3750  -57.0690  -32.4640 C.2    32  GLU32       0.3649
     65  OE1       -0.8970  -56.9900  -33.6150 O.co2  32  GLU32      -0.2457
     66  OE2       -2.6050  -57.0970  -32.2460 O.co2  32  GLU32      -0.2457
     67  N          1.2240  -60.1540  -28.1560 N.am   33  LYS33      -0.1977
     68  CA         2.4650  -60.7720  -27.6850 C.3    33  LYS33       0.1596
     69  C          2.8470  -62.0300  -28.4650 C.2    33  LYS33       0.2287
     70  O          3.9950  -62.4760  -28.4020 O.2    33  LYS33      -0.2864
     71  CB         2.3680  -61.0930  -26.1920 C.3    33  LYS33       0.0298
     72  CG         2.2770  -59.8710  -25.2970 C.3    33  LYS33       0.0038
     73  CD         1.9860  -60.2700  -23.8620 C.3    33  LYS33       0.0206
     74  CE         1.8770  -59.0460  -22.9740 C.3    33  LYS33       0.1093
     75  NZ         1.6220  -59.4090  -21.5520 N.3    33  LYS33      -0.1314
     76  N          3.8700  -63.3440  -31.7610 N.3    35  HIS35      -0.1241
     77  CA         4.4890  -62.6980  -32.9140 C.3    35  HIS35       0.1621
     78  C          4.7140  -63.6240  -34.0740 C.2    35  HIS35       0.2264
     79  O          5.0750  -64.7890  -33.8950 O.2    35  HIS35      -0.2867
     80  CB         5.8070  -62.0590  -32.5080 C.3    35  HIS35       0.0745
     81  CG         5.6590  -60.9230  -31.5250 C.ar   35  HIS35       0.0817
     82  ND1        5.1970  -59.7120  -31.8840 N.ar   35  HIS35      -0.2268
     83  CD2        5.9520  -60.8440  -30.1660 C.ar   35  HIS35       0.1154
     84  CE1        5.1820  -58.9010  -30.8100 C.ar   35  HIS35       0.1986
     85  NE2        5.6450  -59.5960  -29.7580 N.ar   35  HIS35      -0.2212
     86  N          6.5750  -63.3910  -26.6870 N.3    45  GLY45      -0.1210
     87  CA         7.6030  -62.5790  -26.0340 C.3    45  GLY45       0.1956
     88  C          7.2150  -62.0540  -24.6630 C.2    45  GLY45       0.2612
     89  O          6.1260  -61.5040  -24.4880 O.2    45  GLY45      -0.2717
     90  N          8.1160  -62.2260  -23.6950 N.am   46  ALA46      -0.1965
     91  CA         7.9190  -61.7220  -22.3340 C.3    46  ALA46       0.1728
     92  C          9.1420  -60.9470  -21.8550 C.2    46  ALA46       0.2617
     93  O         10.2780  -61.3280  -22.1450 O.2    46  ALA46      -0.2715
     94  CB         7.6110  -62.8650  -21.3800 C.3    46  ALA46       0.0334
     95  N          8.9010  -59.8590  -21.1250 N.am   47  GLY47      -0.1940
     96  CA         9.9790  -59.0400  -20.5750 C.3    47  GLY47       0.2014
     97  C          9.8990  -57.5910  -21.0040 C.2    47  GLY47       0.2639
     98  O          8.8300  -56.9820  -20.9530 O.2    47  GLY47      -0.2714
     99  N         11.0400  -57.0410  -21.4150 N.am   48  VAL48      -0.1963
    100  CA        11.1280  -55.6610  -21.8970 C.3    48  VAL48       0.1727
    101  C         10.3990  -55.5660  -23.2360 C.2    48  VAL48       0.2616
    102  O         10.7840  -56.2160  -24.2110 O.2    48  VAL48      -0.2715
    103  CB        12.5940  -55.1960  -22.0420 C.3    48  VAL48       0.0290
    104  CG1       12.6610  -53.7290  -22.4440 C.3    48  VAL48       0.0023
    105  CG2       13.3580  -55.4230  -20.7450 C.3    48  VAL48       0.0023
    106  N          9.3410  -54.7590  -23.2680 N.am   49  ALA49      -0.1963
    107  CA         8.4100  -54.7290  -24.4000 C.3    49  ALA49       0.1728
    108  C          9.0810  -54.4490  -25.7460 C.2    49  ALA49       0.2616
    109  O          8.9740  -55.2510  -26.6720 O.2    49  ALA49      -0.2715
    110  CB         7.2780  -53.7460  -24.1390 C.3    49  ALA49       0.0334
    111  N          9.7790  -53.3200  -25.8410 N.am   50  ALA50      -0.1977
    112  CA        10.4740  -52.9430  -27.0660 C.3    50  ALA50       0.1597
    113  C         11.5000  -53.9950  -27.4780 C.2    50  ALA50       0.2287
    114  O         11.7120  -54.2230  -28.6680 O.2    50  ALA50      -0.2864
    115  CB        11.1330  -51.5830  -26.9080 C.3    50  ALA50       0.0319
    116  N         11.3920  -57.4150  -26.8080 N.3    52  THR52      -0.1203
    117  CA        10.6950  -58.5810  -27.3720 C.3    52  THR52       0.1994
    118  C         10.1200  -58.2690  -28.7550 C.2    52  THR52       0.2617
    119  O          9.9430  -59.1690  -29.5760 O.2    52  THR52      -0.2717
    120  CB         9.5590  -59.1080  -26.4610 C.3    52  THR52       0.1784
    121  OG1        8.4960  -58.1490  -26.3980 O.3    52  THR52      -0.2211
    122  CG2       10.0680  -59.4090  -25.0500 C.3    52  THR52       0.0376
    123  N          9.8400  -56.9880  -28.9990 N.am   53  GLU53      -0.1979
    124  CA         9.3000  -56.5220  -30.2750 C.3    53  GLU53       0.1602
    125  C         10.3460  -56.5380  -31.3870 C.2    53  GLU53       0.2287
    126  O         10.0860  -57.0410  -32.4800 O.2    53  GLU53      -0.2864
    127  CB         8.7130  -55.1120  -30.1320 C.3    53  GLU53       0.0415
    128  CG         7.3640  -55.0490  -29.4260 C.3    53  GLU53       0.1163
    129  CD         6.2040  -55.5370  -30.2810 C.2    53  GLU53       0.3649
    130  OE1        5.1610  -55.9060  -29.6960 O.co2  53  GLU53      -0.2457
    131  OE2        6.3270  -55.5490  -31.5290 O.co2  53  GLU53      -0.2457
    132  N          7.5100  -65.4900  -18.2780 N.3   128  GLY128     -0.1210
    133  CA         6.9440  -64.2330  -17.7820 C.3   128  GLY128      0.1956
    134  C          6.6790  -64.2470  -16.2880 C.2   128  GLY128      0.2612
    135  O          7.0140  -65.2090  -15.5980 O.2   128  GLY128     -0.2717
    136  N          6.0660  -63.1770  -15.7890 N.am  129  SER129     -0.1952
    137  CA         5.7920  -63.0340  -14.3570 C.3   129  SER129      0.1924
    138  C          4.6730  -63.9520  -13.8690 C.2   129  SER129      0.2314
    139  O          4.5910  -64.2560  -12.6780 O.2   129  SER129     -0.2863
    140  CB         5.4750  -61.5780  -14.0120 C.3   129  SER129      0.2116
    141  OG         4.4240  -61.0810  -14.8210 O.3   129  SER129     -0.2180
    142  N          0.8950  -58.3580  -12.9640 N.3   168  GLY168     -0.1225
    143  CA         1.4920  -57.9360  -14.2280 C.3   168  GLY168      0.1811
    144  C          0.8890  -58.6570  -15.4210 C.2   168  GLY168      0.2280
    145  O          1.5110  -58.7400  -16.4850 O.2   168  GLY168     -0.2866
@<TRIPOS>BOND
     1    78    79    2
     2    78    77    1
     3    65    64   ar
     4    77    80    1
     5    77    76    1
     6    80    81    1
     7   126   125    2
     8    64    66   ar
     9    64    63    1
    10    82    81   ar
    11    82    84   ar
    12   131   129   ar
    13    81    83   ar
    14   125   124    1
    15    63    62    1
    16    84    85   ar
    17    62    59    1
    18   129   130   ar
    19   129   128    1
    20   124   127    1
    21   124   123    1
    22    83    85   ar
    23   127   128    1
    24   119   118    2
    25    59    60    1
    26    59    58    1
    27   123   118   am
    28    61    60    2
    29   118   117    1
    30    60    67   am
    31   114   113    2
    32    58    54   am
    33    69    70    2
    34    69    68    1
    35    67    68    1
    36    68    71    1
    37   113   112    1
    38   117   116    1
    39   117   120    1
    40    54    53    1
    41    54    55    2
    42   112   115    1
    43   112   111    1
    44    53    52    1
    45    53    56    1
    46    86    87    1
    47   109   108    2
    48   120   121    1
    49   120   122    1
    50    71    72    1
    51    56    57    1
    52    87    88    1
    53   111   108   am
    54   108   107    1
    55    72    73    1
    56    88    89    2
    57    88    90   am
    58   107   110    1
    59   107   106    1
    60   102   101    2
    61    73    74    1
    62    90    91    1
    63   106   101   am
    64   101   100    1
    65    74    75    1
    66   104   103    1
    67    91    92    1
    68    91    94    1
    69    23    20    1
    70    93    92    2
    71   103   100    1
    72   103   105    1
    73   100    99    1
    74    92    95   am
    75    50    49    2
    76     8     9    1
    77    99    97   am
    78    49    48    1
    79     7     5    1
    80    95    96    1
    81    97    98    2
    82    97    96    1
    83    11    10    2
    84    19    10   am
    85    19    20    1
    86    10     9    1
    87    20    21    1
    88    51    48    1
    89     9    12    1
    90     6     5    1
    91    48    47    1
    92    38    36   am
    93     5     2    1
    94    21    22    2
    95    21    24   am
    96    12    13    1
    97    24    25    1
    98    36    35    1
    99    36    37    2
   100     2     3    1
   101     2     1    1
   102    35    32    1
   103    27    26    2
   104     3     4    2
   105    13    14    1
   106   132   133    1
   107    26    25    1
   108    26    31   am
   109    25    28    1
   110   133   134    1
   111    31    32    1
   112    32    33    1
   113    14    15    1
   114    15    16    2
   115    30    28    1
   116    28    29    1
   117   145   144    2
   118   134   136   am
   119   134   135    2
   120    33    34    2
   121    33    39   am
   122   136   137    1
   123    39    40    1
   124   144   143    1
   125    16    18    1
   126    16    17    1
   127    45    44   ar
   128   141   140    1
   129   137   140    1
   130   137   138    1
   131   143   142    1
   132    40    43    1
   133    40    41    1
   134   138   139    2
   135    44    43    1
   136    44    46   ar
   137    42    41    2
