@<TRIPOS>MOLECULE
tmp/3unfN00.pdb
 155 146 0 0 0
SMALL
GASTEIGER

@<TRIPOS>ATOM
      1  N         23.2380  -78.0820  -11.1520 N.3     1  THR1       -0.1218
      2  CA        23.7290  -79.3380  -11.7850 C.3     1  THR1        0.1862
      3  C         24.4380  -80.2820  -10.8390 C.2     1  THR1        0.2287
      4  O         25.3140  -79.8700  -10.0880 O.2     1  THR1       -0.2866
      5  CB        24.6580  -78.9340  -12.9560 C.3     1  THR1        0.1770
      6  OG1       23.8370  -78.1770  -13.8710 O.3     1  THR1       -0.2211
      7  CG2       25.2580  -80.1300  -13.7430 C.3     1  THR1        0.0375
      8  N         22.2880  -85.0180  -13.9530 N.3    17  ASP17      -0.1239
      9  CA        20.9120  -84.7840  -13.5190 C.3    17  ASP17       0.1674
     10  C         20.1740  -84.0160  -14.6200 C.2    17  ASP17       0.2266
     11  O         20.7870  -83.6100  -15.6120 O.2    17  ASP17      -0.2867
     12  CB        20.8710  -84.0270  -12.1850 C.3    17  ASP17       0.1410
     13  CG        21.2940  -82.5760  -12.3180 C.2    17  ASP17       0.3668
     14  OD1       22.4180  -82.3180  -12.7980 O.co2  17  ASP17      -0.2456
     15  OD2       20.5000  -81.6900  -11.9360 O.co2  17  ASP17      -0.2456
     16  N         18.0440  -81.1310  -14.2240 N.3    19  ARG19      -0.1231
     17  CA        17.4620  -79.8950  -13.7070 C.3    19  ARG19       0.1694
     18  C         18.1600  -78.6460  -14.2370 C.2    19  ARG19       0.2592
     19  O         19.3770  -78.6270  -14.3830 O.2    19  ARG19      -0.2718
     20  CB        17.4910  -79.9100  -12.1730 C.3    19  ARG19       0.0321
     21  CG        17.1140  -78.5950  -11.5050 C.3    19  ARG19       0.0489
     22  CD        16.9460  -78.7620  -10.0050 C.3    19  ARG19       0.2205
     23  NE        15.7160  -79.4800   -9.6770 N.pl3  19  ARG19      -0.0865
     24  CZ        15.3000  -79.7450   -8.4420 C.cat  19  ARG19       0.5346
     25  NH1       16.0110  -79.3570   -7.3920 N.pl3  19  ARG19       0.1354
     26  NH2       14.1650  -80.4040   -8.2570 N.pl3  19  ARG19       0.1354
     27  N         17.3770  -77.6150  -14.5440 N.am   20  VAL20      -0.1966
     28  CA        17.9270  -76.2690  -14.7090 C.3    20  VAL20       0.1727
     29  C         17.2330  -75.3400  -13.7130 C.2    20  VAL20       0.2617
     30  O         16.0250  -75.4540  -13.4800 O.2    20  VAL20      -0.2715
     31  CB        17.8510  -75.7270  -16.1640 C.3    20  VAL20       0.0290
     32  CG1       18.0260  -76.8440  -17.1810 C.3    20  VAL20       0.0023
     33  CG2       16.5530  -74.9860  -16.4240 C.3    20  VAL20       0.0023
     34  N         18.0050  -74.4360  -13.1190 N.am   21  SER21      -0.1936
     35  CA        17.4980  -73.5940  -12.0420 C.3    21  SER21       0.2055
     36  C         17.7660  -72.1090  -12.2550 C.2    21  SER21       0.2643
     37  O         18.7840  -71.7200  -12.8320 O.2    21  SER21      -0.2714
     38  CB        18.0820  -74.0430  -10.7000 C.3    21  SER21       0.2130
     39  OG        19.4990  -74.0380  -10.7350 O.3    21  SER21      -0.2179
     40  N         16.8230  -71.2940  -11.7920 N.am   22  ALA22      -0.1963
     41  CA        16.9910  -69.8510  -11.7050 C.3    22  ALA22       0.1728
     42  C         16.5320  -69.4310  -10.3160 C.2    22  ALA22       0.2616
     43  O         15.3340  -69.4400  -10.0170 O.2    22  ALA22      -0.2715
     44  CB        16.1840  -69.1450  -12.7830 C.3    22  ALA22       0.0334
     45  N         17.4960  -69.0860   -9.4660 N.am   23  GLY23      -0.1955
     46  CA        17.2240  -68.8060   -8.0590 C.3    23  GLY23       0.1869
     47  C         16.7720  -70.0640   -7.3420 C.2    23  GLY23       0.2309
     48  O         17.4720  -71.0790   -7.3520 O.2    23  GLY23      -0.2863
     49  N         13.3060  -74.2580  -13.7490 N.3    27  VAL27      -0.1245
     50  CA        12.6280  -73.8210  -14.9760 C.3    27  VAL27       0.1561
     51  C         12.4870  -74.9660  -15.9910 C.2    27  VAL27       0.2260
     52  O         11.6110  -74.9330  -16.8590 O.2    27  VAL27      -0.2867
     53  CB        13.2600  -72.5350  -15.5910 C.3    27  VAL27       0.0252
     54  CG1       14.0200  -71.7410  -14.5350 C.3    27  VAL27       0.0019
     55  CG2       14.1680  -72.8430  -16.7720 C.3    27  VAL27       0.0019
     56  N         16.1470  -81.7350  -18.3950 N.3    31  PHE31      -0.1241
     57  CA        17.1310  -81.2540  -19.3660 C.3    31  PHE31       0.1605
     58  C         18.3390  -82.1780  -19.4960 C.2    31  PHE31       0.2264
     59  O         18.9750  -82.5330  -18.5030 O.2    31  PHE31      -0.2867
     60  CB        17.5870  -79.8290  -19.0390 C.3    31  PHE31       0.0534
     61  CG        18.4390  -79.2070  -20.1120 C.ar   31  PHE31      -0.0203
     62  CD1       17.8560  -78.4860  -21.1500 C.ar   31  PHE31      -0.0042
     63  CD2       19.8230  -79.3500  -20.0930 C.ar   31  PHE31      -0.0042
     64  CE1       18.6370  -77.9180  -22.1450 C.ar   31  PHE31      -0.0003
     65  CE2       20.6080  -78.7900  -21.0880 C.ar   31  PHE31      -0.0003
     66  CZ        20.0150  -78.0690  -22.1130 C.ar   31  PHE31      -0.0000
     67  N         21.9900  -82.7960  -20.1860 N.3    33  LYS33      -0.1245
     68  CA        23.2420  -82.0420  -20.1060 C.3    33  LYS33       0.1561
     69  C         24.4090  -82.7860  -20.7500 C.2    33  LYS33       0.2260
     70  O         25.5750  -82.4770  -20.4890 O.2    33  LYS33      -0.2867
     71  CB        23.5670  -81.7150  -18.6480 C.3    33  LYS33       0.0271
     72  CG        22.5440  -80.8160  -17.9810 C.3    33  LYS33       0.0035
     73  CD        22.7110  -80.8290  -16.4770 C.3    33  LYS33       0.0206
     74  CE        21.4690  -80.2820  -15.8070 C.3    33  LYS33       0.1093
     75  NZ        21.6450  -80.1790  -14.3360 N.3    33  LYS33      -0.1314
     76  N         27.5590  -80.8350  -19.1990 N.3    45  LEU45      -0.1231
     77  CA        27.3720  -79.3960  -18.9950 C.3    45  LEU45       0.1693
     78  C         27.0550  -79.0090  -17.5510 C.2    45  LEU45       0.2593
     79  O         26.2400  -79.6550  -16.8890 O.2    45  LEU45      -0.2718
     80  CB        26.2750  -78.8640  -19.9280 C.3    45  LEU45       0.0284
     81  CG        26.6320  -78.5050  -21.3750 C.3    45  LEU45       0.0019
     82  CD1       27.0720  -79.7090  -22.1960 C.3    45  LEU45       0.0001
     83  CD2       25.4780  -77.7960  -22.0660 C.3    45  LEU45       0.0001
     84  N         27.7080  -77.9480  -17.0800 N.am   46  SER46      -0.1938
     85  CA        27.4410  -77.3670  -15.7620 C.3    46  SER46       0.2055
     86  C         27.6990  -75.8610  -15.7740 C.2    46  SER46       0.2644
     87  O         28.3400  -75.3450  -16.6900 O.2    46  SER46      -0.2714
     88  CB        28.2910  -78.0420  -14.6820 C.3    46  SER46       0.2130
     89  OG        29.6690  -77.7610  -14.8540 O.3    46  SER46      -0.2179
     90  N         27.2000  -75.1640  -14.7550 N.am   47  GLY47      -0.1939
     91  CA        27.3810  -73.7180  -14.6370 C.3    47  GLY47       0.2014
     92  C         26.3020  -72.9400  -15.3610 C.2    47  GLY47       0.2640
     93  O         25.1590  -73.3950  -15.4570 O.2    47  GLY47      -0.2714
     94  N         26.6640  -71.7600  -15.8630 N.am   48  SER48      -0.1935
     95  CA        25.7410  -70.9160  -16.6210 C.3    48  SER48       0.2055
     96  C         25.2620  -71.6460  -17.8680 C.2    48  SER48       0.2643
     97  O         26.0710  -72.0990  -18.6780 O.2    48  SER48      -0.2714
     98  CB        26.4010  -69.5840  -16.9930 C.3    48  SER48       0.2130
     99  OG        25.5820  -68.8280  -17.8700 O.3    48  SER48      -0.2179
    100  N         23.9420  -71.7650  -17.9960 N.am   49  ALA49      -0.1963
    101  CA        23.3120  -72.4960  -19.0940 C.3    49  ALA49       0.1728
    102  C         23.6800  -71.9320  -20.4640 C.2    49  ALA49       0.2616
    103  O         24.0420  -72.6810  -21.3720 O.2    49  ALA49      -0.2715
    104  CB        21.8020  -72.5140  -18.9130 C.3    49  ALA49       0.0334
    105  N         23.5910  -70.6100  -20.5950 N.am   50  ALA50      -0.1963
    106  CA        23.9180  -69.9160  -21.8370 C.3    50  ALA50       0.1728
    107  C         25.4080  -70.0000  -22.1520 C.2    50  ALA50       0.2616
    108  O         25.7900  -70.2380  -23.2990 O.2    50  ALA50      -0.2715
    109  CB        23.4670  -68.4670  -21.7660 C.3    50  ALA50       0.0334
    110  N         26.2390  -69.8050  -21.1280 N.am   51  ASP51      -0.1957
    111  CA        27.6920  -69.8870  -21.2730 C.3    51  ASP51       0.1840
    112  C         28.1370  -71.2930  -21.6610 C.2    51  ASP51       0.2622
    113  O         28.9550  -71.4560  -22.5680 O.2    51  ASP51      -0.2715
    114  CB        28.3980  -69.4390  -19.9870 C.3    51  ASP51       0.1450
    115  CG        28.2830  -67.9410  -19.7400 C.2    51  ASP51       0.3671
    116  OD1       27.7730  -67.2130  -20.6190 O.co2  51  ASP51      -0.2456
    117  OD2       28.7110  -67.4880  -18.6570 O.co2  51  ASP51      -0.2456
    118  N         27.5880  -72.2980  -20.9800 N.am   52  ALA52      -0.1963
    119  CA        27.8940  -73.6970  -21.2690 C.3    52  ALA52       0.1728
    120  C         27.5290  -74.0530  -22.7070 C.2    52  ALA52       0.2616
    121  O         28.3950  -74.4540  -23.4850 O.2    52  ALA52      -0.2715
    122  CB        27.1850  -74.6210  -20.2870 C.3    52  ALA52       0.0334
    123  N         26.2540  -73.8750  -23.0580 N.am   53  GLN53      -0.1977
    124  CA        25.7450  -74.2040  -24.3940 C.3    53  GLN53       0.1601
    125  C         26.5310  -73.5410  -25.5250 C.2    53  GLN53       0.2287
    126  O         26.7570  -74.1550  -26.5690 O.2    53  GLN53      -0.2864
    127  CB        24.2570  -73.8610  -24.5120 C.3    53  GLN53       0.0394
    128  CG        23.3300  -74.8480  -23.8160 C.3    53  GLN53       0.0908
    129  CD        21.8630  -74.4790  -23.9530 C.2    53  GLN53       0.2608
    130  OE1       21.5050  -73.3020  -24.0100 O.2    53  GLN53      -0.2717
    131  NE2       21.0040  -75.4900  -23.9990 N.am   53  GLN53      -0.0878
    132  N         31.3070  -68.6860  -17.6540 N.3    95  LEU95      -0.1245
    133  CA        31.3070  -69.3440  -16.3480 C.3    95  LEU95       0.1561
    134  C         30.6370  -70.7150  -16.3910 C.2    95  LEU95       0.2260
    135  O         29.4430  -70.8490  -16.1050 O.2    95  LEU95      -0.2867
    136  CB        30.6570  -68.4430  -15.2880 C.3    95  LEU95       0.0270
    137  CG        31.2000  -67.0180  -15.1170 C.3    95  LEU95       0.0019
    138  CD1       30.3740  -66.2500  -14.0970 C.3    95  LEU95       0.0001
    139  CD2       32.6740  -67.0090  -14.7300 C.3    95  LEU95       0.0001
    140  N         29.8570  -79.8940  -11.0540 N.3   128  GLY128     -0.1210
    141  CA        28.5860  -79.2490  -10.7320 C.3   128  GLY128      0.1956
    142  C         28.4560  -78.9130   -9.2590 C.2   128  GLY128      0.2612
    143  O         29.3440  -79.2240   -8.4620 O.2   128  GLY128     -0.2717
    144  N         27.3420  -78.2760   -8.9020 N.am  129  SER129     -0.1952
    145  CA        27.0750  -77.8680   -7.5210 C.3   129  SER129      0.1924
    146  C         26.8900  -79.0600   -6.5830 C.2   129  SER129      0.2314
    147  O         27.2790  -79.0040   -5.4140 O.2   129  SER129     -0.2863
    148  CB        25.8460  -76.9570   -7.4600 C.3   129  SER129      0.2116
    149  OG        24.7080  -77.5970   -8.0110 O.3   129  SER129     -0.2180
    150  N         19.9540  -77.7360   -5.9480 N.3   168  SER168     -0.1217
    151  CA        20.1490  -77.2990   -7.3290 C.3   168  SER168      0.1889
    152  C         20.2360  -78.4700   -8.3110 C.2   168  SER168      0.2288
    153  O         20.4730  -78.2720   -9.5030 O.2   168  SER168     -0.2866
    154  CB        21.3900  -76.4080   -7.4370 C.3   168  SER168      0.2089
    155  OG        21.2230  -75.2140   -6.6920 O.3   168  SER168     -0.2183
@<TRIPOS>BOND
     1   126   125    2
     2   125   124    1
     3   127   124    1
     4   127   128    1
     5   124   123    1
     6   130   129    2
     7   131   129   am
     8   129   128    1
     9   121   120    2
    10   108   107    2
    11   123   120   am
    12   120   119    1
    13   113   112    2
    14    82    81    1
    15   107   106    1
    16   107   110   am
    17    64    66   ar
    18    64    62   ar
    19    66    65   ar
    20    83    81    1
    21   106   109    1
    22   106   105    1
    23   112   111    1
    24   112   118   am
    25    81    80    1
    26   103   102    2
    27   111   110    1
    28   111   114    1
    29   119   118    1
    30   119   122    1
    31    62    61   ar
    32    65    63   ar
    33    69    70    2
    34    69    68    1
    35   116   115   ar
    36   105   102   am
    37   102   101    1
    38    67    68    1
    39    61    63   ar
    40    61    60    1
    41    68    71    1
    42   114   115    1
    43    80    77    1
    44   115   117   ar
    45    58    57    1
    46    58    59    2
    47    57    60    1
    48    57    56    1
    49    76    77    1
    50   101   104    1
    51   101   100    1
    52    77    78    1
    53    97    96    2
    54    71    72    1
    55   100    96   am
    56    72    73    1
    57    99    98    1
    58    96    95    1
    59   132   133    1
    60    78    84   am
    61    78    79    2
    62    32    31    1
    63    84    85    1
    64    98    95    1
    65    52    51    2
    66    55    53    1
    67    87    86    2
    68    95    94    1
    69    73    74    1
    70    33    31    1
    71   134   133    1
    72   134   135    2
    73   133   136    1
    74    31    28    1
    75    51    50    1
    76    94    92   am
    77    74    75    1
    78    86    85    1
    79    86    90   am
    80    85    88    1
    81    11    10    2
    82    53    50    1
    83    53    54    1
    84    93    92    2
    85    92    91    1
    86   136   137    1
    87   137   139    1
    88   137   138    1
    89    50    49    1
    90    89    88    1
    91    90    91    1
    92    28    27    1
    93    28    29    1
    94    10     9    1
    95    27    18   am
    96    19    18    2
    97    18    17    1
    98    16    17    1
    99     8     9    1
   100     6     5    1
   101     7     5    1
   102    29    30    2
   103    29    34   am
   104    17    20    1
   105     9    12    1
   106    34    35    1
   107     5     2    1
   108    37    36    2
   109    14    13   ar
   110    44    41    1
   111    13    12    1
   112    13    15   ar
   113    36    35    1
   114    36    40   am
   115    20    21    1
   116    35    38    1
   117    40    41    1
   118     2     1    1
   119     2     3    1
   120    41    42    1
   121    21    22    1
   122   140   141    1
   123     3     4    2
   124    39    38    1
   125   141   142    1
   126    42    43    2
   127    42    45   am
   128    22    23    1
   129    23    24    2
   130   153   152    2
   131    45    46    1
   132   142   144   am
   133   142   143    2
   134   144   145    1
   135    24    26    1
   136    24    25    1
   137   152   151    1
   138    46    47    1
   139   149   148    1
   140   145   148    1
   141   145   146    1
   142   154   151    1
   143   154   155    1
   144    48    47    2
   145   151   150    1
   146   146   147    2
