@<TRIPOS>MOLECULE
tmp/3ungA00.pdb
 139 129 0 0 0
SMALL
GASTEIGER

@<TRIPOS>ATOM
      1  N         12.4880   38.4730   17.1720 N.3    11  LYS11      -0.1245
      2  CA        12.9750   37.1520   16.8040 C.3    11  LYS11       0.1561
      3  C         13.4010   36.4000   18.0510 C.2    11  LYS11       0.2260
      4  O         14.0850   36.9560   18.8990 O.2    11  LYS11      -0.2867
      5  CB        14.1630   37.2540   15.8480 C.3    11  LYS11       0.0271
      6  CG        14.5040   35.9320   15.1760 C.3    11  LYS11       0.0035
      7  CD        15.8150   36.0350   14.4430 C.3    11  LYS11       0.0206
      8  CE        16.0800   34.8060   13.5870 C.3    11  LYS11       0.1093
      9  NZ        17.4460   34.8900   12.9870 N.3    11  LYS11      -0.1314
     10  N         16.2080   28.0190   17.7660 N.3    15  VAL15      -0.1231
     11  CA        15.0830   27.1780   17.3750 C.3    15  VAL15       0.1692
     12  C         15.5570   25.7600   17.1190 C.2    15  VAL15       0.2591
     13  O         15.1360   24.8180   17.7860 O.2    15  VAL15      -0.2718
     14  CB        14.3850   27.6960   16.0930 C.3    15  VAL15       0.0266
     15  CG1       13.2890   26.7150   15.6290 C.3    15  VAL15       0.0020
     16  CG2       13.8120   29.0820   16.3180 C.3    15  VAL15       0.0020
     17  N         16.4310   25.6150   16.1320 N.am   16  GLN16      -0.1979
     18  CA        16.8650   24.2960   15.6870 C.3    16  GLN16       0.1601
     19  C         17.6710   23.4860   16.7080 C.2    16  GLN16       0.2287
     20  O         17.4880   22.2880   16.7940 O.2    16  GLN16      -0.2864
     21  CB        17.5910   24.3770   14.3390 C.3    16  GLN16       0.0394
     22  CG        17.1790   23.2670   13.3950 C.3    16  GLN16       0.0908
     23  CD        15.6840   22.9620   13.4750 C.2    16  GLN16       0.2608
     24  OE1       15.2730   22.0020   14.1370 O.2    16  GLN16      -0.2717
     25  NE2       14.8650   23.7800   12.7990 N.am   16  GLN16      -0.0878
     26  N         14.7920   22.4170   19.4110 N.3    19  ILE19      -0.1245
     27  CA        13.9000   21.3930   18.8490 C.3    19  ILE19       0.1561
     28  C         14.6770   20.1500   18.3920 C.2    19  ILE19       0.2260
     29  O         14.1610   19.0320   18.3850 O.2    19  ILE19      -0.2867
     30  CB        13.1000   21.9720   17.6620 C.3    19  ILE19       0.0252
     31  CG1       12.1940   23.1020   18.1500 C.3    19  ILE19       0.0019
     32  CG2       12.2930   20.8890   16.9300 C.3    19  ILE19       0.0019
     33  CD1       11.4640   23.8000   17.0540 C.3    19  ILE19       0.0001
     34  N          8.6930   22.2610   20.1330 N.3    32  SER32      -0.1217
     35  CA         8.0750   23.0710   19.1150 C.3    32  SER32       0.1889
     36  C          6.9490   23.9570   19.7200 C.2    32  SER32       0.2288
     37  O          6.9200   25.1970   19.5550 O.2    32  SER32      -0.2866
     38  CB         7.5960   22.1370   17.9920 C.3    32  SER32       0.2089
     39  OG         6.7570   22.8180   17.0940 O.3    32  SER32      -0.2183
     40  N          8.2440   26.7140   22.0460 N.3    35  LEU35      -0.1231
     41  CA         8.7740   27.8550   21.2980 C.3    35  LEU35       0.1693
     42  C          7.6590   28.7890   20.8060 C.2    35  LEU35       0.2592
     43  O          7.7240   30.0420   20.9370 O.2    35  LEU35      -0.2718
     44  CB         9.5580   27.3640   20.0960 C.3    35  LEU35       0.0284
     45  CG        11.0610   27.5180   20.1660 C.3    35  LEU35       0.0019
     46  CD1       11.6310   27.0720   18.8250 C.3    35  LEU35       0.0001
     47  CD2       11.4200   28.9700   20.4770 C.3    35  LEU35       0.0001
     48  N          6.6310   28.1830   20.2200 N.am   36  SER36      -0.1952
     49  CA         5.5040   28.9950   19.7610 C.3    36  SER36       0.1924
     50  C          4.8510   29.7300   20.9350 C.2    36  SER36       0.2314
     51  O          4.4260   30.8890   20.7990 O.2    36  SER36      -0.2863
     52  CB         4.4670   28.1320   19.0200 C.3    36  SER36       0.2116
     53  OG         5.0060   27.6740   17.8020 O.3    36  SER36      -0.2180
     54  N          2.6990   29.4200   15.5420 N.3    84  LEU84      -0.1231
     55  CA         3.3760   30.7180   15.6540 C.3    84  LEU84       0.1678
     56  C          4.8650   30.6000   15.3560 C.2    84  LEU84       0.2434
     57  O          5.5650   29.7550   15.9180 O.2    84  LEU84      -0.2733
     58  CB         3.1360   31.3890   17.0330 C.3    84  LEU84       0.0284
     59  CG         1.7010   31.8810   17.2780 C.3    84  LEU84       0.0019
     60  CD1        1.4310   32.2080   18.7310 C.3    84  LEU84       0.0001
     61  CD2        1.3800   33.0770   16.3970 C.3    84  LEU84       0.0001
     62  N          5.3450   31.4420   14.4440 N.am   85  PRO85      -0.2718
     63  CA         6.7390   31.4970   14.0070 C.3    85  PRO85       0.1535
     64  C          7.6070   32.1980   15.0520 C.2    85  PRO85       0.2598
     65  O          7.0710   32.8920   15.9120 O.2    85  PRO85      -0.2715
     66  CB         6.6630   32.3380   12.7200 C.3    85  PRO85       0.0310
     67  CG         5.1880   32.5360   12.4350 C.3    85  PRO85       0.0237
     68  CD         4.5170   32.4390   13.7520 C.3    85  PRO85       0.0939
     69  N          8.9240   32.0240   14.9700 N.am   86  ASN86      -0.1973
     70  CA         9.8510   32.6210   15.9310 C.3    86  ASN86       0.1688
     71  C         10.2700   34.0230   15.5020 C.2    86  ASN86       0.2292
     72  O         11.1990   34.6100   16.0640 O.2    86  ASN86      -0.2864
     73  CB        11.0830   31.7400   16.1630 C.3    86  ASN86       0.1181
     74  CG        11.9510   31.6100   14.9280 C.2    86  ASN86       0.2629
     75  OD1       11.4870   31.2050   13.8640 O.2    86  ASN86      -0.2716
     76  ND2       13.2150   31.9590   15.0630 N.am   86  ASN86      -0.0877
     77  N          9.3480   23.6680    3.3680 N.3   328  ASP328     -0.1239
     78  CA         9.6550   25.0850    3.4540 C.3   328  ASP328      0.1674
     79  C          9.4330   25.7520    2.0970 C.2   328  ASP328      0.2266
     80  O          9.8190   25.2040    1.0490 O.2   328  ASP328     -0.2867
     81  CB        11.1080   25.2470    3.9000 C.3   328  ASP328      0.1410
     82  CG        11.5700   26.6850    3.8720 C.2   328  ASP328      0.3668
     83  OD1       10.7160   27.5870    3.9990 O.co2 328  ASP328     -0.2456
     84  OD2       12.7900   26.9130    3.7270 O.co2 328  ASP328     -0.2456
     85  N          4.1060   21.2880   13.6370 N.3   365  TYR365     -0.1241
     86  CA         4.2660   22.7190   13.4350 C.3   365  TYR365      0.1605
     87  C          3.8340   23.2000   12.0540 C.2   365  TYR365      0.2264
     88  O          4.2630   22.6330   11.0490 O.2   365  TYR365     -0.2867
     89  CB         5.7240   23.0820   13.6890 C.3   365  TYR365      0.0534
     90  CG         6.0880   24.5130   13.3520 C.ar  365  TYR365     -0.0201
     91  CD1        6.8970   24.8030   12.2590 C.ar  365  TYR365     -0.0009
     92  CD2        5.6460   25.5720   14.1400 C.ar  365  TYR365     -0.0009
     93  CE1        7.2500   26.1050   11.9520 C.ar  365  TYR365      0.0417
     94  CE2        5.9950   26.8850   13.8460 C.ar  365  TYR365      0.0417
     95  CZ         6.7990   27.1440   12.7470 C.ar  365  TYR365      0.1957
     96  OH         7.1460   28.4400   12.4300 O.3   365  TYR365     -0.2866
     97  N          5.2550   29.4870    6.0110 N.3   369  ASP369     -0.1225
     98  CA         5.9000   28.6820    4.9550 C.3   369  ASP369      0.1805
     99  C          6.5560   27.3620    5.3990 C.2   369  ASP369      0.2597
    100  O          7.0250   26.6030    4.5570 O.2   369  ASP369     -0.2718
    101  CB         6.7920   29.5220    4.0020 C.3   369  ASP369      0.1424
    102  CG         8.2100   29.7000    4.4970 C.2   369  ASP369      0.3668
    103  OD1        9.0720   30.0280    3.6450 O.co2 369  ASP369     -0.2456
    104  OD2        8.4650   29.5340    5.7150 O.co2 369  ASP369     -0.2456
    105  N          6.5750   27.0970    6.7120 N.am  370  ASP370     -0.1974
    106  CA         7.1990   25.8960    7.2580 C.3   370  ASP370      0.1709
    107  C          6.2120   24.8740    7.7970 C.2   370  ASP370      0.2293
    108  O          5.2020   25.2310    8.4010 O.2   370  ASP370     -0.2864
    109  CB         8.2010   26.2620    8.3550 C.3   370  ASP370      0.1436
    110  CG         9.2490   27.2380    7.8750 C.2   370  ASP370      0.3671
    111  OD1        9.1340   28.4300    8.2250 O.co2 370  ASP370     -0.2456
    112  OD2       10.1780   26.8140    7.1460 O.co2 370  ASP370     -0.2456
    113  N          6.1380   20.7680    9.7420 N.3   372  LEU372     -0.1245
    114  CA         6.8170   19.6220   10.3630 C.3   372  LEU372      0.1561
    115  C          5.7530   18.6190   10.8290 C.2   372  LEU372      0.2260
    116  O          4.8870   18.9680   11.6210 O.2   372  LEU372     -0.2867
    117  CB         7.6760   20.0810   11.5420 C.3   372  LEU372      0.0270
    118  CG         8.2610   19.0040   12.4670 C.3   372  LEU372      0.0019
    119  CD1        9.1740   18.0190   11.7330 C.3   372  LEU372      0.0001
    120  CD2        8.9950   19.6300   13.6700 C.3   372  LEU372      0.0001
    121  N         15.9640   17.1130    7.6580 N.3   418  ARG418     -0.1245
    122  CA        16.2180   18.5310    7.4430 C.3   418  ARG418      0.1563
    123  C         17.3240   18.7060    6.3930 C.2   418  ARG418      0.2260
    124  O         17.2970   19.6420    5.5910 O.2   418  ARG418     -0.2867
    125  CB        16.5710   19.2110    8.7690 C.3   418  ARG418      0.0307
    126  CG        16.5430   20.7380    8.7360 C.3   418  ARG418      0.0489
    127  CD        15.1380   21.3140    8.4660 C.3   418  ARG418      0.2205
    128  NE        14.1570   21.1870    9.5540 N.pl3 418  ARG418     -0.0865
    129  CZ        14.4030   20.7980   10.8070 C.cat 418  ARG418      0.5346
    130  NH1       15.6280   20.4750   11.2050 N.pl3 418  ARG418      0.1354
    131  NH2       13.4000   20.7350   11.6780 N.pl3 418  ARG418      0.1354
    132  N         17.2480   20.8500    2.8990 N.3   422  ASN422     -0.1240
    133  CA        18.1240   22.0020    2.6750 C.3   422  ASN422      0.1653
    134  C         19.2740   21.8060    1.7010 C.2   422  ASN422      0.2266
    135  O         19.5840   22.6850    0.8780 O.2   422  ASN422     -0.2867
    136  CB        18.6490   22.5420    4.0110 C.3   422  ASN422      0.1155
    137  CG        17.5460   23.1410    4.8750 C.2   422  ASN422      0.2627
    138  OD1       17.3710   22.7440    6.0290 O.2   422  ASN422     -0.2716
    139  ND2       16.7950   24.0980    4.3190 N.am  422  ASN422     -0.0877
@<TRIPOS>BOND
     1   135   134    2
     2    80    79    2
     3   134   133    1
     4    79    78    1
     5   133   132    1
     6   133   136    1
     7    77    78    1
     8    78    81    1
     9   103   102   ar
    10    84    82   ar
    11    82    81    1
    12    82    83   ar
    13   101   102    1
    14   101    98    1
    15   136   137    1
    16   139   137   am
    17   102   104   ar
    18   100    99    2
    19   137   138    2
    20    98    99    1
    21    98    97    1
    22    99   105   am
    23   124   123    2
    24   123   122    1
    25   105   106    1
    26   112   110   ar
    27   106   107    1
    28   106   109    1
    29   122   121    1
    30   122   125    1
    31   107   108    2
    32   110   111   ar
    33   110   109    1
    34   127   126    1
    35   127   128    1
    36   126   125    1
    37   128   129    2
    38   113   114    1
    39   114   115    1
    40   114   117    1
    41   129   130    1
    42   129   131    1
    43   115   116    2
    44    88    87    2
    45   117   118    1
    46   119   118    1
    47    93    91   ar
    48    93    95   ar
    49    87    86    1
    50    91    90   ar
    51    96    95    1
    52    67    66    1
    53    67    68    1
    54   118   120    1
    55    66    63    1
    56    95    94   ar
    57    25    23   am
    58     9     8    1
    59    90    89    1
    60    90    92   ar
    61    22    23    1
    62    22    21    1
    63    86    85    1
    64    86    89    1
    65    23    24    2
    66     8     7    1
    67    68    62    1
    68    94    92   ar
    69    75    74    2
    70    63    62    1
    71    63    64    1
    72    21    18    1
    73     7     6    1
    74    62    56   am
    75    74    76   am
    76    74    73    1
    77    69    64   am
    78    69    70    1
    79    64    65    2
    80     6     5    1
    81    56    55    1
    82    56    57    2
    83    71    70    1
    84    71    72    2
    85    54    55    1
    86    15    14    1
    87    55    58    1
    88    18    17    1
    89    18    19    1
    90     5     2    1
    91    70    73    1
    92    14    16    1
    93    14    11    1
    94    17    12   am
    95    61    59    1
    96    19    20    2
    97     2     1    1
    98     2     3    1
    99    32    30    1
   100    58    59    1
   101    33    31    1
   102    39    38    1
   103    12    11    1
   104    12    13    2
   105    59    60    1
   106    11    10    1
   107    30    31    1
   108    30    27    1
   109    53    52    1
   110    38    35    1
   111     3     4    2
   112    29    28    2
   113    28    27    1
   114    46    45    1
   115    27    26    1
   116    52    49    1
   117    35    36    1
   118    35    34    1
   119    37    36    2
   120    49    48    1
   121    49    50    1
   122    44    45    1
   123    44    41    1
   124    45    47    1
   125    48    42   am
   126    51    50    2
   127    42    43    2
   128    42    41    1
   129    41    40    1
