@<TRIPOS>MOLECULE
tmp/3unjA00.pdb
 167 158 0 0 0
SMALL
GASTEIGER

@<TRIPOS>ATOM
      1  N         80.1010   61.3360   72.4130 N.3     8  GLU8       -0.1245
      2  CA        79.8180   60.2340   71.5090 C.3     8  GLU8        0.1567
      3  C         80.7660   60.2900   70.3080 C.2     8  GLU8        0.2260
      4  O         81.4540   61.2870   70.1010 O.2     8  GLU8       -0.2867
      5  CB        78.3700   60.3070   71.0050 C.3     8  GLU8        0.0388
      6  CG        77.2890   60.2880   72.0860 C.3     8  GLU8        0.1160
      7  CD        75.8890   60.1230   71.5000 C.2     8  GLU8        0.3649
      8  OE1       75.3810   61.0800   70.8760 O.co2   8  GLU8       -0.2457
      9  OE2       75.2960   59.0320   71.6600 O.co2   8  GLU8       -0.2457
     10  N         80.3200   60.6680   66.4640 N.3    10  ILE10      -0.1245
     11  CA        79.3050   61.1250   65.5050 C.3    10  ILE10       0.1561
     12  C         79.2960   60.3260   64.2140 C.2    10  ILE10       0.2260
     13  O         78.2490   60.1470   63.5890 O.2    10  ILE10      -0.2867
     14  CB        79.5040   62.6070   65.1040 C.3    10  ILE10       0.0252
     15  CG1       79.1440   63.5330   66.2560 C.3    10  ILE10       0.0019
     16  CG2       78.6560   62.9490   63.8700 C.3    10  ILE10       0.0019
     17  CD1       79.4690   64.9950   65.9920 C.3    10  ILE10       0.0001
     18  N         84.6690   61.4500   63.4700 N.3    18  VAL18      -0.1245
     19  CA        84.1020   62.6540   64.0720 C.3    18  VAL18       0.1561
     20  C         83.4640   62.3480   65.4240 C.2    18  VAL18       0.2260
     21  O         82.7010   61.3870   65.5500 O.2    18  VAL18      -0.2867
     22  CB        83.0390   63.2870   63.1550 C.3    18  VAL18       0.0252
     23  CG1       82.5590   64.6240   63.7420 C.3    18  VAL18       0.0019
     24  CG2       83.6040   63.4800   61.7580 C.3    18  VAL18       0.0019
     25  N         81.4090   64.0510   69.0040 N.3    20  LYS20      -0.1245
     26  CA        80.8340   65.1140   69.8170 C.3    20  LYS20       0.1561
     27  C         81.7210   65.2390   71.0590 C.2    20  LYS20       0.2260
     28  O         81.9760   64.2470   71.7380 O.2    20  LYS20      -0.2867
     29  CB        79.4020   64.7640   70.2270 C.3    20  LYS20       0.0271
     30  CG        78.7360   65.7920   71.1650 C.3    20  LYS20       0.0035
     31  CD        77.3010   65.3600   71.4830 C.3    20  LYS20       0.0206
     32  CE        76.5420   66.3990   72.3140 C.3    20  LYS20       0.1093
     33  NZ        75.0810   66.0840   72.3540 N.3    20  LYS20      -0.1314
     34  N         82.0200   69.8260   67.5180 N.3    31  ALA31      -0.1245
     35  CA        82.2250   68.6240   66.7390 C.3    31  ALA31       0.1562
     36  C         83.7370   68.5520   66.4940 C.2    31  ALA31       0.2260
     37  O         84.3350   69.5340   66.0600 O.2    31  ALA31      -0.2867
     38  CB        81.4780   68.7070   65.4100 C.3    31  ALA31       0.0290
     39  N         86.8700   66.5810   64.5610 N.3    33  LYS33      -0.1245
     40  CA        87.2730   65.6090   63.5470 C.3    33  LYS33       0.1561
     41  C         88.7450   65.2140   63.7330 C.2    33  LYS33       0.2260
     42  O         89.6110   66.0840   63.7190 O.2    33  LYS33      -0.2867
     43  CB        87.1000   66.1910   62.1510 C.3    33  LYS33       0.0271
     44  CG        87.3740   65.1870   61.0450 C.3    33  LYS33       0.0035
     45  CD        87.3110   65.8460   59.6780 C.3    33  LYS33       0.0206
     46  CE        87.5530   64.8430   58.5690 C.3    33  LYS33       0.1093
     47  NZ        86.2830   64.1950   58.1630 N.3    33  LYS33      -0.1314
     48  N         79.1740   75.5150   58.1700 N.3    60  VAL60      -0.1245
     49  CA        79.5220   75.1500   59.5400 C.3    60  VAL60       0.1561
     50  C         80.8810   75.7590   59.9060 C.2    60  VAL60       0.2260
     51  O         81.8530   75.5460   59.1930 O.2    60  VAL60      -0.2867
     52  CB        79.5860   73.6080   59.7220 C.3    60  VAL60       0.0252
     53  CG1       80.0610   73.2310   61.1280 C.3    60  VAL60       0.0019
     54  CG2       78.2220   72.9630   59.4510 C.3    60  VAL60       0.0019
     55  N         84.9300   72.0500   64.9560 N.3    76  PHE76      -0.1227
     56  CA        83.7960   72.7080   64.3060 C.3    76  PHE76       0.1736
     57  C         82.7410   73.0900   65.3510 C.2    76  PHE76       0.2595
     58  O         82.6060   72.4040   66.3600 O.2    76  PHE76      -0.2718
     59  CB        83.1280   71.7190   63.3550 C.3    76  PHE76       0.0547
     60  CG        83.9320   71.3760   62.1320 C.ar   76  PHE76      -0.0202
     61  CD1       83.7970   72.1210   60.9670 C.ar   76  PHE76      -0.0042
     62  CD2       84.7730   70.2750   62.1220 C.ar   76  PHE76      -0.0042
     63  CE1       84.5120   71.7930   59.8240 C.ar   76  PHE76      -0.0003
     64  CE2       85.4900   69.9420   60.9810 C.ar   76  PHE76      -0.0003
     65  CZ        85.3590   70.7020   59.8350 C.ar   76  PHE76      -0.0000
     66  N         81.9780   74.1590   65.1050 N.am   77  GLU77      -0.1965
     67  CA        80.7970   74.4170   65.9300 C.3    77  GLU77       0.1733
     68  C         79.8830   73.2310   65.7690 C.2    77  GLU77       0.2616
     69  O         79.8750   72.5790   64.7160 O.2    77  GLU77      -0.2715
     70  CB        80.0430   75.6790   65.5040 C.3    77  GLU77       0.0429
     71  CG        79.7230   75.7130   64.0140 C.3    77  GLU77       0.1163
     72  CD        78.6150   76.7090   63.6530 C.2    77  GLU77       0.3649
     73  OE1       77.9480   77.2460   64.5610 O.co2  77  GLU77      -0.2457
     74  OE2       78.4170   76.9630   62.4470 O.co2  77  GLU77      -0.2457
     75  N         79.0920   72.9680   66.8040 N.am   78  PHE78      -0.1960
     76  CA        78.2350   71.8020   66.8540 C.3    78  PHE78       0.1771
     77  C         76.8380   72.1410   66.3370 C.2    78  PHE78       0.2619
     78  O         76.2140   73.1050   66.8050 O.2    78  PHE78      -0.2715
     79  CB        78.1340   71.3260   68.3160 C.3    78  PHE78       0.0574
     80  CG        77.3340   70.0670   68.5020 C.ar   78  PHE78      -0.0200
     81  CD1       76.0970   70.1030   69.1380 C.ar   78  PHE78      -0.0042
     82  CD2       77.8240   68.8440   68.0650 C.ar   78  PHE78      -0.0042
     83  CE1       75.3630   68.9330   69.3210 C.ar   78  PHE78      -0.0003
     84  CE2       77.0980   67.6820   68.2430 C.ar   78  PHE78      -0.0003
     85  CZ        75.8710   67.7230   68.8750 C.ar   78  PHE78      -0.0000
     86  N         76.3620   71.3640   65.3600 N.am   79  LEU79      -0.1963
     87  CA        74.9540   71.4330   64.9610 C.3    79  LEU79       0.1728
     88  C         74.1640   70.2350   65.5100 C.2    79  LEU79       0.2616
     89  O         74.7350   69.3210   66.1060 O.2    79  LEU79      -0.2715
     90  CB        74.8200   71.5950   63.4300 C.3    79  LEU79       0.0311
     91  CG        74.7650   73.0820   63.0620 C.3    79  LEU79       0.0022
     92  CD1       76.1810   73.6160   62.8740 C.3    79  LEU79       0.0001
     93  CD2       73.9240   73.3600   61.8440 C.3    79  LEU79       0.0001
     94  N         72.8450   70.2440   65.3130 N.am   80  HIS80      -0.1959
     95  CA        71.9700   69.3470   66.0540 C.3    80  HIS80       0.1787
     96  C         71.8070   67.9260   65.4830 C.2    80  HIS80       0.2620
     97  O         71.5340   66.9820   66.2260 O.2    80  HIS80      -0.2715
     98  CB        70.6180   70.0400   66.2570 C.3    80  HIS80       0.0785
     99  CG        70.7320   71.4040   66.8760 C.ar   80  HIS80       0.0821
    100  ND1       69.7380   72.3470   66.7990 N.ar   80  HIS80      -0.2267
    101  CD2       71.7410   71.9700   67.5890 C.ar   80  HIS80       0.1154
    102  CE1       70.1200   73.4450   67.4410 C.ar   80  HIS80       0.1986
    103  NE2       71.3310   73.2400   67.9220 N.ar   80  HIS80      -0.2212
    104  N         72.0530   67.7570   64.1800 N.am   81  GLN81      -0.1963
    105  CA        71.8690   66.4590   63.5340 C.3    81  GLN81       0.1733
    106  C         72.3990   66.5900   62.1110 C.2    81  GLN81       0.2616
    107  O         72.4870   67.7120   61.5920 O.2    81  GLN81      -0.2715
    108  CB        70.3700   66.1420   63.4620 C.3    81  GLN81       0.0408
    109  CG        70.0240   64.7000   63.0970 C.3    81  GLN81       0.0908
    110  CD        68.6250   64.3000   63.5440 C.2    81  GLN81       0.2608
    111  OE1       68.3720   64.0610   64.7420 O.2    81  GLN81      -0.2717
    112  NE2       67.7030   64.2490   62.5980 N.am   81  GLN81      -0.0878
    113  N         72.7350   65.4710   61.4740 N.am   82  ASP82      -0.1971
    114  CA        73.1340   65.5700   60.0710 C.3    82  ASP82       0.1709
    115  C         71.9990   65.1260   59.1650 C.2    82  ASP82       0.2293
    116  O         71.0420   64.5130   59.6090 O.2    82  ASP82      -0.2864
    117  CB        74.4140   64.7820   59.7680 C.3    82  ASP82       0.1436
    118  CG        74.2350   63.2630   59.8410 C.2    82  ASP82       0.3671
    119  OD1       73.1120   62.7680   60.0300 O.co2  82  ASP82      -0.2456
    120  OD2       75.2510   62.5570   59.6970 O.co2  82  ASP82      -0.2456
    121  N         71.0860   61.1820   59.0630 N.3    85  LYS85      -0.1245
    122  CA        70.1850   60.7480   60.1330 C.3    85  LYS85       0.1561
    123  C         68.7540   61.2560   59.9250 C.2    85  LYS85       0.2260
    124  O         67.7830   60.5000   60.0990 O.2    85  LYS85      -0.2867
    125  CB        70.7200   61.2020   61.5070 C.3    85  LYS85       0.0271
    126  CG        69.7350   60.9160   62.6560 C.3    85  LYS85       0.0035
    127  CD        70.4090   61.0530   64.0270 C.3    85  LYS85       0.0206
    128  CE        71.2830   59.8450   64.3620 C.3    85  LYS85       0.1093
    129  NZ        71.5020   59.7490   65.8490 N.3    85  LYS85      -0.1314
    130  N         76.2160   63.0700   55.1010 N.3   127  GLN127     -0.1231
    131  CA        76.8900   63.1480   56.4020 C.3   127  GLN127      0.1698
    132  C         77.6050   64.5010   56.6030 C.2   127  GLN127      0.2592
    133  O         77.8750   64.9110   57.7280 O.2   127  GLN127     -0.2718
    134  CB        77.8630   61.9670   56.5550 C.3   127  GLN127      0.0381
    135  CG        77.1790   60.5950   56.6640 C.3   127  GLN127      0.0905
    136  CD        76.8400   59.9370   55.3200 C.2   127  GLN127      0.2608
    137  OE1       76.8980   60.5600   54.2520 O.2   127  GLN127     -0.2717
    138  NE2       76.4810   58.6590   55.3790 N.am  127  GLN127     -0.0878
    139  N         77.8940   65.1840   55.5020 N.am  128  ASN128     -0.1974
    140  CA        78.5840   66.4730   55.4900 C.3   128  ASN128      0.1688
    141  C         77.6170   67.6390   55.6110 C.2   128  ASN128      0.2292
    142  O         78.0320   68.7910   55.6160 O.2   128  ASN128     -0.2864
    143  CB        79.3690   66.6460   54.1460 C.3   128  ASN128      0.1181
    144  CG        80.7600   66.0530   54.1760 C.2   128  ASN128      0.2629
    145  OD1       81.0500   65.0920   53.4710 O.2   128  ASN128     -0.2716
    146  ND2       81.6520   66.6650   54.9440 N.am  128  ASN128     -0.0877
    147  N         74.6310   69.5600   57.7260 N.3   130  LEU130     -0.1245
    148  CA        74.1440   69.6260   59.1170 C.3   130  LEU130      0.1561
    149  C         72.9780   70.6070   59.2710 C.2   130  LEU130      0.2260
    150  O         72.9870   71.6880   58.6810 O.2   130  LEU130     -0.2867
    151  CB        75.2580   70.0340   60.0750 C.3   130  LEU130      0.0270
    152  CG        76.4560   69.0960   60.2720 C.3   130  LEU130      0.0019
    153  CD1       75.9980   67.6910   60.6250 C.3   130  LEU130      0.0001
    154  CD2       77.3530   69.0620   59.0250 C.3   130  LEU130      0.0001
    155  N         79.6360   71.3840   55.7480 N.3   140  ALA140     -0.1231
    156  CA        80.8680   71.2610   56.5300 C.3   140  ALA140      0.1694
    157  C         81.9880   70.5030   55.8230 C.2   140  ALA140      0.2592
    158  O         81.7520   69.6680   54.9470 O.2   140  ALA140     -0.2718
    159  CB        80.5740   70.5910   57.8810 C.3   140  ALA140      0.0304
    160  N         83.2100   70.7570   56.2850 N.am  141  ASP141     -0.1974
    161  CA        84.4040   70.0040   55.8920 C.3   141  ASP141      0.1709
    162  C         84.7710   70.0930   54.4070 C.2   141  ASP141      0.2293
    163  O         84.8200   69.0830   53.7050 O.2   141  ASP141     -0.2864
    164  CB        84.2550   68.5360   56.2990 C.3   141  ASP141      0.1436
    165  CG        85.6090   67.8730   56.5990 C.2   141  ASP141      0.3671
    166  OD1       86.6220   68.6050   56.6490 O.co2 141  ASP141     -0.2456
    167  OD2       85.6530   66.6390   56.8050 O.co2 141  ASP141     -0.2456
@<TRIPOS>BOND
     1   145   144    2
     2   163   162    2
     3   143   144    1
     4   143   140    1
     5   144   146   am
     6   137   136    2
     7   162   161    1
     8   158   157    2
     9   130   131    1
    10   136   138   am
    11   136   135    1
    12   140   139    1
    13   140   141    1
    14   139   132   am
    15   141   142    2
    16   155   156    1
    17   157   160   am
    18   157   156    1
    19   161   160    1
    20   161   164    1
    21   164   165    1
    22   131   134    1
    23   131   132    1
    24   156   159    1
    25   134   135    1
    26   165   166   ar
    27   165   167   ar
    28   132   133    2
    29   147   148    1
    30    47    46    1
    31    48    49    1
    32    46    45    1
    33   150   149    2
    34   154   152    1
    35   121   122    1
    36   148   149    1
    37   148   151    1
    38   115   116    2
    39   115   114    1
    40    51    50    2
    41    54    52    1
    42    49    52    1
    43    49    50    1
    44    45    44    1
    45   120   118   ar
    46    52    53    1
    47   117   118    1
    48   117   114    1
    49    63    65   ar
    50    63    61   ar
    51    65    64   ar
    52   118   119   ar
    53   123   124    2
    54   123   122    1
    55   114   113    1
    56   151   152    1
    57   122   125    1
    58   152   153    1
    59    61    60   ar
    60    64    62   ar
    61    44    43    1
    62   113   106   am
    63   125   126    1
    64   107   106    2
    65    24    22    1
    66    93    91    1
    67   106   105    1
    68    62    60   ar
    69    60    59    1
    70    43    40    1
    71    74    72   ar
    72   112   110   am
    73   126   127    1
    74    92    91    1
    75    91    90    1
    76   109   108    1
    77   109   110    1
    78    22    23    1
    79    22    19    1
    80    59    56    1
    81    90    87    1
    82   108   105    1
    83    18    19    1
    84   105   104    1
    85   110   111    2
    86    40    41    1
    87    40    39    1
    88    13    12    2
    89    72    71    1
    90    72    73   ar
    91    42    41    2
    92    16    14    1
    93    71    70    1
    94   127   128    1
    95    19    20    1
    96   104    96   am
    97    12    11    1
    98    56    55    1
    99    56    57    1
   100   128   129    1
   101    69    68    2
   102    87    86    1
   103    87    88    1
   104    14    11    1
   105    14    15    1
   106    66    57   am
   107    66    67    1
   108    94    88   am
   109    94    95    1
   110    57    58    2
   111    86    77   am
   112    38    35    1
   113    20    21    2
   114    96    95    1
   115    96    97    2
   116    70    67    1
   117    11    10    1
   118    88    89    2
   119    68    67    1
   120    68    75   am
   121    17    15    1
   122    95    98    1
   123    37    36    2
   124    98    99    1
   125    77    78    2
   126    77    76    1
   127    36    35    1
   128    35    34    1
   129   100    99   ar
   130   100   102   ar
   131    75    76    1
   132    76    79    1
   133    99   101   ar
   134   102   103   ar
   135   101   103   ar
   136    82    84   ar
   137    82    80   ar
   138    84    85   ar
   139    79    80    1
   140    80    81   ar
   141    85    83   ar
   142    25    26    1
   143    81    83   ar
   144    26    29    1
   145    26    27    1
   146     4     3    2
   147    29    30    1
   148     3     2    1
   149     8     7   ar
   150     5     2    1
   151     5     6    1
   152    27    28    2
   153    30    31    1
   154    31    32    1
   155     7     9   ar
   156     7     6    1
   157     2     1    1
   158    32    33    1
