@<TRIPOS>MOLECULE
tmp/3unnA00.pdb
 113 111 0 0 0
SMALL
GASTEIGER

@<TRIPOS>ATOM
      1  N         -9.8890    3.3290    0.4710 N.3    33  ARG33      -0.1231
      2  CA        -8.6280    3.2440   -0.2560 C.3    33  ARG33       0.1694
      3  C         -7.4020    3.0800    0.6560 C.2    33  ARG33       0.2592
      4  O         -6.3650    2.5870    0.2100 O.2    33  ARG33      -0.2718
      5  CB        -8.4820    4.4570   -1.1780 C.3    33  ARG33       0.0321
      6  CG        -7.2260    4.4640   -2.0440 C.3    33  ARG33       0.0489
      7  CD        -7.3510    5.3910   -3.2350 C.3    33  ARG33       0.2205
      8  NE        -8.1690    6.5600   -2.9420 N.pl3  33  ARG33      -0.0865
      9  CZ        -7.7010    7.7440   -2.5520 C.cat  33  ARG33       0.5346
     10  NH1       -6.3960    7.9520   -2.4250 N.pl3  33  ARG33       0.1354
     11  NH2       -8.5470    8.7280   -2.3050 N.pl3  33  ARG33       0.1354
     12  N         -7.5280    3.4840    1.9200 N.am   34  MET34      -0.1966
     13  CA        -6.4340    3.3400    2.8930 C.3    34  MET34       0.1721
     14  C         -6.0860    1.8590    3.0780 C.2    34  MET34       0.2458
     15  O         -6.9840    1.0330    3.2320 O.2    34  MET34      -0.2730
     16  CB        -6.8170    3.9570    4.2430 C.3    34  MET34       0.0427
     17  CG        -7.1580    5.4470    4.2230 C.3    34  MET34       0.0599
     18  SD        -5.7440    6.5290    3.9460 S.3    34  MET34      -0.1393
     19  CE        -6.2200    7.9390    4.9510 C.3    34  MET34       0.0692
     20  N         -4.7800    1.5140    3.0560 N.am   35  PRO35      -0.2727
     21  CA        -4.3680    0.1080    3.1880 C.3    35  PRO35       0.1402
     22  C         -4.8170   -0.5440    4.4990 C.2    35  PRO35       0.2269
     23  O         -4.9340   -1.7690    4.5690 O.2    35  PRO35      -0.2865
     24  CB        -2.8320    0.1750    3.1120 C.3    35  PRO35       0.0296
     25  CG        -2.4850    1.6060    3.3600 C.3    35  PRO35       0.0237
     26  CD        -3.6270    2.4000    2.8190 C.3    35  PRO35       0.0939
     27  N         -7.6590   -0.1560   -3.4960 N.3    42  PRO42      -0.2116
     28  CA        -6.6300    0.8070   -3.8910 C.3    42  PRO42       0.1372
     29  C         -6.8400    1.3820   -5.2920 C.2    42  PRO42       0.2244
     30  O         -6.0150    1.1770   -6.1940 O.2    42  PRO42      -0.2868
     31  CB        -5.3420   -0.0240   -3.8100 C.3    42  PRO42       0.0268
     32  CG        -5.7880   -1.3890   -4.1670 C.3    42  PRO42       0.0207
     33  CD        -7.1540   -1.5420   -3.5450 C.3    42  PRO42       0.0892
     34  N         -8.3700    4.9590   -7.5940 N.3    44  PRO44      -0.2102
     35  CA        -8.4320    6.4220   -7.4680 C.3    44  PRO44       0.1504
     36  C         -9.8180    7.0180   -7.2080 C.2    44  PRO44       0.2576
     37  O         -9.9140    8.1150   -6.6630 O.2    44  PRO44      -0.2718
     38  CB        -7.8800    6.9240   -8.8100 C.3    44  PRO44       0.0282
     39  CG        -7.9140    5.7320   -9.7320 C.3    44  PRO44       0.0208
     40  CD        -7.7340    4.5400   -8.8560 C.3    44  PRO44       0.0893
     41  N        -10.8740    6.2980   -7.5840 N.am   45  SER45      -0.1938
     42  CA       -12.2430    6.7760   -7.4390 C.3    45  SER45       0.2055
     43  C        -12.8440    6.4410   -6.0740 C.2    45  SER45       0.2643
     44  O        -13.9330    6.9080   -5.7490 O.2    45  SER45      -0.2714
     45  CB       -13.1190    6.1490   -8.5280 C.3    45  SER45       0.2130
     46  OG       -12.9660    4.7510   -8.5150 O.3    45  SER45      -0.2179
     47  N        -12.1390    5.6170   -5.2960 N.am   46  ILE46      -0.1963
     48  CA       -12.6000    5.1910   -3.9670 C.3    46  ILE46       0.1727
     49  C        -12.0790    6.1660   -2.9130 C.2    46  ILE46       0.2617
     50  O        -10.8880    6.5050   -2.9070 O.2    46  ILE46      -0.2715
     51  CB       -12.1370    3.7360   -3.6400 C.3    46  ILE46       0.0290
     52  CG1      -12.6710    2.7370   -4.6850 C.3    46  ILE46       0.0022
     53  CG2      -12.5160    3.3260   -2.1980 C.3    46  ILE46       0.0023
     54  CD1      -14.2050    2.5490   -4.6880 C.3    46  ILE46       0.0001
     55  N        -12.9690    6.6130   -2.0270 N.am   47  SER47      -0.1936
     56  CA       -12.5820    7.5220   -0.9480 C.3    47  SER47       0.2055
     57  C        -11.6830    6.8330    0.0890 C.2    47  SER47       0.2643
     58  O        -11.7430    5.6190    0.2650 O.2    47  SER47      -0.2714
     59  CB       -13.8270    8.1330   -0.3050 C.3    47  SER47       0.2130
     60  OG       -14.4260    9.0650   -1.1890 O.3    47  SER47      -0.2179
     61  N        -10.8280    7.6130    0.7520 N.am   48  LYS48      -0.1963
     62  CA        -9.9250    7.0670    1.7750 C.3    48  LYS48       0.1728
     63  C        -10.7100    6.2960    2.8360 C.2    48  LYS48       0.2616
     64  O        -10.3210    5.1910    3.2330 O.2    48  LYS48      -0.2715
     65  CB        -9.1130    8.1900    2.4270 C.3    48  LYS48       0.0311
     66  CG        -8.0390    8.7690    1.5210 C.3    48  LYS48       0.0038
     67  CD        -7.3270    9.9720    2.1450 C.3    48  LYS48       0.0206
     68  CE        -8.1770   11.2370    2.1080 C.3    48  LYS48       0.1093
     69  NZ        -8.4540   11.6900    0.7140 N.3    48  LYS48      -0.1314
     70  N        -11.8080    6.9040    3.2880 N.am   49  GLN49      -0.1977
     71  CA       -12.7920    6.2640    4.1500 C.3    49  GLN49       0.1601
     72  C        -14.1190    6.3580    3.4150 C.2    49  GLN49       0.2287
     73  O        -14.7730    7.4020    3.4220 O.2    49  GLN49      -0.2864
     74  CB       -12.8600    6.9840    5.4980 C.3    49  GLN49       0.0394
     75  CG       -13.7750    6.3430    6.5180 C.3    49  GLN49       0.0908
     76  CD       -13.4930    6.8510    7.9150 C.2    49  GLN49       0.2608
     77  OE1      -12.3990    6.6470    8.4520 O.2    49  GLN49      -0.2717
     78  NE2      -14.4750    7.5260    8.5120 N.am   49  GLN49      -0.0878
     79  N        -18.5640    9.7740    1.1510 N.3    69  SER69      -0.1202
     80  CA       -17.6900    9.5270    0.0110 C.3    69  SER69       0.2020
     81  C        -17.8960   10.5700   -1.0920 C.2    69  SER69       0.2619
     82  O        -18.9350   11.2410   -1.1540 O.2    69  SER69      -0.2717
     83  CB       -17.9280    8.1230   -0.5540 C.3    69  SER69       0.2103
     84  OG       -19.1730    8.0750   -1.2150 O.3    69  SER69      -0.2182
     85  N        -16.8970   10.7110   -1.9550 N.am   70  LEU70      -0.1965
     86  CA       -16.9820   11.6570   -3.0590 C.3    70  LEU70       0.1728
     87  C        -17.8850   11.1350   -4.1730 C.2    70  LEU70       0.2616
     88  O        -18.7590   11.8500   -4.6700 O.2    70  LEU70      -0.2715
     89  CB       -15.5840   11.9740   -3.6000 C.3    70  LEU70       0.0311
     90  CG       -15.5170   12.8860   -4.8330 C.3    70  LEU70       0.0022
     91  CD1      -16.1590   14.2620   -4.5680 C.3    70  LEU70       0.0001
     92  CD2      -14.0800   13.0280   -5.2820 C.3    70  LEU70       0.0001
     93  N        -17.6820    9.8800   -4.5520 N.am   71  ASN71      -0.1972
     94  CA       -18.3760    9.3070   -5.7020 C.3    71  ASN71       0.1688
     95  C        -19.5790    8.4360   -5.3470 C.2    71  ASN71       0.2292
     96  O        -20.1890    7.8240   -6.2280 O.2    71  ASN71      -0.2864
     97  CB       -17.3840    8.5380   -6.5710 C.3    71  ASN71       0.1181
     98  CG       -16.4100    9.4570   -7.2850 C.2    71  ASN71       0.2629
     99  OD1      -16.8070   10.4760   -7.8540 O.2    71  ASN71      -0.2716
    100  ND2      -15.1340    9.1060   -7.2570 N.am   71  ASN71      -0.0877
    101  N        -18.3790    3.9790   -5.4350 N.3    99  ALA99      -0.1231
    102  CA       -18.0210    4.7370   -6.6330 C.3    99  ALA99       0.1694
    103  C        -18.4680    3.9490   -7.8780 C.2    99  ALA99       0.2592
    104  O        -19.6590    3.6480   -8.0230 O.2    99  ALA99      -0.2718
    105  CB       -16.5120    5.0430   -6.6510 C.3    99  ALA99       0.0304
    106  N        -17.5280    3.5920   -8.7490 N.am  100  ASP100     -0.1974
    107  CA       -17.8420    2.8190   -9.9660 C.3   100  ASP100      0.1709
    108  C        -17.5880    1.3190   -9.8190 C.2   100  ASP100      0.2293
    109  O        -17.7710    0.5620  -10.7850 O.2   100  ASP100     -0.2864
    110  CB       -17.0270    3.3520  -11.1520 C.3   100  ASP100      0.1436
    111  CG       -15.5330    3.2870  -10.9030 C.2   100  ASP100      0.3671
    112  OD1      -14.7990    2.7740  -11.7670 O.co2 100  ASP100     -0.2456
    113  OD2      -15.0900    3.7220   -9.8250 O.co2 100  ASP100     -0.2456
@<TRIPOS>BOND
     1   112   111   ar
     2   110   111    1
     3   110   107    1
     4   111   113   ar
     5   109   108    2
     6   107   108    1
     7   107   106    1
     8    39    40    1
     9    39    38    1
    10    40    34    1
    11    38    35    1
    12   106   103   am
    13    45    46    1
    14    45    42    1
    15   104   103    2
    16   103   102    1
    17    99    98    2
    18    34    35    1
    19    41    42    1
    20    41    36   am
    21    35    36    1
    22    42    43    1
    23    98   100   am
    24    98    97    1
    25    36    37    2
    26   105   102    1
    27   102   101    1
    28    97    94    1
    29    96    95    2
    30    30    29    2
    31    43    44    2
    32    43    47   am
    33    94    95    1
    34    94    93    1
    35    47    48    1
    36    29    28    1
    37    92    90    1
    38    90    91    1
    39    90    89    1
    40    54    52    1
    41    52    51    1
    42    88    87    2
    43    93    87   am
    44    87    86    1
    45    32    31    1
    46    32    33    1
    47    48    51    1
    48    48    49    1
    49    28    31    1
    50    28    27    1
    51    51    53    1
    52    89    86    1
    53    33    27    1
    54     7     8    1
    55     7     6    1
    56    86    85    1
    57     8     9    2
    58    49    50    2
    59    49    55   am
    60     9    10    1
    61     9    11    1
    62     6     5    1
    63    55    56    1
    64    85    81   am
    65    84    83    1
    66    60    59    1
    67     5     2    1
    68    82    81    2
    69    81    80    1
    70    56    59    1
    71    56    57    1
    72    83    80    1
    73     2     1    1
    74     2     3    1
    75    80    79    1
    76    57    58    2
    77    57    61   am
    78     4     3    2
    79     3    12   am
    80    69    68    1
    81    61    62    1
    82    66    67    1
    83    66    65    1
    84    62    65    1
    85    62    63    1
    86    12    13    1
    87    68    67    1
    88    26    20    1
    89    26    25    1
    90    63    64    2
    91    63    70   am
    92    13    14    1
    93    13    16    1
    94    20    14   am
    95    20    21    1
    96    14    15    2
    97    24    21    1
    98    24    25    1
    99    21    22    1
   100    70    71    1
   101    72    73    2
   102    72    71    1
   103    18    17    1
   104    18    19    1
   105    71    74    1
   106    17    16    1
   107    22    23    2
   108    74    75    1
   109    75    76    1
   110    76    77    2
   111    76    78   am
