@<TRIPOS>MOLECULE
tmp/3unvB00.pdb
 117 108 0 0 0
SMALL
GASTEIGER

@<TRIPOS>ATOM
      1  N         33.7440   12.2100  -18.0140 N.3    53  TYR53      -0.1241
      2  CA        33.3260   12.7200  -16.7080 C.3    53  TYR53       0.1605
      3  C         31.8120   12.9190  -16.6860 C.2    53  TYR53       0.2264
      4  O         31.2720   13.5240  -17.6010 O.2    53  TYR53      -0.2867
      5  CB        34.0500   14.0430  -16.5450 C.3    53  TYR53       0.0534
      6  CG        33.7680   14.7890  -15.2620 C.ar   53  TYR53      -0.0201
      7  CD1       34.3720   14.3820  -14.0700 C.ar   53  TYR53      -0.0009
      8  CD2       33.0580   15.9550  -15.2760 C.ar   53  TYR53      -0.0009
      9  CE1       34.1810   15.1000  -12.8710 C.ar   53  TYR53       0.0417
     10  CE2       32.8480   16.7120  -14.0840 C.ar   53  TYR53       0.0417
     11  CZ        33.4270   16.2810  -12.8840 C.ar   53  TYR53       0.1957
     12  OH        33.2190   17.0150  -11.6620 O.3    53  TYR53      -0.2866
     13  N         31.8140   12.7430   -9.8540 N.3    59  MET59      -0.1230
     14  CA        32.0100   14.1630  -10.1480 C.3    59  MET59       0.1702
     15  C         32.5550   14.8210   -8.8930 C.2    59  MET59       0.2592
     16  O         32.3660   14.2740   -7.7740 O.2    59  MET59      -0.2718
     17  CB        30.6870   14.8490  -10.6260 C.3    59  MET59       0.0401
     18  CG        30.3470   14.4760  -12.1390 C.3    59  MET59       0.0596
     19  SD        28.5430   14.5950  -12.3360 S.3    59  MET59      -0.1393
     20  CE        27.9840   13.2110  -11.2340 C.3    59  MET59       0.0692
     21  N         33.1660   15.9990   -9.0760 N.am   60  GLY60      -0.1957
     22  CA        33.7110   16.7690   -7.9460 C.3    60  GLY60       0.1869
     23  C         34.7200   15.9870   -7.1740 C.2    60  GLY60       0.2309
     24  O         35.6570   15.4290   -7.7710 O.2    60  GLY60      -0.2863
     25  N         23.5330   13.8730   -8.1230 N.3    79  LEU79      -0.1245
     26  CA        24.2270   15.0980   -8.5080 C.3    79  LEU79       0.1561
     27  C         23.3990   16.3310   -8.2620 C.2    79  LEU79       0.2260
     28  O         23.8620   17.2100   -7.5220 O.2    79  LEU79      -0.2867
     29  CB        24.6620   15.0780   -9.9850 C.3    79  LEU79       0.0270
     30  CG        25.1270   16.4770  -10.4700 C.3    79  LEU79       0.0019
     31  CD1       26.5100   16.7830   -9.8110 C.3    79  LEU79       0.0001
     32  CD2       25.2660   16.4810  -12.0070 C.3    79  LEU79       0.0001
     33  N         24.2920   19.0590   -4.9270 N.3    83  VAL83      -0.1245
     34  CA        24.9160   20.4310   -5.1080 C.3    83  VAL83       0.1561
     35  C         23.9430   21.5710   -5.0120 C.2    83  VAL83       0.2260
     36  O         24.3280   22.7610   -5.0690 O.2    83  VAL83      -0.2867
     37  CB        25.8110   20.4950   -6.3840 C.3    83  VAL83       0.0252
     38  CG1       26.6640   19.1730   -6.4160 C.3    83  VAL83       0.0019
     39  CG2       24.8650   20.5540   -7.5870 C.3    83  VAL83       0.0019
     40  N         26.6350   25.9260   -9.7890 N.3   143  LEU143     -0.1245
     41  CA        26.0500   24.6110   -9.4440 C.3   143  LEU143      0.1561
     42  C         24.7730   24.7750   -8.6650 C.2   143  LEU143      0.2260
     43  O         23.7250   24.2890   -9.1100 O.2   143  LEU143     -0.2867
     44  CB        27.0200   23.7080   -8.6910 C.3   143  LEU143      0.0270
     45  CG        28.1060   23.1220   -9.5960 C.3   143  LEU143      0.0019
     46  CD1       28.8840   22.1280   -8.6840 C.3   143  LEU143      0.0001
     47  CD2       27.5350   22.4040  -10.8030 C.3   143  LEU143      0.0001
     48  N         24.3560   16.9900  -15.2200 N.3   188  LEU188     -0.1245
     49  CA        25.5840   17.7760  -15.3060 C.3   188  LEU188      0.1561
     50  C         25.4420   18.8770  -16.3540 C.2   188  LEU188      0.2260
     51  O         25.7460   20.0300  -16.0750 O.2   188  LEU188     -0.2867
     52  CB        26.7580   16.9000  -15.5750 C.3   188  LEU188      0.0270
     53  CG        28.0920   17.6220  -15.5170 C.3   188  LEU188      0.0019
     54  CD1       28.4200   18.2210  -14.1420 C.3   188  LEU188      0.0001
     55  CD2       29.1120   16.6690  -15.9120 C.3   188  LEU188      0.0001
     56  N         26.2140   22.6500  -15.1220 N.3   192  ASN192     -0.1240
     57  CA        27.6610   22.8410  -15.1310 C.3   192  ASN192      0.1653
     58  C         28.0480   24.0750  -15.9670 C.2   192  ASN192      0.2266
     59  O         28.8670   23.9550  -16.9240 O.2   192  ASN192     -0.2867
     60  CB        28.4100   21.6280  -15.7280 C.3   192  ASN192      0.1155
     61  CG        29.9250   21.6210  -15.4060 C.2   192  ASN192      0.2627
     62  OD1       30.4020   22.3930  -14.6030 O.2   192  ASN192     -0.2716
     63  ND2       30.6310   20.6970  -15.9830 N.am  192  ASN192     -0.0877
     64  N         30.9070   21.1230  -19.2850 N.3   325  ASN325     -0.1240
     65  CA        32.0160   20.1940  -19.3400 C.3   325  ASN325      0.1653
     66  C         31.5460   18.7710  -19.0230 C.2   325  ASN325      0.2266
     67  O         30.6360   18.5860  -18.1600 O.2   325  ASN325     -0.2867
     68  CB        33.1980   20.6000  -18.3680 C.3   325  ASN325      0.1155
     69  CG        34.2110   19.5040  -18.2100 C.2   325  ASN325      0.2627
     70  OD1       34.9680   19.2230  -19.1190 O.2   325  ASN325     -0.2716
     71  ND2       34.2890   18.9210  -17.0180 N.am  325  ASN325     -0.0877
     72  N         37.3980   19.9400  -19.8630 N.3   338  ASN338     -0.1240
     73  CA        37.8160   21.3070  -20.0020 C.3   338  ASN338      0.1653
     74  C         37.3750   22.0870  -18.7820 C.2   338  ASN338      0.2266
     75  O         36.7410   21.5580  -17.8500 O.2   338  ASN338     -0.2867
     76  CB        37.2970   21.9100  -21.3150 C.3   338  ASN338      0.1155
     77  CG        35.7810   22.0030  -21.3200 C.2   338  ASN338      0.2627
     78  OD1       35.2600   22.9290  -20.7570 O.2   338  ASN338     -0.2716
     79  ND2       35.0770   21.0380  -21.9320 N.am  338  ASN338     -0.0877
     80  N         33.2160   25.9630  -17.5370 N.3   341  PHE341     -0.1241
     81  CA        32.2050   26.4580  -16.5890 C.3   341  PHE341      0.1605
     82  C         32.8920   27.5750  -15.6880 C.2   341  PHE341      0.2264
     83  O         32.2390   28.0920  -14.7940 O.2   341  PHE341     -0.2867
     84  CB        31.8090   25.2800  -15.6830 C.3   341  PHE341      0.0534
     85  CG        33.0250   24.5240  -15.2200 C.ar  341  PHE341     -0.0203
     86  CD1       33.8080   25.0130  -14.1930 C.ar  341  PHE341     -0.0042
     87  CD2       33.3920   23.3230  -15.8730 C.ar  341  PHE341     -0.0042
     88  CE1       35.0000   24.3360  -13.8130 C.ar  341  PHE341     -0.0003
     89  CE2       34.5470   22.6060  -15.5370 C.ar  341  PHE341     -0.0003
     90  CZ        35.4030   23.1510  -14.5060 C.ar  341  PHE341     -0.0000
     91  N         36.2480   21.0540   -1.8090 N.3   424  THR424     -0.1218
     92  CA        36.0390   19.7590   -2.5710 C.3   424  THR424      0.1862
     93  C         37.3320   18.9570   -2.6140 C.2   424  THR424      0.2287
     94  O         37.7380   18.4620   -3.6610 O.2   424  THR424     -0.2866
     95  CB        35.5460   20.0860   -3.9880 C.3   424  THR424      0.1770
     96  OG1       34.6430   21.2280   -3.8790 O.3   424  THR424     -0.2211
     97  CG2       34.8210   18.9280   -4.6310 C.3   424  THR424      0.0375
     98  N         39.8570   19.8330   -5.2060 N.3   427  PHE427     -0.1227
     99  CA        39.5180   19.6630   -6.6440 C.3   427  PHE427      0.1736
    100  C         39.0710   21.0370   -7.2170 C.2   427  PHE427      0.2595
    101  O         39.5070   21.4510   -8.2970 O.2   427  PHE427     -0.2718
    102  CB        38.4140   18.6240   -6.8100 C.3   427  PHE427      0.0547
    103  CG        38.0390   18.3600   -8.2710 C.ar  427  PHE427     -0.0202
    104  CD1       38.9380   17.7940   -9.1780 C.ar  427  PHE427     -0.0042
    105  CD2       36.7330   18.6610   -8.6760 C.ar  427  PHE427     -0.0042
    106  CE1       38.5420   17.5170  -10.5310 C.ar  427  PHE427     -0.0003
    107  CE2       36.3050   18.3930   -9.9980 C.ar  427  PHE427     -0.0003
    108  CZ        37.1570   17.7900  -10.8830 C.ar  427  PHE427     -0.0000
    109  N         38.1220   21.6950   -6.5340 N.am  428  GLN428     -0.1979
    110  CA        37.7470   23.0680   -6.8730 C.3   428  GLN428      0.1601
    111  C         38.6990   24.0770   -6.2270 C.2   428  GLN428      0.2287
    112  O         38.3000   24.7950   -5.2950 O.2   428  GLN428     -0.2864
    113  CB        36.2370   23.3010   -6.5080 C.3   428  GLN428      0.0394
    114  CG        35.3060   22.2900   -7.1520 C.3   428  GLN428      0.0908
    115  CD        33.8600   22.7230   -7.1020 C.2   428  GLN428      0.2608
    116  OE1       33.1050   22.3840   -6.1640 O.2   428  GLN428     -0.2717
    117  NE2       33.4960   23.5510   -8.0510 N.am  428  GLN428     -0.0878
@<TRIPOS>BOND
     1    79    77   am
     2    77    76    1
     3    77    78    2
     4    76    73    1
     5    73    72    1
     6    73    74    1
     7    65    64    1
     8    65    66    1
     9    65    68    1
    10    70    69    2
    11    66    67    2
    12    74    75    2
    13    68    69    1
    14    69    71   am
    15     1     2    1
    16     4     3    2
    17    80    81    1
    18    59    58    2
    19     2     3    1
    20     2     5    1
    21    81    82    1
    22    81    84    1
    23     5     6    1
    24    50    51    2
    25    50    49    1
    26    63    61   am
    27    58    57    1
    28    55    53    1
    29    87    89   ar
    30    87    85   ar
    31    60    61    1
    32    60    57    1
    33    82    83    2
    34    84    85    1
    35    52    53    1
    36    52    49    1
    37    89    90   ar
    38    53    54    1
    39    61    62    2
    40    49    48    1
    41     8     6   ar
    42     8    10   ar
    43     6     7   ar
    44    85    86   ar
    45    57    56    1
    46    90    88   ar
    47    86    88   ar
    48    10    11   ar
    49     7     9   ar
    50    11     9   ar
    51    11    12    1
    52    19    18    1
    53    19    20    1
    54    18    17    1
    55    32    30    1
    56   108   106   ar
    57   108   107   ar
    58    47    45    1
    59    17    14    1
    60   106   104   ar
    61    30    29    1
    62    30    31    1
    63    14    13    1
    64    14    15    1
    65   107   105   ar
    66    29    26    1
    67    40    41    1
    68    45    44    1
    69    45    46    1
    70    41    44    1
    71    41    42    1
    72   104   103   ar
    73    43    42    2
    74    21    15   am
    75    21    22    1
    76    15    16    2
    77   105   103   ar
    78    26    27    1
    79    26    25    1
    80   101   100    2
    81   103   102    1
    82    27    28    2
    83   117   115   am
    84    22    23    1
    85    24    23    2
    86    39    37    1
    87   100    99    1
    88   100   109   am
    89   114   115    1
    90   114   113    1
    91   115   116    2
    92   110   109    1
    93   110   113    1
    94   110   111    1
    95   102    99    1
    96    99    98    1
    97    38    37    1
    98    37    34    1
    99   111   112    2
   100    34    35    1
   101    34    33    1
   102    36    35    2
   103    97    95    1
   104    95    96    1
   105    95    92    1
   106    94    93    2
   107    93    92    1
   108    92    91    1
