@<TRIPOS>MOLECULE
tmp/3unvA01.pdb
 109 101 0 0 0
SMALL
GASTEIGER

@<TRIPOS>ATOM
      1  N         21.1750   76.4610   20.8840 N.3    53  TYR53      -0.1241
      2  CA        20.9810   75.8200   19.5690 C.3    53  TYR53       0.1605
      3  C         19.6680   75.0480   19.5190 C.2    53  TYR53       0.2264
      4  O         19.3830   74.2190   20.4070 O.2    53  TYR53      -0.2867
      5  CB        22.1000   74.8500   19.3560 C.3    53  TYR53       0.0534
      6  CG        22.1350   74.0430   18.0770 C.ar   53  TYR53      -0.0201
      7  CD1       22.4980   74.6430   16.8520 C.ar   53  TYR53      -0.0009
      8  CD2       21.8400   72.6760   18.1110 C.ar   53  TYR53      -0.0009
      9  CE1       22.5830   73.9230   15.7040 C.ar   53  TYR53       0.0417
     10  CE2       21.9100   71.9320   16.9210 C.ar   53  TYR53       0.0417
     11  CZ        22.3170   72.5490   15.7400 C.ar   53  TYR53       0.1957
     12  OH        22.4200   71.7710   14.5750 O.3    53  TYR53      -0.2866
     13  N         19.5550   75.0700   12.7790 N.3    59  MET59      -0.1230
     14  CA        20.3360   73.8840   13.0770 C.3    59  MET59       0.1702
     15  C         21.1480   73.5050   11.8150 C.2    59  MET59       0.2592
     16  O         20.8700   74.0690   10.7180 O.2    59  MET59      -0.2718
     17  CB        19.3600   72.7870   13.5020 C.3    59  MET59       0.0401
     18  CG        18.8330   73.0720   14.9050 C.3    59  MET59       0.0596
     19  SD        17.2820   72.2690   15.2500 S.3    59  MET59      -0.1393
     20  CE        16.1510   73.2980   14.2410 C.3    59  MET59       0.0692
     21  N         22.1320   72.6100   11.9620 N.am   60  GLY60      -0.1957
     22  CA        22.9140   72.1260   10.8180 C.3    60  GLY60       0.1869
     23  C         23.5170   73.3100   10.0800 C.2    60  GLY60       0.2309
     24  O         24.2250   74.1600   10.6990 O.2    60  GLY60      -0.2863
     25  N         12.2080   70.9680   11.0620 N.3    79  LEU79      -0.1245
     26  CA        13.4020   70.1590   11.3010 C.3    79  LEU79       0.1561
     27  C         13.1130   68.6370   11.0690 C.2    79  LEU79       0.2260
     28  O         13.8640   67.9520   10.3060 O.2    79  LEU79      -0.2867
     29  CB        13.9800   70.3820   12.7150 C.3    79  LEU79       0.0270
     30  CG        14.9650   69.3340   13.2420 C.3    79  LEU79       0.0019
     31  CD1       16.3430   69.4320   12.6140 C.3    79  LEU79       0.0001
     32  CD2       15.0800   69.3990   14.7640 C.3    79  LEU79       0.0001
     33  N         15.0560   66.5130    7.7790 N.3    83  VAL83      -0.1245
     34  CA        16.1190   65.5010    7.9210 C.3    83  VAL83       0.1561
     35  C         15.6540   64.0210    7.8010 C.2    83  VAL83       0.2260
     36  O         16.4670   63.1340    7.8870 O.2    83  VAL83      -0.2867
     37  CB        16.9610   65.7710    9.2200 C.3    83  VAL83       0.0252
     38  CG1       17.3470   67.2310    9.2820 C.3    83  VAL83       0.0019
     39  CG2       16.1740   65.2900   10.4370 C.3    83  VAL83       0.0019
     40  N         19.8020   61.0310   12.6090 N.3   143  LEU143     -0.1245
     41  CA        18.6930   61.9080   12.3030 C.3   143  LEU143      0.1561
     42  C         17.5700   61.2960   11.5020 C.2   143  LEU143      0.2260
     43  O         16.3910   61.4420   11.8830 O.2   143  LEU143     -0.2867
     44  CB        19.1990   63.1430   11.5500 C.3   143  LEU143      0.0270
     45  CG        19.9990   64.1550   12.3350 C.3   143  LEU143      0.0019
     46  CD1       20.4640   65.3230   11.3680 C.3   143  LEU143      0.0001
     47  CD2       19.1920   64.6700   13.6010 C.3   143  LEU143      0.0001
     48  N         14.2700   68.3880   18.0870 N.3   188  LEU188     -0.1245
     49  CA        15.7470   68.1800   18.1540 C.3   188  LEU188      0.1561
     50  C         16.0300   67.0880   19.2140 C.2   188  LEU188      0.2260
     51  O         16.8240   66.1400   18.9710 O.2   188  LEU188     -0.2867
     52  CB        16.4520   69.4690   18.4760 C.3   188  LEU188      0.0270
     53  CG        18.0210   69.2840   18.4120 C.3   188  LEU188      0.0019
     54  CD1       18.4810   68.8060   17.0040 C.3   188  LEU188      0.0001
     55  CD2       18.7300   70.6380   18.8420 C.3   188  LEU188      0.0001
     56  N         18.1130   63.8210   17.8890 N.3   192  ASN192     -0.1240
     57  CA        19.5510   64.1360   17.9100 C.3   192  ASN192      0.1653
     58  C         20.3840   63.2120   18.8160 C.2   192  ASN192      0.2266
     59  O         21.0800   63.6600   19.7920 O.2   192  ASN192     -0.2867
     60  CB        19.6700   65.5800   18.4300 C.3   192  ASN192      0.1155
     61  CG        21.0140   66.1360   18.2570 C.2   192  ASN192      0.2627
     62  OD1       21.8950   65.6090   17.5080 O.2   192  ASN192     -0.2716
     63  ND2       21.2100   67.2880   18.8810 N.am  192  ASN192     -0.0877
     64  N         21.8990   67.0310   22.1460 N.3   325  ASN325     -0.1240
     65  CA        22.5620   68.3450   22.2100 C.3   325  ASN325      0.1653
     66  C         21.5400   69.4490   21.8790 C.2   325  ASN325      0.2266
     67  O         20.7430   69.2780   20.9680 O.2   325  ASN325     -0.2867
     68  CB        23.7530   68.3970   21.1990 C.3   325  ASN325      0.1155
     69  CG        24.3660   69.8300   21.0690 C.2   325  ASN325      0.2627
     70  OD1       24.8830   70.3510   22.0140 O.2   325  ASN325     -0.2716
     71  ND2       24.2730   70.4340   19.8790 N.am  325  ASN325     -0.0877
     72  N         25.8640   63.4370   20.4100 N.3   341  PHE341     -0.1241
     73  CA        25.1850   62.6580   19.4240 C.3   341  PHE341      0.1605
     74  C         26.2050   61.8790   18.5090 C.2   341  PHE341      0.2264
     75  O         25.7400   61.1670   17.5740 O.2   341  PHE341     -0.2867
     76  CB        24.3610   63.5840   18.5180 C.3   341  PHE341      0.0534
     77  CG        25.1970   64.7310   18.0420 C.ar  341  PHE341     -0.0203
     78  CD1       26.1540   64.5350   17.0580 C.ar  341  PHE341     -0.0042
     79  CD2       25.1420   65.9960   18.6940 C.ar  341  PHE341     -0.0042
     80  CE1       27.0290   65.6140   16.6760 C.ar  341  PHE341     -0.0003
     81  CE2       26.0340   67.0970   18.3330 C.ar  341  PHE341     -0.0003
     82  CZ        26.9810   66.9050   17.3280 C.ar  341  PHE341     -0.0000
     83  N         26.8300   69.1400    4.6090 N.3   424  THR424     -0.1218
     84  CA        26.1350   70.2220    5.3320 C.3   424  THR424      0.1862
     85  C         27.0380   71.4820    5.4390 C.2   424  THR424      0.2287
     86  O         27.2330   72.0550    6.5200 O.2   424  THR424     -0.2866
     87  CB        25.7800   69.7260    6.7760 C.3   424  THR424      0.1770
     88  OG1       25.3250   68.3470    6.7580 O.3   424  THR424     -0.2211
     89  CG2       24.6720   70.6450    7.4380 C.3   424  THR424      0.0375
     90  N         29.6490   71.6240    8.1000 N.3   427  PHE427     -0.1227
     91  CA        29.3570   71.6900    9.5490 C.3   427  PHE427      0.1736
     92  C         29.4500   70.2420   10.1270 C.2   427  PHE427      0.2595
     93  O         30.0550   69.9800   11.2330 O.2   427  PHE427     -0.2718
     94  CB        27.9020   72.1740    9.7090 C.3   427  PHE427      0.0547
     95  CG        27.4530   72.2980   11.1440 C.ar  427  PHE427     -0.0202
     96  CD1       28.0110   73.2850   11.9810 C.ar  427  PHE427     -0.0042
     97  CD2       26.4300   71.4730   11.6240 C.ar  427  PHE427     -0.0042
     98  CE1       27.5530   73.4410   13.3370 C.ar  427  PHE427     -0.0003
     99  CE2       25.9250   71.6290   12.9820 C.ar  427  PHE427     -0.0003
    100  CZ        26.5210   72.6440   13.8080 C.ar  427  PHE427     -0.0000
    101  N         28.8740   69.2850    9.3680 N.am  428  GLN428     -0.1979
    102  CA        28.9890   67.8600    9.7540 C.3   428  GLN428      0.1601
    103  C         30.2220   67.3000    9.0630 C.2   428  GLN428      0.2287
    104  O         30.0980   66.5360    8.1170 O.2   428  GLN428     -0.2864
    105  CB        27.7400   67.0700    9.4100 C.3   428  GLN428      0.0394
    106  CG        26.5000   67.6740    9.9680 C.3   428  GLN428      0.0908
    107  CD        25.2890   66.7000    9.9860 C.2   428  GLN428      0.2608
    108  OE1       24.3940   66.7590    9.0980 O.2   428  GLN428     -0.2717
    109  NE2       25.3160   65.7190   10.9240 N.am  428  GLN428     -0.0878
@<TRIPOS>BOND
     1    83    84    1
     2    84    85    1
     3    84    87    1
     4    85    86    2
     5    88    87    1
     6    87    89    1
     7    33    34    1
     8    35    36    2
     9    35    34    1
    10    34    37    1
    11    90    91    1
    12   104   103    2
    13   103   102    1
    14   108   107    2
    15    37    38    1
    16    37    39    1
    17   101   102    1
    18   101    92   am
    19   105   102    1
    20   105   106    1
    21    91    94    1
    22    91    92    1
    23    94    95    1
    24   106   107    1
    25   107   109   am
    26    23    24    2
    27    23    22    1
    28    92    93    2
    29    28    27    2
    30    16    15    2
    31    22    21    1
    32    25    26    1
    33    27    26    1
    34    95    97   ar
    35    95    96   ar
    36    26    29    1
    37    46    45    1
    38    42    43    2
    39    42    41    1
    40    44    41    1
    41    44    45    1
    42    97    99   ar
    43    15    21   am
    44    15    14    1
    45    96    98   ar
    46    41    40    1
    47    45    47    1
    48    31    30    1
    49    29    30    1
    50    13    14    1
    51    99   100   ar
    52    14    17    1
    53    30    32    1
    54    98   100   ar
    55    17    18    1
    56    20    19    1
    57    12    11    1
    58    18    19    1
    59     9    11   ar
    60     9     7   ar
    61    11    10   ar
    62    80    78   ar
    63    80    82   ar
    64     7     6   ar
    65    10     8   ar
    66    54    53    1
    67    78    77   ar
    68    82    81   ar
    69    62    61    2
    70    75    74    2
    71    56    57    1
    72    57    60    1
    73    57    58    1
    74    77    76    1
    75    77    79   ar
    76     6     8   ar
    77     6     5    1
    78    48    49    1
    79    49    52    1
    80    49    50    1
    81    61    60    1
    82    61    63   am
    83    81    79   ar
    84    53    52    1
    85    53    55    1
    86    74    73    1
    87    76    73    1
    88    58    59    2
    89    51    50    2
    90     5     2    1
    91    73    72    1
    92     3     2    1
    93     3     4    2
    94     2     1    1
    95    71    69   am
    96    67    66    2
    97    69    68    1
    98    69    70    2
    99    68    65    1
   100    66    65    1
   101    64    65    1
