@<TRIPOS>MOLECULE
tmp/3uo1A00.pdb
 110 110 0 0 0
SMALL
GASTEIGER

@<TRIPOS>ATOM
      1  N         18.8530  -15.8070   29.9320 N.3    32  TYR32      -0.1227
      2  CA        19.7990  -14.8000   29.4230 C.3    32  TYR32       0.1736
      3  C         19.5090  -13.3660   29.8570 C.2    32  TYR32       0.2595
      4  O         18.3550  -12.9410   29.8660 O.2    32  TYR32      -0.2718
      5  CB        19.8200  -14.8070   27.8980 C.3    32  TYR32       0.0548
      6  CG        20.4100  -16.0590   27.3160 C.ar   32  TYR32      -0.0200
      7  CD1       21.7390  -16.0980   26.9100 C.ar   32  TYR32      -0.0009
      8  CD2       19.6450  -17.2130   27.1900 C.ar   32  TYR32      -0.0009
      9  CE1       22.2860  -17.2570   26.3760 C.ar   32  TYR32       0.0417
     10  CE2       20.1850  -18.3740   26.6640 C.ar   32  TYR32       0.0417
     11  CZ        21.5020  -18.3890   26.2620 C.ar   32  TYR32       0.1957
     12  OH        22.0340  -19.5460   25.7380 O.3    32  TYR32      -0.2866
     13  N         20.5720  -12.6430   30.2030 N.am   33  TYR33      -0.1976
     14  CA        20.5500  -11.1770   30.2380 C.3    33  TYR33       0.1639
     15  C         20.1580  -10.6510   28.8610 C.2    33  TYR33       0.2290
     16  O         20.3820  -11.3190   27.8500 O.2    33  TYR33      -0.2864
     17  CB        21.9420  -10.6320   30.5640 C.3    33  TYR33       0.0560
     18  CG        22.2860  -10.5360   32.0330 C.ar   33  TYR33      -0.0198
     19  CD1       22.8240   -9.3630   32.5590 C.ar   33  TYR33      -0.0009
     20  CD2       22.0860  -11.6140   32.8950 C.ar   33  TYR33      -0.0009
     21  CE1       23.1560   -9.2650   33.8970 C.ar   33  TYR33       0.0417
     22  CE2       22.4200  -11.5220   34.2350 C.ar   33  TYR33       0.0417
     23  CZ        22.9630  -10.3440   34.7250 C.ar   33  TYR33       0.1957
     24  OH        23.2910  -10.2530   36.0580 O.3    33  TYR33      -0.2866
     25  N         26.0920    1.8660   24.0630 N.3    47  TRP47      -0.1241
     26  CA        25.2770    1.1040   24.9850 C.3    47  TRP47       0.1605
     27  C         24.0780    1.9370   25.4520 C.2    47  TRP47       0.2264
     28  O         24.1890    3.1650   25.6250 O.2    47  TRP47      -0.2867
     29  CB        26.1190    0.7260   26.1970 C.3    47  TRP47       0.0550
     30  CG        25.5800   -0.4330   26.9170 C.ar   47  TRP47       0.0003
     31  CD1       24.7700   -0.4270   28.0240 C.ar   47  TRP47       0.0946
     32  CD2       25.8010   -1.8060   26.5830 C.ar   47  TRP47       0.0152
     33  NE1       24.4850   -1.7230   28.3970 N.ar   47  TRP47      -0.2442
     34  CE2       25.1120   -2.5860   27.5300 C.ar   47  TRP47       0.0810
     35  CE3       26.5410   -2.4510   25.5850 C.ar   47  TRP47       0.0012
     36  CZ2       25.1270   -3.9920   27.4960 C.ar   47  TRP47       0.0191
     37  CZ3       26.5590   -3.8390   25.5460 C.ar   47  TRP47       0.0001
     38  CH2       25.8540   -4.5980   26.5090 C.ar   47  TRP47       0.0015
     39  N         20.8980   -2.6110   29.9810 N.3    50  ASN50      -0.1240
     40  CA        20.7990   -4.0680   30.0470 C.3    50  ASN50       0.1653
     41  C         20.0680   -4.4970   31.2960 C.2    50  ASN50       0.2266
     42  O         19.8620   -3.7110   32.2220 O.2    50  ASN50      -0.2867
     43  CB        22.1680   -4.7590   29.9490 C.3    50  ASN50       0.1155
     44  CG        23.1380   -4.2850   31.0150 C.2    50  ASN50       0.2627
     45  OD1       23.9140   -3.3600   30.7920 O.2    50  ASN50      -0.2716
     46  ND2       23.0890   -4.9090   32.1830 N.am   50  ASN50      -0.0877
     47  N         18.4950  -11.6640   34.4810 N.3    53  TYR53      -0.1241
     48  CA        17.5460  -12.7120   34.1630 C.3    53  TYR53       0.1605
     49  C         16.1030  -12.4140   34.5490 C.2    53  TYR53       0.2264
     50  O         15.1930  -12.5810   33.7340 O.2    53  TYR53      -0.2867
     51  CB        17.9700  -14.0270   34.8250 C.3    53  TYR53       0.0534
     52  CG        19.3730  -14.4830   34.4960 C.ar   53  TYR53      -0.0201
     53  CD1       19.7120  -14.8750   33.2070 C.ar   53  TYR53      -0.0009
     54  CD2       20.3480  -14.5650   35.4820 C.ar   53  TYR53      -0.0009
     55  CE1       20.9830  -15.3170   32.9010 C.ar   53  TYR53       0.0417
     56  CE2       21.6330  -15.0110   35.1820 C.ar   53  TYR53       0.0417
     57  CZ        21.9360  -15.3860   33.8860 C.ar   53  TYR53       0.1957
     58  OH        23.1950  -15.8320   33.5650 O.3    53  TYR53      -0.2866
     59  N         17.8570   -6.4420   38.3860 N.3    57  SER57      -0.1202
     60  CA        19.0390   -5.5970   38.2510 C.3    57  SER57       0.2020
     61  C         19.1710   -5.0580   36.8350 C.2    57  SER57       0.2619
     62  O         19.1900   -5.8160   35.8780 O.2    57  SER57      -0.2717
     63  CB        20.2950   -6.3860   38.6290 C.3    57  SER57       0.2103
     64  OG        21.4690   -5.6300   38.3860 O.3    57  SER57      -0.2182
     65  N         19.2820   -3.7410   36.7150 N.am   58  THR58      -0.1938
     66  CA        19.4170   -3.0990   35.4200 C.3    58  THR58       0.2028
     67  C         20.6260   -2.1740   35.4090 C.2    58  THR58       0.2642
     68  O         21.1130   -1.7420   36.4650 O.2    58  THR58      -0.2714
     69  CB        18.1660   -2.2420   35.1030 C.3    58  THR58       0.1808
     70  OG1       17.9320   -1.3260   36.1810 O.3    58  THR58      -0.2208
     71  CG2       16.9310   -3.1250   34.9370 C.3    58  THR58       0.0379
     72  N         21.1100   -1.8720   34.2110 N.am   59  TYR59      -0.1973
     73  CA        22.1560   -0.8870   34.0510 C.3    59  TYR59       0.1639
     74  C         21.7650    0.0390   32.9120 C.2    59  TYR59       0.2290
     75  O         21.1510   -0.4050   31.9390 O.2    59  TYR59      -0.2864
     76  CB        23.4790   -1.5630   33.7440 C.3    59  TYR59       0.0560
     77  CG        24.5540   -0.5600   33.4760 C.ar   59  TYR59      -0.0198
     78  CD1       25.2320    0.0530   34.5270 C.ar   59  TYR59      -0.0009
     79  CD2       24.8670   -0.2020   32.1850 C.ar   59  TYR59      -0.0009
     80  CE1       26.2140    0.9860   34.2870 C.ar   59  TYR59       0.0417
     81  CE2       25.8470    0.7310   31.9310 C.ar   59  TYR59       0.0417
     82  CZ        26.5140    1.3210   32.9930 C.ar   59  TYR59       0.1957
     83  OH        27.4980    2.2510   32.7600 O.3    59  TYR59      -0.2866
     84  N         22.5730  -10.7950   25.7250 N.3    99  LEU99      -0.1231
     85  CA        23.8590  -10.6020   26.3730 C.3    99  LEU99       0.1693
     86  C         24.2820  -11.8680   27.1090 C.2    99  LEU99       0.2593
     87  O         23.5350  -12.3660   27.9470 O.2    99  LEU99      -0.2718
     88  CB        23.7380   -9.4310   27.3610 C.3    99  LEU99       0.0284
     89  CG        24.8960   -9.1640   28.3140 C.3    99  LEU99       0.0019
     90  CD1       26.1960   -8.8680   27.5740 C.3    99  LEU99       0.0001
     91  CD2       24.5140   -8.0090   29.2380 C.3    99  LEU99       0.0001
     92  N         25.4740  -12.3630   26.7900 N.am  100  THR100     -0.1939
     93  CA        26.0230  -13.5900   27.3630 C.3   100  THR100      0.2028
     94  C         27.4800  -13.3960   27.7510 C.2   100  THR100      0.2642
     95  O         28.3310  -13.0780   26.9070 O.2   100  THR100     -0.2714
     96  CB        25.9450  -14.7460   26.3390 C.3   100  THR100      0.1808
     97  OG1       24.5870  -14.9480   25.9570 O.3   100  THR100     -0.2208
     98  CG2       26.4980  -16.0400   26.9360 C.3   100  THR100      0.0379
     99  N         27.7910  -13.5970   29.0250 N.am  101  ASN101     -0.1957
    100  CA        29.1850  -13.5140   29.4570 C.3   101  ASN101      0.1819
    101  C         29.8840  -12.2580   28.9300 C.2   101  ASN101      0.2621
    102  O         31.0500  -12.3050   28.5180 O.2   101  ASN101     -0.2715
    103  CB        29.9700  -14.7620   29.0150 C.3   101  ASN101      0.1195
    104  CG        29.3800  -16.0570   29.5550 C.2   101  ASN101      0.2630
    105  OD1       28.6300  -16.0540   30.5310 O.2   101  ASN101     -0.2716
    106  ND2       29.7210  -17.1740   28.9210 N.am  101  ASN101     -0.0877
    107  N         29.1620  -11.1420   28.9260 N.am  102  GLY102     -0.1954
    108  CA        29.7440   -9.8530   28.6030 C.3   102  GLY102      0.1869
    109  C         29.6650   -9.4440   27.1450 C.2   102  GLY102      0.2309
    110  O         29.9870   -8.3130   26.7900 O.2   102  GLY102     -0.2863
@<TRIPOS>BOND
     1    25    26    1
     2    26    27    1
     3    26    29    1
     4    27    28    2
     5    37    35   ar
     6    37    38   ar
     7    35    32   ar
     8    84    85    1
     9    12    11    1
    10    97    96    1
    11    29    30    1
    12    11     9   ar
    13    11    10   ar
    14    96    98    1
    15    96    93    1
    16    85    86    1
    17    85    88    1
    18     9     7   ar
    19    38    36   ar
    20    32    30   ar
    21    32    34   ar
    22    10     8   ar
    23   110   109    2
    24    92    86   am
    25    92    93    1
    26    95    94    2
    27     7     6   ar
    28    30    31   ar
    29    86    87    2
    30   109   108    1
    31     8     6   ar
    32     6     5    1
    33    88    89    1
    34    93    94    1
    35    36    34   ar
    36    34    33   ar
    37    90    89    1
    38    94    99   am
    39    16    15    2
    40     5     2    1
    41    31    33   ar
    42    89    91    1
    43   102   101    2
    44   108   107    1
    45    15    14    1
    46   106   104   am
    47   107   101   am
    48   101   100    1
    49   103   100    1
    50   103   104    1
    51    99   100    1
    52     2     3    1
    53     2     1    1
    54   104   105    2
    55     3     4    2
    56     3    13   am
    57    43    40    1
    58    43    44    1
    59    39    40    1
    60    40    41    1
    61    13    14    1
    62    14    17    1
    63    17    18    1
    64    45    44    2
    65    44    46   am
    66    41    42    2
    67    81    79   ar
    68    81    82   ar
    69    75    74    2
    70    18    19   ar
    71    18    20   ar
    72    79    77   ar
    73    19    21   ar
    74    83    82    1
    75    20    22   ar
    76    55    53   ar
    77    55    57   ar
    78    74    73    1
    79    82    80   ar
    80    53    52   ar
    81    77    76    1
    82    77    78   ar
    83    58    57    1
    84    50    49    2
    85    76    73    1
    86    57    56   ar
    87    21    23   ar
    88    73    72    1
    89    48    47    1
    90    48    49    1
    91    48    51    1
    92    72    67   am
    93    22    23   ar
    94    80    78   ar
    95    52    51    1
    96    52    54   ar
    97    23    24    1
    98    71    69    1
    99    69    66    1
   100    69    70    1
   101    56    54   ar
   102    67    66    1
   103    67    68    2
   104    66    65    1
   105    62    61    2
   106    65    61   am
   107    61    60    1
   108    60    59    1
   109    60    63    1
   110    64    63    1
