@<TRIPOS>MOLECULE
tmp/3uo4A00.pdb
 175 165 0 0 0
SMALL
GASTEIGER

@<TRIPOS>ATOM
      1  N         -6.8610   28.6130    4.5560 N.3    14  ARG14      -0.1245
      2  CA        -6.1770   28.8200    3.2860 C.3    14  ARG14       0.1563
      3  C         -4.8070   28.1710    3.2230 C.2    14  ARG14       0.2260
      4  O         -4.0350   28.2310    4.1860 O.2    14  ARG14      -0.2867
      5  CB        -6.0130   30.3180    3.0230 C.3    14  ARG14       0.0307
      6  CG        -5.2150   30.6550    1.7790 C.3    14  ARG14       0.0489
      7  CD        -5.2500   32.1500    1.5140 C.3    14  ARG14       0.2205
      8  NE        -4.3940   32.8910    2.4370 N.pl3  14  ARG14      -0.0865
      9  CZ        -3.1240   33.2020    2.1880 C.cat  14  ARG14       0.5346
     10  NH1       -2.5600   32.8340    1.0420 N.pl3  14  ARG14       0.1354
     11  NH2       -2.4170   33.8820    3.0810 N.pl3  14  ARG14       0.1354
     12  N         -1.1420   28.3300    2.4270 N.3    16  LEU16      -0.1231
     13  CA        -0.0500   29.2640    2.2430 C.3    16  LEU16       0.1693
     14  C          1.0220   28.4630    1.5300 C.2    16  LEU16       0.2593
     15  O          2.0860   28.9750    1.1920 O.2    16  LEU16      -0.2718
     16  CB         0.4580   29.7450    3.6050 C.3    16  LEU16       0.0284
     17  CG        -0.5950   29.8850    4.7190 C.3    16  LEU16       0.0019
     18  CD1       -0.0040   29.9320    6.1420 C.3    16  LEU16       0.0001
     19  CD2       -1.4040   31.1180    4.4500 C.3    16  LEU16       0.0001
     20  N          0.6410   27.2320    1.2020 N.am   17  GLY17      -0.1942
     21  CA         1.4610   26.0280    1.2750 C.3    17  GLY17       0.2014
     22  C          2.4290   25.6290    0.1840 C.2    17  GLY17       0.2639
     23  O          3.2070   26.4500   -0.2900 O.2    17  GLY17      -0.2714
     24  N          2.4490   24.3190   -0.1020 N.am   18  LYS18      -0.1963
     25  CA         3.5240   23.6320   -0.8440 C.3    18  LYS18       0.1728
     26  C          4.8300   24.0010   -0.1440 C.2    18  LYS18       0.2617
     27  O          5.7300   24.6090   -0.7280 O.2    18  LYS18      -0.2715
     28  CB         3.5610   23.9830   -2.3530 C.3    18  LYS18       0.0311
     29  CG         3.2530   25.4420   -2.6700 C.3    18  LYS18       0.0038
     30  CD         3.2450   25.8120   -4.1480 C.3    18  LYS18       0.0206
     31  CE         3.4080   27.3100   -4.3130 C.3    18  LYS18       0.1093
     32  NZ         4.4760   27.7960   -3.3910 N.3    18  LYS18      -0.1314
     33  N          4.9130   23.5620    1.1070 N.am   19  GLY19      -0.1940
     34  CA         5.7950   24.0710    2.1410 C.3    19  GLY19       0.2014
     35  C          7.1940   23.5570    2.4450 C.2    19  GLY19       0.2638
     36  O          7.5550   23.5410    3.6250 O.2    19  GLY19      -0.2714
     37  N          7.9790   23.1320    1.4580 N.am   20  LYS20      -0.1977
     38  CA         9.1000   22.2320    1.7190 C.3    20  LYS20       0.1596
     39  C          8.5360   20.8480    2.0510 C.2    20  LYS20       0.2287
     40  O          8.4830   20.4280    3.2100 O.2    20  LYS20      -0.2864
     41  CB         9.9750   22.7620    2.8620 C.3    20  LYS20       0.0298
     42  CG        11.2180   21.9270    3.1650 C.3    20  LYS20       0.0038
     43  CD        11.9430   22.3350    4.4600 C.3    20  LYS20       0.0206
     44  CE        13.2210   21.5400    4.7110 C.3    20  LYS20       0.1093
     45  NZ        14.3040   21.8670    3.7320 N.3    20  LYS20      -0.1314
     46  N          1.6580   24.3940    4.2260 N.3    24  VAL24      -0.1245
     47  CA         1.4090   25.1780    5.4140 C.3    24  VAL24       0.1561
     48  C          0.0460   25.8150    5.2360 C.2    24  VAL24       0.2260
     49  O         -0.2130   26.4660    4.2210 O.2    24  VAL24      -0.2867
     50  CB         2.4560   26.2900    5.5770 C.3    24  VAL24       0.0252
     51  CG1        2.2150   27.0760    6.8640 C.3    24  VAL24       0.0019
     52  CG2        3.8570   25.7040    5.5500 C.3    24  VAL24       0.0019
     53  N         -0.4560   28.8150   12.1850 N.3    37  ALA37      -0.1245
     54  CA        -0.1240   28.1070   10.9550 C.3    37  ALA37       0.1562
     55  C          0.1850   26.6450   11.2390 C.2    37  ALA37       0.2260
     56  O          0.7950   26.3160   12.2560 O.2    37  ALA37      -0.2867
     57  CB         1.0420   28.7810   10.2450 C.3    37  ALA37       0.0290
     58  N          2.0190   23.3080    9.6360 N.3    39  LYS39      -0.1245
     59  CA         2.8670   22.7020    8.6160 C.3    39  LYS39       0.1561
     60  C          2.6000   21.2040    8.5960 C.2    39  LYS39       0.2260
     61  O          2.6520   20.5440    9.6340 O.2    39  LYS39      -0.2867
     62  CB         4.3420   22.9930    8.8890 C.3    39  LYS39       0.0271
     63  CG         5.3000   22.3820    7.8790 C.3    39  LYS39       0.0035
     64  CD         6.7120   22.8950    8.1150 C.3    39  LYS39       0.0206
     65  CE         7.7500   22.0410    7.4050 C.3    39  LYS39       0.1093
     66  NZ         8.9520   21.8220    8.2620 N.3    39  LYS39      -0.1314
     67  N         10.3220   32.9370   14.6030 N.3    71  LEU71      -0.1245
     68  CA         8.9910   32.3450   14.5060 C.3    71  LEU71       0.1561
     69  C          8.8160   31.2400   15.5470 C.2    71  LEU71       0.2260
     70  O          9.6580   30.3490   15.6590 O.2    71  LEU71      -0.2867
     71  CB         8.7610   31.7830   13.1040 C.3    71  LEU71       0.0270
     72  CG         7.3250   31.4200   12.7260 C.3    71  LEU71       0.0019
     73  CD1        6.5230   32.6740   12.4080 C.3    71  LEU71       0.0001
     74  CD2        7.3170   30.4800   11.5390 C.3    71  LEU71       0.0001
     75  N          2.6390   26.2650   14.3230 N.3    87  LEU87      -0.1231
     76  CA         3.5620   27.3890   14.2450 C.3    87  LEU87       0.1693
     77  C          2.8670   28.7260   14.4430 C.2    87  LEU87       0.2592
     78  O          1.6890   28.8800   14.1200 O.2    87  LEU87      -0.2718
     79  CB         4.2430   27.4020   12.8750 C.3    87  LEU87       0.0284
     80  CG         5.0300   26.1630   12.4530 C.3    87  LEU87       0.0019
     81  CD1        5.4170   26.2620   10.9890 C.3    87  LEU87       0.0001
     82  CD2        6.2630   25.9980   13.3190 C.3    87  LEU87       0.0001
     83  N          3.6110   29.6980   14.9560 N.am   88  GLU88      -0.1966
     84  CA         3.1660   31.0830   14.9250 C.3    88  GLU88       0.1733
     85  C          2.8730   31.4790   13.4820 C.2    88  GLU88       0.2616
     86  O          3.6250   31.1380   12.5640 O.2    88  GLU88      -0.2715
     87  CB         4.2370   32.0050   15.5050 C.3    88  GLU88       0.0429
     88  CG         3.9430   33.4890   15.3350 C.3    88  GLU88       0.1163
     89  CD         5.0980   34.3660   15.7850 C.2    88  GLU88       0.3649
     90  OE1        6.0830   33.8280   16.3430 O.co2  88  GLU88      -0.2457
     91  OE2        5.0250   35.5940   15.5700 O.co2  88  GLU88      -0.2457
     92  N          1.7700   32.1880   13.2840 N.am   89  TYR89      -0.1960
     93  CA         1.3790   32.6450   11.9600 C.3    89  TYR89       0.1771
     94  C          1.9230   34.0500   11.6970 C.2    89  TYR89       0.2619
     95  O          1.6770   34.9820   12.4700 O.2    89  TYR89      -0.2715
     96  CB        -0.1480   32.5890   11.8300 C.3    89  TYR89       0.0574
     97  CG        -0.7500   33.4530   10.7480 C.ar   89  TYR89      -0.0198
     98  CD1       -0.4820   33.2150    9.4080 C.ar   89  TYR89      -0.0009
     99  CD2       -1.6180   34.4900   11.0690 C.ar   89  TYR89      -0.0009
    100  CE1       -1.0440   34.0030    8.4160 C.ar   89  TYR89       0.0417
    101  CE2       -2.1890   35.2780   10.0870 C.ar   89  TYR89       0.0417
    102  CZ        -1.8980   35.0330    8.7610 C.ar   89  TYR89       0.1957
    103  OH        -2.4620   35.8190    7.7760 O.3    89  TYR89      -0.2866
    104  N          2.6860   34.1870   10.6160 N.am   90  ALA90      -0.1964
    105  CA         3.2090   35.4820   10.1940 C.3    90  ALA90       0.1713
    106  C          2.3370   36.0430    9.0790 C.2    90  ALA90       0.2458
    107  O          2.3870   35.5600    7.9480 O.2    90  ALA90      -0.2730
    108  CB         4.6500   35.3470    9.7270 C.3    90  ALA90       0.0333
    109  N          1.5500   37.0830    9.3970 N.am   91  PRO91      -0.2727
    110  CA         0.4750   37.5880    8.5320 C.3    91  PRO91       0.1402
    111  C          0.9530   38.1870    7.2080 C.2    91  PRO91       0.2269
    112  O          0.2240   38.1120    6.2190 O.2    91  PRO91      -0.2865
    113  CB        -0.1920   38.6770    9.3890 C.3    91  PRO91       0.0296
    114  CG         0.2790   38.4320   10.7900 C.3    91  PRO91       0.0237
    115  CD         1.6440   37.8360   10.6580 C.3    91  PRO91       0.0939
    116  N          3.4980   37.2670    5.2610 N.3    93  GLY93      -0.1210
    117  CA         4.1060   36.3410    4.3160 C.3    93  GLY93       0.1956
    118  C          5.6280   36.3500    4.3050 C.2    93  GLY93       0.2612
    119  O          6.2600   36.8950    5.2120 O.2    93  GLY93      -0.2717
    120  N          6.2190   35.7430    3.2780 N.am   94  THR94      -0.1952
    121  CA         7.6770   35.6100    3.1920 C.3    94  THR94       0.1897
    122  C          8.3690   36.8560    2.6510 C.2    94  THR94       0.2313
    123  O          7.8240   37.5690    1.8040 O.2    94  THR94      -0.2863
    124  CB         8.1080   34.4240    2.3050 C.3    94  THR94       0.1794
    125  OG1        7.8930   34.7490    0.9250 O.3    94  THR94      -0.2208
    126  CG2        7.3430   33.1580    2.6750 C.3    94  THR94       0.0378
    127  N          8.7680   36.7630   -1.2140 N.3    97  ARG97      -0.1245
    128  CA         7.6940   37.2820   -2.0630 C.3    97  ARG97       0.1563
    129  C          7.7030   38.8070   -2.1260 C.2    97  ARG97       0.2260
    130  O          7.4190   39.4020   -3.1700 O.2    97  ARG97      -0.2867
    131  CB         6.3250   36.7900   -1.5840 C.3    97  ARG97       0.0307
    132  CG         5.1560   37.4600   -2.2970 C.3    97  ARG97       0.0489
    133  CD         3.8130   36.9080   -1.8410 C.3    97  ARG97       0.2205
    134  NE         3.3200   37.5380   -0.6190 N.pl3  97  ARG97      -0.0865
    135  CZ         2.1520   37.2450   -0.0500 C.cat  97  ARG97       0.5346
    136  NH1        1.3620   36.3290   -0.5950 N.pl3  97  ARG97       0.1354
    137  NH2        1.7720   37.8650    1.0610 N.pl3  97  ARG97       0.1354
    138  N         13.7470   33.0040    1.6100 N.3   137  GLU137     -0.1231
    139  CA        12.6360   32.0520    1.6940 C.3   137  GLU137      0.1699
    140  C         12.3760   31.5610    3.1180 C.2   137  GLU137      0.2592
    141  O         11.2660   31.1420    3.4400 O.2   137  GLU137     -0.2718
    142  CB        12.8800   30.8540    0.7740 C.3   137  GLU137      0.0402
    143  CG        12.4520   31.0820   -0.6610 C.3   137  GLU137      0.1161
    144  CD        13.3070   30.3070   -1.6400 C.2   137  GLU137      0.3649
    145  OE1       14.2370   29.6070   -1.1860 O.co2 137  GLU137     -0.2457
    146  OE2       13.0540   30.3990   -2.8590 O.co2 137  GLU137     -0.2457
    147  N         13.4020   31.5950    3.9620 N.am  138  ASN138     -0.1974
    148  CA        13.2670   31.1560    5.3470 C.3   138  ASN138      0.1688
    149  C         12.8810   32.2990    6.2770 C.2   138  ASN138      0.2292
    150  O         12.8430   32.1340    7.4980 O.2   138  ASN138     -0.2864
    151  CB        14.5550   30.4910    5.8410 C.3   138  ASN138      0.1181
    152  CG        14.7590   29.1070    5.2580 C.2   138  ASN138      0.2629
    153  OD1       13.8280   28.5010    4.7280 O.2   138  ASN138     -0.2716
    154  ND2       15.9820   28.5950    5.3600 N.am  138  ASN138     -0.0877
    155  N         10.1560   35.3010    7.4120 N.3   140  LEU140     -0.1245
    156  CA         8.7350   35.6300    7.3880 C.3   140  LEU140      0.1561
    157  C          8.5100   37.0250    7.9540 C.2   140  LEU140      0.2260
    158  O          9.3850   37.5800    8.6220 O.2   140  LEU140     -0.2867
    159  CB         7.9280   34.5910    8.1750 C.3   140  LEU140      0.0270
    160  CG         7.6640   33.2680    7.4510 C.3   140  LEU140      0.0019
    161  CD1        7.1060   32.2080    8.3910 C.3   140  LEU140      0.0001
    162  CD2        6.7290   33.4870    6.2730 C.3   140  LEU140      0.0001
    163  N         12.4830   31.5590   10.4600 N.3   150  ALA150     -0.1231
    164  CA        11.7990   30.2750   10.5400 C.3   150  ALA150      0.1694
    165  C         12.7110   29.1730   10.0100 C.2   150  ALA150      0.2592
    166  O         13.8890   29.4100    9.7430 O.2   150  ALA150     -0.2718
    167  CB        10.5090   30.3220    9.7540 C.3   150  ALA150      0.0304
    168  N         12.1690   27.9660    9.8800 N.am  151  ASP151     -0.1974
    169  CA        12.8860   26.8660    9.2410 C.3   151  ASP151      0.1709
    170  C         14.2610   26.6540    9.8660 C.2   151  ASP151      0.2293
    171  O         15.2850   26.9300    9.2450 O.2   151  ASP151     -0.2864
    172  CB        13.0170   27.1280    7.7370 C.3   151  ASP151      0.1436
    173  CG        12.8270   25.8730    6.9040 C.2   151  ASP151      0.3671
    174  OD1       12.5080   24.8160    7.4890 O.co2 151  ASP151     -0.2456
    175  OD2       12.9820   25.9460    5.6650 O.co2 151  ASP151     -0.2456
@<TRIPOS>BOND
     1    31    30    1
     2    31    32    1
     3    30    29    1
     4   130   129    2
     5   146   144   ar
     6    29    28    1
     7    28    25    1
     8   132   133    1
     9   132   131    1
    10   129   128    1
    11   128   131    1
    12   128   127    1
    13   133   134    1
    14   144   145   ar
    15   144   143    1
    16    25    26    1
    17    25    24    1
    18    27    26    2
    19   143   142    1
    20   134   135    2
    21   136   135    1
    22    23    22    2
    23    26    33   am
    24    24    22   am
    25   135   137    1
    26    22    21    1
    27   142   139    1
    28   125   124    1
    29    10     9    1
    30    33    34    1
    31    15    14    2
    32    20    21    1
    33    20    14   am
    34    37    38    1
    35    37    35   am
    36     7     6    1
    37     7     8    1
    38    14    13    1
    39   138   139    1
    40   139   140    1
    41    38    39    1
    42    38    41    1
    43     6     5    1
    44   123   122    2
    45    39    40    2
    46    34    35    1
    47     9     8    2
    48     9    11    1
    49    13    12    1
    50    13    16    1
    51   124   126    1
    52   124   121    1
    53    35    36    2
    54   122   121    1
    55    41    42    1
    56     5     2    1
    57   140   141    2
    58   140   147   am
    59    42    43    1
    60   121   120    1
    61     3     2    1
    62     3     4    2
    63   120   118   am
    64     2     1    1
    65    16    17    1
    66    45    44    1
    67   147   148    1
    68    49    48    2
    69    46    47    1
    70   118   117    1
    71   118   119    2
    72   117   116    1
    73    19    17    1
    74    43    44    1
    75    17    18    1
    76   153   152    2
    77    48    47    1
    78   152   154   am
    79   152   151    1
    80   148   151    1
    81   148   149    1
    82    47    50    1
    83    52    50    1
    84    50    51    1
    85   175   173   ar
    86   112   111    2
    87   162   160    1
    88   149   150    2
    89   173   174   ar
    90   173   172    1
    91   111   110    1
    92   156   155    1
    93   156   157    1
    94   156   159    1
    95    65    64    1
    96    65    66    1
    97   160   159    1
    98   160   161    1
    99   172   169    1
   100   103   102    1
   101    63    64    1
   102    63    62    1
   103   107   106    2
   104   157   158    2
   105   100   102   ar
   106   100    98   ar
   107   110   113    1
   108   110   109    1
   109    60    59    1
   110    60    61    2
   111    59    62    1
   112    59    58    1
   113   102   101   ar
   114   106   109   am
   115   106   105    1
   116   169   170    1
   117   169   168    1
   118   171   170    2
   119   113   114    1
   120   109   115    1
   121    98    97   ar
   122   108   105    1
   123   166   165    2
   124   167   164    1
   125   168   165   am
   126   165   164    1
   127   101    99   ar
   128   105   104    1
   129    57    54    1
   130   163   164    1
   131   104    94   am
   132   115   114    1
   133    97    99   ar
   134    97    96    1
   135    54    55    1
   136    54    53    1
   137    81    80    1
   138    55    56    2
   139    74    72    1
   140    94    93    1
   141    94    95    2
   142    96    93    1
   143    93    92    1
   144    73    72    1
   145    80    79    1
   146    80    82    1
   147    86    85    2
   148    72    71    1
   149    79    76    1
   150    71    68    1
   151    92    85   am
   152    85    84    1
   153    78    77    2
   154    76    75    1
   155    76    77    1
   156    77    83   am
   157    68    67    1
   158    68    69    1
   159    84    83    1
   160    84    87    1
   161    88    87    1
   162    88    89    1
   163    69    70    2
   164    91    89   ar
   165    89    90   ar
