@<TRIPOS>MOLECULE
tmp/3uoaB00.pdb
 195 192 0 0 0
SMALL
GASTEIGER

@<TRIPOS>ATOM
      1  N        -12.5010   -1.7420    7.1320 N.3    20  PRO20      -0.2102
      2  CA       -11.9190   -0.6290    7.8830 C.3    20  PRO20       0.1504
      3  C        -12.8960    0.5120    8.0580 C.2    20  PRO20       0.2576
      4  O        -13.5930    0.8940    7.1180 O.2    20  PRO20      -0.2718
      5  CB       -10.7300   -0.2050    7.0160 C.3    20  PRO20       0.0282
      6  CG       -10.3500   -1.4660    6.2910 C.3    20  PRO20       0.0208
      7  CD       -11.6500   -2.1470    5.9970 C.3    20  PRO20       0.0893
      8  N        -12.9600    1.0470    9.2670 N.am   21  LYS21      -0.1966
      9  CA       -13.9210    2.0980    9.5370 C.3    21  LYS21       0.1728
     10  C        -13.3840    3.4150    9.0160 C.2    21  LYS21       0.2616
     11  O        -12.1720    3.6180    8.9580 O.2    21  LYS21      -0.2715
     12  CB       -14.1960    2.1940   11.0300 C.3    21  LYS21       0.0311
     13  CG       -14.8860    0.9630   11.6000 C.3    21  LYS21       0.0038
     14  CD       -15.3660    1.2510   13.0310 C.3    21  LYS21       0.0206
     15  CE       -15.7370   -0.0110   13.7690 C.3    21  LYS21       0.1093
     16  NZ       -16.8180   -0.7260   13.0810 N.3    21  LYS21      -0.1314
     17  N        -14.2950    4.3120    8.6510 N.am   22  LEU22      -0.1963
     18  CA       -13.9170    5.6380    8.2010 C.3    22  LEU22       0.1728
     19  C        -14.3740    6.6540    9.2430 C.2    22  LEU22       0.2616
     20  O        -15.0930    6.3040   10.1870 O.2    22  LEU22      -0.2715
     21  CB       -14.5770    5.9420    6.8580 C.3    22  LEU22       0.0311
     22  CG       -14.2230    4.9610    5.7520 C.3    22  LEU22       0.0022
     23  CD1      -15.1090    5.2690    4.5370 C.3    22  LEU22       0.0001
     24  CD2      -12.7430    5.0300    5.3700 C.3    22  LEU22       0.0001
     25  N        -13.9630    7.9050    9.0590 N.am   23  LYS23      -0.1963
     26  CA       -14.2800    8.9650   10.0160 C.3    23  LYS23       0.1728
     27  C        -14.9420   10.1730    9.3420 C.2    23  LYS23       0.2616
     28  O        -15.9480   10.6890    9.8350 O.2    23  LYS23      -0.2715
     29  CB       -13.0120    9.4260   10.7450 C.3    23  LYS23       0.0311
     30  CG       -12.4090    8.3590   11.6520 C.3    23  LYS23       0.0038
     31  CD       -13.3060    8.0620   12.8510 C.3    23  LYS23       0.0206
     32  CE       -13.0820    9.0540   13.9820 C.3    23  LYS23       0.1093
     33  NZ       -13.7950    8.6520   15.2290 N.3    23  LYS23      -0.1314
     34  N        -14.3850   10.6230    8.2150 N.am   24  ALA24      -0.1964
     35  CA       -14.8200   11.8850    7.6240 C.3    24  ALA24       0.1713
     36  C        -16.1440   11.8690    6.8450 C.2    24  ALA24       0.2458
     37  O        -16.6590   12.9360    6.5080 O.2    24  ALA24      -0.2730
     38  CB       -13.7050   12.4560    6.7340 C.3    24  ALA24       0.0333
     39  N        -16.7110   10.6880    6.5530 N.am   25  PRO25      -0.2727
     40  CA       -17.9930   10.7900    5.8550 C.3    25  PRO25       0.1402
     41  C        -19.0280   11.5680    6.6410 C.2    25  PRO25       0.2269
     42  O        -19.9010   12.1700    6.0280 O.2    25  PRO25      -0.2865
     43  CB       -18.4190    9.3280    5.7020 C.3    25  PRO25       0.0296
     44  CG       -17.1330    8.6140    5.5250 C.3    25  PRO25       0.0237
     45  CD       -16.2120    9.2980    6.5500 C.3    25  PRO25       0.0939
     46  N        -18.3860   15.2080    6.0070 N.3    28  ASP28      -0.1239
     47  CA       -18.5060   15.4530    4.5690 C.3    28  ASP28       0.1674
     48  C        -19.9800   15.5690    4.1970 C.2    28  ASP28       0.2266
     49  O        -20.4070   16.5130    3.5270 O.2    28  ASP28      -0.2867
     50  CB       -17.8320   14.3370    3.7590 C.3    28  ASP28       0.1410
     51  CG       -16.3140   14.4740    3.7200 C.2    28  ASP28       0.3668
     52  OD1      -15.7840   15.4950    4.2090 O.co2  28  ASP28      -0.2456
     53  OD2      -15.6530   13.5650    3.1900 O.co2  28  ASP28      -0.2456
     54  N        -20.3890    8.9420    0.2680 N.3    76  ALA76      -0.1231
     55  CA       -19.0560    8.8820    0.8580 C.3    76  ALA76       0.1694
     56  C        -18.9580    7.5850    1.6490 C.2    76  ALA76       0.2593
     57  O        -19.7450    7.3580    2.5640 O.2    76  ALA76      -0.2718
     58  CB       -18.8460   10.0510    1.7840 C.3    76  ALA76       0.0304
     59  N        -17.9890    6.7460    1.3050 N.am   77  GLY77      -0.1942
     60  CA       -17.8530    5.4570    1.9480 C.3    77  GLY77       0.2014
     61  C        -16.9760    4.5570    1.0920 C.2    77  GLY77       0.2639
     62  O        -16.3400    5.0050    0.1300 O.2    77  GLY77      -0.2714
     63  N        -16.9350    3.2840    1.4520 N.am   78  HIS78      -0.1959
     64  CA       -16.2180    2.3130    0.6550 C.3    78  HIS78       0.1787
     65  C        -16.9570    2.0850   -0.6490 C.2    78  HIS78       0.2620
     66  O        -18.1810    2.1220   -0.7080 O.2    78  HIS78      -0.2715
     67  CB       -16.0620    1.0030    1.4350 C.3    78  HIS78       0.0785
     68  CG       -15.0590    1.0970    2.5400 C.ar   78  HIS78       0.0821
     69  ND1      -13.8040    1.6340    2.3500 N.ar   78  HIS78      -0.2267
     70  CD2      -15.1200    0.7370    3.8450 C.ar   78  HIS78       0.1154
     71  CE1      -13.1340    1.5960    3.4880 C.ar   78  HIS78       0.1986
     72  NE2      -13.9100    1.0580    4.4110 N.ar   78  HIS78      -0.2212
     73  N        -16.1920    1.8520   -1.7050 N.am   79  GLY79      -0.1954
     74  CA       -16.7680    1.5420   -2.9990 C.3    79  GLY79       0.1869
     75  C        -15.7530    0.8160   -3.8540 C.2    79  GLY79       0.2309
     76  O        -14.5920    0.6520   -3.4600 O.2    79  GLY79      -0.2863
     77  N        -17.6910    9.6950   -3.7510 N.3   125  ASP125     -0.1225
     78  CA       -16.5470    9.9870   -2.8990 C.3   125  ASP125      0.1805
     79  C        -16.1030    8.6680   -2.2700 C.2   125  ASP125      0.2598
     80  O        -16.3470    8.4020   -1.0870 O.2   125  ASP125     -0.2718
     81  CB       -16.9710   11.0030   -1.8310 C.3   125  ASP125      0.1424
     82  CG       -15.7960   11.7110   -1.1870 C.2   125  ASP125      0.3668
     83  OD1      -14.6590   11.2330   -1.3260 O.co2 125  ASP125     -0.2456
     84  OD2      -16.0260   12.7520   -0.5260 O.co2 125  ASP125     -0.2456
     85  N        -15.4820    7.8290   -3.1000 N.am  126  MET126     -0.1965
     86  CA       -15.1720    6.4380   -2.7580 C.3   126  MET126      0.1736
     87  C        -14.0410    5.9580   -3.6520 C.2   126  MET126      0.2616
     88  O        -13.8030    6.5280   -4.7190 O.2   126  MET126     -0.2715
     89  CB       -16.3870    5.5550   -3.0350 C.3   126  MET126      0.0427
     90  CG       -16.8550    5.6130   -4.4960 C.3   126  MET126      0.0599
     91  SD       -18.3840    4.6890   -4.7580 S.3   126  MET126     -0.1393
     92  CE       -18.0320    3.7750   -6.2670 C.3   126  MET126      0.0692
     93  N        -13.3690    4.8890   -3.2380 N.am  127  CYS127     -0.1968
     94  CA       -12.3650    4.2540   -4.0940 C.3   127  CYS127      0.1712
     95  C        -13.0170    3.6060   -5.3190 C.2   127  CYS127      0.2296
     96  O        -14.2120    3.3070   -5.3050 O.2   127  CYS127     -0.2864
     97  CB       -11.5870    3.2030   -3.3170 C.3   127  CYS127      0.0983
     98  SG       -10.5640    3.8960   -1.9930 S.3   127  CYS127     -0.0798
     99  N         -7.5940    5.1980   -5.4990 N.3   160  GLU160     -0.1231
    100  CA        -8.2630    5.4020   -4.2110 C.3   160  GLU160      0.1699
    101  C         -8.6710    6.8520   -3.9990 C.2   160  GLU160      0.2592
    102  O         -8.0720    7.7620   -4.5620 O.2   160  GLU160     -0.2718
    103  CB        -7.3340    4.9470   -3.0770 C.3   160  GLU160      0.0402
    104  CG        -6.9690    3.4600   -3.1810 C.3   160  GLU160      0.1161
    105  CD        -6.0190    2.9690   -2.0840 C.2   160  GLU160      0.3649
    106  OE1       -4.9600    3.5940   -1.8690 O.co2 160  GLU160     -0.2457
    107  OE2       -6.3260    1.9330   -1.4530 O.co2 160  GLU160     -0.2457
    108  N         -9.7030    7.0540   -3.1790 N.am  161  ALA161     -0.1966
    109  CA       -10.0910    8.3740   -2.7250 C.3   161  ALA161      0.1728
    110  C         -9.7780    8.4290   -1.2310 C.2   161  ALA161      0.2616
    111  O         -9.9300    7.4300   -0.5450 O.2   161  ALA161     -0.2715
    112  CB       -11.5830    8.6050   -2.9650 C.3   161  ALA161      0.0334
    113  N         -9.3660    9.5890   -0.7230 N.am  162  PHE162     -0.1960
    114  CA        -8.8220    9.6390    0.6310 C.3   162  PHE162      0.1771
    115  C         -9.5230   10.5940    1.5850 C.2   162  PHE162      0.2619
    116  O        -10.1550   11.5710    1.1820 O.2   162  PHE162     -0.2715
    117  CB        -7.3500   10.0330    0.5800 C.3   162  PHE162      0.0574
    118  CG        -6.4900    9.0190   -0.1080 C.ar  162  PHE162     -0.0200
    119  CD1       -6.2170    9.1300   -1.4580 C.ar  162  PHE162     -0.0042
    120  CD2       -5.9910    7.9360    0.5930 C.ar  162  PHE162     -0.0042
    121  CE1       -5.4310    8.1940   -2.0990 C.ar  162  PHE162     -0.0003
    122  CE2       -5.2000    6.9890   -0.0440 C.ar  162  PHE162     -0.0003
    123  CZ        -4.9260    7.1220   -1.3950 C.ar  162  PHE162     -0.0000
    124  N         -9.3900   10.2710    2.8650 N.am  163  GLU163     -0.1963
    125  CA        -9.5480   11.2420    3.9300 C.3   163  GLU163      0.1733
    126  C         -8.2660   11.2040    4.7430 C.2   163  GLU163      0.2616
    127  O         -7.3820   10.3820    4.4930 O.2   163  GLU163     -0.2715
    128  CB       -10.7520   10.8940    4.7990 C.3   163  GLU163      0.0429
    129  CG       -10.7250    9.4720    5.3430 C.3   163  GLU163      0.1163
    130  CD       -12.0110    9.1310    6.0630 C.2   163  GLU163      0.3649
    131  OE1      -13.0630    9.1220    5.4100 O.co2 163  GLU163     -0.2457
    132  OE2      -11.9600    8.9190    7.2820 O.co2 163  GLU163     -0.2457
    133  N         -8.1490   12.1080    5.7020 N.am  164  ILE164     -0.1963
    134  CA        -6.9200   12.2630    6.4490 C.3   164  ILE164      0.1727
    135  C         -7.0500   11.5250    7.7650 C.2   164  ILE164      0.2616
    136  O         -8.0850   11.5960    8.4220 O.2   164  ILE164     -0.2715
    137  CB        -6.6480   13.7540    6.7170 C.3   164  ILE164      0.0290
    138  CG1       -6.6740   14.5290    5.3930 C.3   164  ILE164      0.0022
    139  CG2       -5.3030   13.9400    7.4060 C.3   164  ILE164      0.0023
    140  CD1       -6.6400   16.0350    5.5540 C.3   164  ILE164      0.0001
    141  N         -6.0080   10.7940    8.1390 N.am  165  GLN165     -0.1963
    142  CA        -5.9860   10.1400    9.4420 C.3   165  GLN165      0.1733
    143  C         -5.8490   11.1780   10.5550 C.2   165  GLN165      0.2616
    144  O         -5.2690   12.2470   10.3510 O.2   165  GLN165     -0.2715
    145  CB        -4.8340    9.1380    9.5160 C.3   165  GLN165      0.0408
    146  CG        -4.9980    7.9190    8.6230 C.3   165  GLN165      0.0908
    147  CD        -3.9160    6.8880    8.8670 C.2   165  GLN165      0.2608
    148  OE1       -3.5850    6.5880   10.0120 O.2   165  GLN165     -0.2717
    149  NE2       -3.3430    6.3550    7.7900 N.am  165  GLN165     -0.0878
    150  N         -6.3950   10.8600   11.7260 N.am  166  HIS166     -0.1973
    151  CA        -6.2330   11.7050   12.9040 C.3   166  HIS166      0.1656
    152  C         -6.4420   13.1780   12.5800 C.2   166  HIS166      0.2291
    153  O         -5.5810   14.0090   12.8690 O.2   166  HIS166     -0.2864
    154  CB        -4.8300   11.5130   13.4870 C.3   166  HIS166      0.0771
    155  CG        -4.5230   10.0980   13.8550 C.ar  166  HIS166      0.0820
    156  ND1       -3.6870    9.2980   13.1060 N.ar  166  HIS166     -0.2267
    157  CD2       -4.9520    9.3320   14.8850 C.ar  166  HIS166      0.1154
    158  CE1       -3.6100    8.1020   13.6620 C.ar  166  HIS166      0.1986
    159  NE2       -4.3680    8.0970   14.7440 N.ar  166  HIS166     -0.2212
    160  N        -12.9430   14.9700    4.1490 N.3   172  GLY172     -0.1210
    161  CA       -12.1890   14.1570    3.2110 C.3   172  GLY172      0.1956
    162  C        -11.6480   15.0760    2.1240 C.2   172  GLY172      0.2611
    163  O        -12.0090   16.2510    2.0430 O.2   172  GLY172     -0.2717
    164  N        -10.7700   14.5500    1.2850 N.am  173  ILE173     -0.1979
    165  CA       -10.1130   15.3830    0.2690 C.3   173  ILE173      0.1595
    166  C        -11.0840   16.0130   -0.7360 C.2   173  ILE173      0.2287
    167  O        -10.9880   17.2120   -1.0330 O.2   173  ILE173     -0.2864
    168  CB        -9.0320   14.5700   -0.4770 C.3   173  ILE173      0.0276
    169  CG1       -7.9360   14.1200    0.4980 C.3   173  ILE173      0.0022
    170  CG2       -8.4550   15.3980   -1.5870 C.3   173  ILE173      0.0022
    171  CD1       -7.1620   15.2570    1.1170 C.3   173  ILE173      0.0001
    172  N         -0.7160   16.2880   -0.5330 N.3   204  LEU204     -0.1231
    173  CA        -0.9990   15.0280    0.1240 C.3   204  LEU204      0.1693
    174  C         -1.4050   13.9460   -0.8730 C.2   204  LEU204      0.2592
    175  O         -1.0560   12.7760   -0.7050 O.2   204  LEU204     -0.2718
    176  CB        -2.1170   15.2380    1.1450 C.3   204  LEU204      0.0284
    177  CG        -2.0070   14.5420    2.4940 C.3   204  LEU204      0.0019
    178  CD1       -0.6290   14.7230    3.1140 C.3   204  LEU204      0.0001
    179  CD2       -3.0960   15.0830    3.4100 C.3   204  LEU204      0.0001
    180  N         -2.1530   14.3260   -1.9050 N.am  205  THR205     -0.1953
    181  CA        -2.7440   13.3290   -2.7930 C.3   205  THR205      0.1897
    182  C         -2.1500   13.2910   -4.2040 C.2   205  THR205      0.2313
    183  O         -2.6450   12.5730   -5.0670 O.2   205  THR205     -0.2863
    184  CB        -4.2790   13.5040   -2.8800 C.3   205  THR205      0.1794
    185  OG1       -4.6070   14.8840   -3.0860 O.3   205  THR205     -0.2208
    186  CG2       -4.9230   13.0210   -1.5990 C.3   205  THR205      0.0378
    187  N         -1.9860   10.0710   -6.3970 N.3   208  LYS208     -0.1245
    188  CA        -2.8220    9.0780   -5.7400 C.3   208  LYS208      0.1561
    189  C         -4.2930    9.3330   -5.9910 C.2   208  LYS208      0.2260
    190  O         -5.0630    8.3840   -6.1400 O.2   208  LYS208     -0.2867
    191  CB        -2.5640    9.0740   -4.2320 C.3   208  LYS208      0.0271
    192  CG        -1.1570    8.6630   -3.8690 C.3   208  LYS208      0.0035
    193  CD        -0.8170    9.0190   -2.4290 C.3   208  LYS208      0.0206
    194  CE        -1.4250    8.0470   -1.4440 C.3   208  LYS208      0.1093
    195  NZ        -0.6840    8.0640   -0.1500 N.3   208  LYS208     -0.1314
@<TRIPOS>BOND
     1   187   188    1
     2    92    91    1
     3   190   189    2
     4   189   188    1
     5   188   191    1
     6    99   100    1
     7    95    96    2
     8    95    94    1
     9   183   182    2
    10    91    90    1
    11    88    87    2
    12   102   101    2
    13    90    89    1
    14   191   192    1
    15   100   101    1
    16   100   103    1
    17   182   181    1
    18    94    97    1
    19    94    93    1
    20   101   108   am
    21   192   193    1
    22    75    76    2
    23    75    74    1
    24    77    78    1
    25    87    93   am
    26    87    86    1
    27    97    98    1
    28   104   103    1
    29   104   105    1
    30   108   109    1
    31    85    86    1
    32    85    79   am
    33   185   184    1
    34    89    86    1
    35    74    73    1
    36   112   109    1
    37    78    79    1
    38    78    81    1
    39   184   181    1
    40   184   186    1
    41   181   180    1
    42   109   110    1
    43   193   194    1
    44    79    80    2
    45   121   119   ar
    46   121   123   ar
    47   105   106   ar
    48   105   107   ar
    49   180   174   am
    50    81    82    1
    51    73    65   am
    52   170   168    1
    53   119   118   ar
    54   194   195    1
    55   123   122   ar
    56    83    82   ar
    57   110   113   am
    58   110   111    2
    59    82    84   ar
    60   167   166    2
    61   174   175    2
    62   174   173    1
    63   166   165    1
    64   113   114    1
    65    66    65    2
    66    65    64    1
    67   172   173    1
    68   168   165    1
    69   168   169    1
    70   118   117    1
    71   118   120   ar
    72   122   120   ar
    73   173   176    1
    74    62    61    2
    75    54    55    1
    76   165   164    1
    77   169   171    1
    78   117   114    1
    79   114   115    1
    80    64    67    1
    81    64    63    1
    82    55    56    1
    83    55    58    1
    84    61    63   am
    85    61    60    1
    86   176   177    1
    87   116   115    2
    88   164   162   am
    89    59    56   am
    90    59    60    1
    91    67    68    1
    92   115   124   am
    93    56    57    2
    94   163   162    2
    95   162   161    1
    96    69    68   ar
    97    69    71   ar
    98   177   178    1
    99   177   179    1
   100    68    70   ar
   101   124   125    1
   102    53    51   ar
   103   161   160    1
   104    71    72   ar
   105    49    48    2
   106    51    50    1
   107    51    52   ar
   108    50    47    1
   109    70    72   ar
   110   125   126    1
   111   125   128    1
   112    48    47    1
   113   127   126    2
   114    23    22    1
   115    47    46    1
   116   126   133   am
   117   128   129    1
   118   129   130    1
   119    24    22    1
   120   138   140    1
   121   138   137    1
   122   131   130   ar
   123    44    43    1
   124    44    45    1
   125   133   134    1
   126    43    40    1
   127    22    21    1
   128    40    39    1
   129    40    41    1
   130     7     6    1
   131     7     1    1
   132    42    41    2
   133   130   132   ar
   134     6     5    1
   135   134   137    1
   136   134   135    1
   137    37    36    2
   138    45    39    1
   139    39    36   am
   140   137   139    1
   141    38    35    1
   142    36    35    1
   143    21    18    1
   144     5     2    1
   145     4     3    2
   146     1     2    1
   147    35    34    1
   148   135   141   am
   149   135   136    2
   150   149   147   am
   151     2     3    1
   152     3     8   am
   153   141   142    1
   154    18    17    1
   155    18    19    1
   156    34    27   am
   157   146   147    1
   158   146   145    1
   159    17    10   am
   160   147   148    2
   161    11    10    2
   162    10     9    1
   163    25    19   am
   164    25    26    1
   165    19    20    2
   166     8     9    1
   167    27    28    2
   168    27    26    1
   169   142   145    1
   170   142   143    1
   171     9    12    1
   172    26    29    1
   173   144   143    2
   174   143   150   am
   175    29    30    1
   176    12    13    1
   177    13    14    1
   178    30    31    1
   179   150   151    1
   180   152   153    2
   181   152   151    1
   182    31    32    1
   183   151   154    1
   184    14    15    1
   185    16    15    1
   186   156   158   ar
   187   156   155   ar
   188   154   155    1
   189   158   159   ar
   190   155   157   ar
   191    32    33    1
   192   159   157   ar
