@<TRIPOS>MOLECULE
tmp/3uodA00.pdb
 162 152 0 0 0
SMALL
GASTEIGER

@<TRIPOS>ATOM
      1  N         -6.1150   28.0640    4.7320 N.3    14  ARG14      -0.1245
      2  CA        -5.2920   28.3130    3.5540 C.3    14  ARG14       0.1563
      3  C         -3.8770   27.7720    3.6920 C.2    14  ARG14       0.2260
      4  O         -3.2150   27.9970    4.7140 O.2    14  ARG14      -0.2867
      5  CB        -5.1990   29.8260    3.3000 C.3    14  ARG14       0.0307
      6  CG        -4.3180   30.2020    2.1140 C.3    14  ARG14       0.0489
      7  CD        -4.3680   31.6900    1.8220 C.3    14  ARG14       0.2205
      8  NE        -3.6530   32.4710    2.8340 N.pl3  14  ARG14      -0.0865
      9  CZ        -2.3930   32.8900    2.7110 C.cat  14  ARG14       0.5346
     10  NH1       -1.6910   32.6150    1.6150 N.pl3  14  ARG14       0.1354
     11  NH2       -1.8340   33.6020    3.6850 N.pl3  14  ARG14       0.1354
     12  N         -0.1070   27.9890    3.3610 N.3    16  LEU16      -0.1231
     13  CA         0.8490   29.0970    3.2760 C.3    16  LEU16       0.1693
     14  C          1.9850   28.8090    2.2920 C.2    16  LEU16       0.2593
     15  O          2.4030   29.6800    1.5220 O.2    16  LEU16      -0.2718
     16  CB         1.3890   29.4510    4.6590 C.3    16  LEU16       0.0284
     17  CG         0.2690   29.7070    5.6660 C.3    16  LEU16       0.0019
     18  CD1        0.8310   29.9560    7.0710 C.3    16  LEU16       0.0001
     19  CD2       -0.5900   30.8940    5.1940 C.3    16  LEU16       0.0001
     20  N          2.4820   27.5800    2.3270 N.am   17  GLY17      -0.1942
     21  CA         3.6330   27.2090    1.5290 C.3    17  GLY17       0.2014
     22  C          3.6970   25.7180    1.2800 C.2    17  GLY17       0.2638
     23  O          3.0790   24.9250    2.0030 O.2    17  GLY17      -0.2714
     24  N          4.4560   25.3390    0.2550 N.am   18  LYS18      -0.1977
     25  CA         4.5710   23.9410   -0.1400 C.3    18  LYS18       0.1596
     26  C          5.9890   23.4450    0.1340 C.2    18  LYS18       0.2287
     27  O          6.8380   24.1960    0.6320 O.2    18  LYS18      -0.2864
     28  CB         4.2010   23.7650   -1.6220 C.3    18  LYS18       0.0298
     29  CG         2.8110   24.3120   -2.0090 C.3    18  LYS18       0.0038
     30  CD         1.6770   23.6140   -1.2370 C.3    18  LYS18       0.0206
     31  CE         0.2850   23.9830   -1.7760 C.3    18  LYS18       0.1093
     32  NZ        -0.7750   23.0460   -1.2730 N.3    18  LYS18      -0.1314
     33  N          2.9030   24.0920    4.8900 N.3    24  VAL24      -0.1245
     34  CA         2.5310   24.8910    6.0510 C.3    24  VAL24       0.1561
     35  C          1.0990   25.4020    5.8590 C.2    24  VAL24       0.2260
     36  O          0.7320   25.8840    4.7650 O.2    24  VAL24      -0.2867
     37  CB         3.4960   26.0810    6.2430 C.3    24  VAL24       0.0252
     38  CG1        3.1930   26.8070    7.5410 C.3    24  VAL24       0.0019
     39  CG2        4.9540   25.5920    6.2180 C.3    24  VAL24       0.0019
     40  N          0.1630   28.6890   12.6630 N.3    37  ALA37      -0.1245
     41  CA         0.5390   27.9140   11.4790 C.3    37  ALA37       0.1562
     42  C          0.8670   26.4860   11.8790 C.2    37  ALA37       0.2260
     43  O          1.5710   26.2550   12.8710 O.2    37  ALA37      -0.2867
     44  CB         1.7500   28.5490   10.7920 C.3    37  ALA37       0.0290
     45  N          2.8680   23.2970   10.4270 N.3    39  LYS39      -0.1245
     46  CA         3.7500   22.6570    9.4390 C.3    39  LYS39       0.1561
     47  C          3.5140   21.1340    9.4860 C.2    39  LYS39       0.2260
     48  O          3.6440   20.5080   10.5490 O.2    39  LYS39      -0.2867
     49  CB         5.2090   22.9920    9.7600 C.3    39  LYS39       0.0271
     50  CG         6.2560   22.4930    8.7670 C.3    39  LYS39       0.0035
     51  CD         7.5750   23.1510    9.1300 C.3    39  LYS39       0.0206
     52  CE         8.6190   23.0420    8.0330 C.3    39  LYS39       0.1093
     53  NZ         9.7250   24.0440    8.2480 N.3    39  LYS39      -0.1314
     54  N         10.9220   33.1730   14.8780 N.3    71  LEU71      -0.1245
     55  CA         9.5790   32.5670   14.8540 C.3    71  LEU71       0.1561
     56  C          9.4030   31.4630   15.9070 C.2    71  LEU71       0.2260
     57  O         10.1470   30.4600   15.9310 O.2    71  LEU71      -0.2867
     58  CB         9.2210   32.0150   13.4640 C.3    71  LEU71       0.0270
     59  CG         7.7470   31.6210   13.2590 C.3    71  LEU71       0.0019
     60  CD1        6.9530   32.8410   12.8060 C.3    71  LEU71       0.0001
     61  CD2        7.5980   30.4700   12.2580 C.3    71  LEU71       0.0001
     62  N          3.2840   26.3980   15.0330 N.3    87  LEU87      -0.1231
     63  CA         4.1530   27.5380   14.8560 C.3    87  LEU87       0.1693
     64  C          3.4290   28.8510   15.0500 C.2    87  LEU87       0.2592
     65  O          2.2440   28.9800   14.7480 O.2    87  LEU87      -0.2718
     66  CB         4.7160   27.5000   13.4450 C.3    87  LEU87       0.0284
     67  CG         5.6930   26.3590   13.1550 C.3    87  LEU87       0.0019
     68  CD1        5.7250   26.0860   11.6620 C.3    87  LEU87       0.0001
     69  CD2        7.0860   26.6980   13.6900 C.3    87  LEU87       0.0001
     70  N          4.1490   29.8430   15.5370 N.am   88  GLU88      -0.1966
     71  CA         3.6630   31.2020   15.4210 C.3    88  GLU88       0.1733
     72  C          3.3940   31.4950   13.9440 C.2    88  GLU88       0.2616
     73  O          4.1080   31.0240   13.0480 O.2    88  GLU88      -0.2715
     74  CB         4.7050   32.1690   15.9740 C.3    88  GLU88       0.0429
     75  CG         4.6180   33.5820   15.4310 C.3    88  GLU88       0.1163
     76  CD         5.6820   34.4540   16.0570 C.2    88  GLU88       0.3649
     77  OE1        6.5250   33.8960   16.7990 O.co2  88  GLU88      -0.2457
     78  OE2        5.6780   35.6840   15.8170 O.co2  88  GLU88      -0.2457
     79  N          2.3370   32.2520   13.6880 N.am   89  TYR89      -0.1960
     80  CA         1.9680   32.6250   12.3240 C.3    89  TYR89       0.1771
     81  C          2.4510   34.0480   12.0530 C.2    89  TYR89       0.2619
     82  O          2.1250   34.9860   12.8040 O.2    89  TYR89      -0.2715
     83  CB         0.4480   32.4790   12.1450 C.3    89  TYR89       0.0574
     84  CG        -0.1570   33.2890   11.0240 C.ar   89  TYR89      -0.0198
     85  CD1        0.1940   33.0570    9.7020 C.ar   89  TYR89      -0.0009
     86  CD2       -1.1150   34.2610   11.2870 C.ar   89  TYR89      -0.0009
     87  CE1       -0.3750   33.7990    8.6580 C.ar   89  TYR89       0.0417
     88  CE2       -1.6920   35.0040   10.2550 C.ar   89  TYR89       0.0417
     89  CZ        -1.3150   34.7670    8.9430 C.ar   89  TYR89       0.1957
     90  OH        -1.8800   35.4970    7.9180 O.3    89  TYR89      -0.2866
     91  N          3.2500   34.2050   11.0010 N.am   90  ALA90      -0.1964
     92  CA         3.7530   35.5200   10.6250 C.3    90  ALA90       0.1713
     93  C          2.8960   36.0100    9.4750 C.2    90  ALA90       0.2458
     94  O          2.9660   35.4630    8.3740 O.2    90  ALA90      -0.2730
     95  CB         5.2080   35.4250   10.2160 C.3    90  ALA90       0.0333
     96  N          2.0680   37.0360    9.7370 N.am   91  PRO91      -0.2727
     97  CA         0.9630   37.3940    8.8300 C.3    91  PRO91       0.1402
     98  C          1.3890   38.0170    7.4930 C.2    91  PRO91       0.2269
     99  O          0.5890   37.9920    6.5550 O.2    91  PRO91      -0.2865
    100  CB         0.1160   38.3880    9.6490 C.3    91  PRO91       0.0296
    101  CG         0.7480   38.4490   11.0300 C.3    91  PRO91       0.0237
    102  CD         2.1530   37.9330   10.9030 C.3    91  PRO91       0.0939
    103  N          4.0700   37.0820    5.4920 N.3    93  GLY93      -0.1210
    104  CA         4.6880   36.1850    4.5340 C.3    93  GLY93       0.1956
    105  C          6.2000   36.2860    4.5170 C.2    93  GLY93       0.2612
    106  O          6.8050   36.8250    5.4480 O.2    93  GLY93      -0.2717
    107  N          6.8170   35.7250    3.4810 N.am   94  THR94      -0.1952
    108  CA         8.2710   35.6780    3.4100 C.3    94  THR94       0.1897
    109  C          8.9030   36.9660    2.8760 C.2    94  THR94       0.2313
    110  O          8.2740   37.7100    2.1080 O.2    94  THR94      -0.2863
    111  CB         8.7460   34.4970    2.5620 C.3    94  THR94       0.1794
    112  OG1        8.4820   34.7750    1.1830 O.3    94  THR94      -0.2208
    113  CG2        8.0250   33.2220    2.9790 C.3    94  THR94       0.0378
    114  N          9.1190   36.8340   -0.9890 N.3    97  ARG97      -0.1245
    115  CA         8.0320   37.4320   -1.7470 C.3    97  ARG97       0.1563
    116  C          8.1300   38.9780   -1.7890 C.2    97  ARG97       0.2260
    117  O          7.9350   39.5710   -2.8620 O.2    97  ARG97      -0.2867
    118  CB         6.6730   36.9430   -1.2560 C.3    97  ARG97       0.0307
    119  CG         5.5510   37.2550   -2.2270 C.3    97  ARG97       0.0489
    120  CD         4.1900   36.7510   -1.7510 C.3    97  ARG97       0.2205
    121  NE         3.8390   37.2990   -0.4460 N.pl3  97  ARG97      -0.0865
    122  CZ         2.6540   37.1380    0.1410 C.cat  97  ARG97       0.5346
    123  NH1        1.6820   36.4520   -0.4590 N.pl3  97  ARG97       0.1354
    124  NH2        2.4330   37.6700    1.3360 N.pl3  97  ARG97       0.1354
    125  N         13.8200   32.9240    1.7200 N.3   137  GLU137     -0.1231
    126  CA        12.6710   32.0150    1.7610 C.3   137  GLU137      0.1699
    127  C         12.4550   31.4340    3.1630 C.2   137  GLU137      0.2592
    128  O         11.4040   30.8500    3.4350 O.2   137  GLU137     -0.2718
    129  CB        12.8250   30.8860    0.7370 C.3   137  GLU137      0.0402
    130  CG        12.4560   31.2680   -0.7010 C.3   137  GLU137      0.1161
    131  CD        13.0960   30.3330   -1.7210 C.2   137  GLU137      0.3649
    132  OE1       12.4180   29.9400   -2.6980 O.co2 137  GLU137     -0.2457
    133  OE2       14.2910   29.9940   -1.5410 O.co2 137  GLU137     -0.2457
    134  N         13.4690   31.5700    4.0230 N.am  138  ASN138     -0.1974
    135  CA        13.3960   31.2110    5.4500 C.3   138  ASN138      0.1688
    136  C         13.1310   32.4010    6.3750 C.2   138  ASN138      0.2292
    137  O         13.2150   32.2710    7.5940 O.2   138  ASN138     -0.2864
    138  CB        14.6760   30.5060    5.9120 C.3   138  ASN138      0.1181
    139  CG        14.9530   29.2470    5.1220 C.2   138  ASN138      0.2629
    140  OD1       14.0440   28.6730    4.5140 O.2   138  ASN138     -0.2716
    141  ND2       16.2120   28.8060    5.1200 N.am  138  ASN138     -0.0877
    142  N         10.5140   35.5090    7.5560 N.3   140  LEU140     -0.1245
    143  CA         9.1130   35.9060    7.4950 C.3   140  LEU140      0.1561
    144  C          8.9710   37.3450    8.0040 C.2   140  LEU140      0.2260
    145  O          9.9260   37.9260    8.5370 O.2   140  LEU140     -0.2867
    146  CB         8.2510   34.9290    8.3170 C.3   140  LEU140      0.0270
    147  CG         8.0020   33.5340    7.7090 C.3   140  LEU140      0.0019
    148  CD1        7.5720   32.4820    8.7300 C.3   140  LEU140      0.0001
    149  CD2        6.9620   33.6200    6.6070 C.3   140  LEU140      0.0001
    150  N         12.5650   32.1140   10.4190 N.3   150  ALA150     -0.1231
    151  CA        11.4420   31.1690   10.4140 C.3   150  ALA150      0.1694
    152  C         11.8610   29.7080   10.4960 C.2   150  ALA150      0.2592
    153  O         11.4680   28.9970   11.4150 O.2   150  ALA150     -0.2718
    154  CB        10.5520   31.3890    9.1810 C.3   150  ALA150      0.0304
    155  N         12.6250   29.2580    9.5060 N.am  151  ASP151     -0.1974
    156  CA        12.8260   27.8220    9.2720 C.3   151  ASP151      0.1709
    157  C         14.1770   27.3130    9.7830 C.2   151  ASP151      0.2293
    158  O         15.2330   27.5740    9.1920 O.2   151  ASP151     -0.2864
    159  CB        12.6730   27.5250    7.7760 C.3   151  ASP151      0.1436
    160  CG        12.6510   26.0570    7.4690 C.2   151  ASP151      0.3671
    161  OD1       13.3090   25.2750    8.1940 O.co2 151  ASP151     -0.2456
    162  OD2       11.9750   25.6880    6.4860 O.co2 151  ASP151     -0.2456
@<TRIPOS>BOND
     1   117   116    2
     2   132   131   ar
     3   119   120    1
     4   119   118    1
     5    29    28    1
     6    29    30    1
     7   116   115    1
     8    31    32    1
     9    31    30    1
    10   120   121    1
    11   115   118    1
    12   115   114    1
    13   131   133   ar
    14   131   130    1
    15    28    25    1
    16   130   129    1
    17   123   122    1
    18   121   122    2
    19    25    26    1
    20    25    24    1
    21    26    27    2
    22   122   124    1
    23    24    22   am
    24   129   126    1
    25   112   111    1
    26    22    21    1
    27    22    23    2
    28    15    14    2
    29    21    20    1
    30    10     9    1
    31   125   126    1
    32   126   127    1
    33     7     6    1
    34     7     8    1
    35   110   109    2
    36     6     5    1
    37    14    20   am
    38    14    13    1
    39   111   113    1
    40   111   108    1
    41     9     8    2
    42     9    11    1
    43   109   108    1
    44   127   128    2
    45   127   134   am
    46    13    12    1
    47    13    16    1
    48     5     2    1
    49   108   107    1
    50   107   105   am
    51     2     3    1
    52     2     1    1
    53     3     4    2
    54   134   135    1
    55   140   139    2
    56   105   104    1
    57   105   106    2
    58   104   103    1
    59    16    17    1
    60    36    35    2
    61    33    34    1
    62   141   139   am
    63   139   138    1
    64    19    17    1
    65   135   138    1
    66   135   136    1
    67    17    18    1
    68    35    34    1
    69    34    37    1
    70    39    37    1
    71    37    38    1
    72   136   137    2
    73   162   160   ar
    74    99    98    2
    75   149   147    1
    76   160   159    1
    77   160   161   ar
    78    98    97    1
    79   143   142    1
    80   143   144    1
    81   143   146    1
    82   147   146    1
    83   147   148    1
    84   159   156    1
    85    90    89    1
    86   144   145    2
    87    52    53    1
    88    52    51    1
    89    94    93    2
    90    87    89   ar
    91    87    85   ar
    92    50    51    1
    93    50    49    1
    94    97   100    1
    95    97    96    1
    96    89    88   ar
    97   154   151    1
    98   158   157    2
    99   156   155    1
   100   156   157    1
   101    46    47    1
   102    46    49    1
   103    46    45    1
   104    93    96   am
   105    93    92    1
   106    47    48    2
   107   155   152   am
   108   100   101    1
   109    85    84   ar
   110    96   102    1
   111    95    92    1
   112    88    86   ar
   113   151   150    1
   114   151   152    1
   115   152   153    2
   116    92    91    1
   117    44    41    1
   118   102   101    1
   119    91    81   am
   120    84    86   ar
   121    84    83    1
   122    41    42    1
   123    41    40    1
   124    68    67    1
   125    42    43    2
   126    81    80    1
   127    81    82    2
   128    83    80    1
   129    61    59    1
   130    80    79    1
   131    60    59    1
   132    73    72    2
   133    67    66    1
   134    67    69    1
   135    59    58    1
   136    66    63    1
   137    58    55    1
   138    79    72   am
   139    72    71    1
   140    65    64    2
   141    55    54    1
   142    55    56    1
   143    63    62    1
   144    63    64    1
   145    64    70   am
   146    71    70    1
   147    71    74    1
   148    75    74    1
   149    75    76    1
   150    78    76   ar
   151    56    57    2
   152    76    77   ar
