@<TRIPOS>MOLECULE
tmp/3uohA00.pdb
 175 166 0 0 0
SMALL
GASTEIGER

@<TRIPOS>ATOM
      1  N         17.3070   17.1840    5.7750 N.3    12  ARG12      -0.1245
      2  CA        16.3770   16.2630    5.1340 C.3    12  ARG12       0.1563
      3  C         15.0320   16.9240    4.8970 C.2    12  ARG12       0.2260
      4  O         14.7050   17.9460    5.5100 O.2    12  ARG12      -0.2867
      5  CB        16.1740   15.0240    6.0100 C.3    12  ARG12       0.0307
      6  CG        15.4830   15.3580    7.3410 C.3    12  ARG12       0.0489
      7  CD        15.5150   14.1840    8.2750 C.3    12  ARG12       0.2205
      8  NE        14.7520   14.4310    9.4960 N.pl3  12  ARG12      -0.0865
      9  CZ        13.5330   13.9590    9.7320 C.cat  12  ARG12       0.5346
     10  NH1       12.9270   13.2080    8.8240 N.pl3  12  ARG12       0.1354
     11  NH2       12.9280   14.2390   10.8800 N.pl3  12  ARG12       0.1354
     12  N         11.3060   16.9300    5.7910 N.3    14  LEU14      -0.1231
     13  CA        10.4930   16.4660    6.9080 C.3    14  LEU14       0.1693
     14  C          9.2200   15.8590    6.3540 C.2    14  LEU14       0.2592
     15  O          8.7430   14.8350    6.8390 O.2    14  LEU14      -0.2718
     16  CB        10.1540   17.6330    7.8300 C.3    14  LEU14       0.0284
     17  CG        11.3430   18.3750    8.4330 C.3    14  LEU14       0.0019
     18  CD1       10.8860   19.6800    9.0880 C.3    14  LEU14       0.0001
     19  CD2       12.0780   17.4680    9.4190 C.3    14  LEU14       0.0001
     20  N          8.6840   16.5090    5.3240 N.am   15  GLY15      -0.1957
     21  CA         7.5130   16.0210    4.6300 C.3    15  GLY15       0.1869
     22  C          7.4940   16.4770    3.1880 C.2    15  GLY15       0.2309
     23  O          8.1050   17.4880    2.8400 O.2    15  GLY15      -0.2863
     24  N          8.6080   20.3440    2.8170 N.3    22  VAL22      -0.1245
     25  CA         9.0960   21.0670    3.9800 C.3    22  VAL22       0.1561
     26  C         10.4320   20.4610    4.3620 C.2    22  VAL22       0.2260
     27  O         10.5250   19.2580    4.6200 O.2    22  VAL22      -0.2867
     28  CB         8.1510   20.9060    5.1700 C.3    22  VAL22       0.0252
     29  CG1        8.4460   21.9740    6.2190 C.3    22  VAL22       0.0019
     30  CG2        6.7050   20.9830    4.7060 C.3    22  VAL22       0.0019
     31  N         11.9570   25.2740    9.9890 N.3    35  ALA35      -0.1245
     32  CA        11.4650   24.4540    8.8890 C.3    35  ALA35       0.1562
     33  C         11.2100   25.3470    7.6850 C.2    35  ALA35       0.2260
     34  O         10.6240   26.4330    7.8130 O.2    35  ALA35      -0.2867
     35  CB        10.1990   23.7070    9.2850 C.3    35  ALA35       0.0290
     36  N          9.2750   25.6230    4.2350 N.3    37  LYS37      -0.1245
     37  CA         8.2880   25.1180    3.2900 C.3    37  LYS37       0.1561
     38  C          8.6230   25.6370    1.8870 C.2    37  LYS37       0.2260
     39  O          8.7970   26.8490    1.6760 O.2    37  LYS37      -0.2867
     40  CB         6.8720   25.5260    3.7000 C.3    37  LYS37       0.0271
     41  CG         5.8290   24.4310    3.4920 C.3    37  LYS37       0.0035
     42  CD         4.4700   24.8430    4.0620 C.3    37  LYS37       0.0206
     43  CE         3.5000   23.6620    4.1580 C.3    37  LYS37       0.1093
     44  NZ         2.4310   23.9030    5.1630 N.3    37  LYS37      -0.1314
     45  N          1.6380   26.8780   14.9790 N.3    69  LEU69      -0.1245
     46  CA         2.9880   26.9560   14.4160 C.3    69  LEU69       0.1561
     47  C          3.2110   28.3260   13.7810 C.2    69  LEU69       0.2260
     48  O          2.4820   28.7270   12.8730 O.2    69  LEU69      -0.2867
     49  CB         3.1950   25.8690   13.3660 C.3    69  LEU69       0.0270
     50  CG         4.6350   25.5030   12.9950 C.3    69  LEU69       0.0019
     51  CD1        5.3770   24.9070   14.1980 C.3    69  LEU69       0.0001
     52  CD2        4.6590   24.5370   11.7960 C.3    69  LEU69       0.0001
     53  N          9.3910   28.7400    8.6700 N.3    85  LEU85      -0.1231
     54  CA         8.5090   28.1860    9.6860 C.3    85  LEU85       0.1693
     55  C          9.2040   27.8280   10.9900 C.2    85  LEU85       0.2592
     56  O         10.4320   27.6710   11.0470 O.2    85  LEU85      -0.2718
     57  CB         7.8180   26.9340    9.1560 C.3    85  LEU85       0.0284
     58  CG         6.8070   27.1390    8.0570 C.3    85  LEU85       0.0019
     59  CD1        6.3110   25.7890    7.5860 C.3    85  LEU85       0.0001
     60  CD2        5.6630   28.0030    8.5630 C.3    85  LEU85       0.0001
     61  N          8.3960   27.7060   12.0390 N.am   86  GLU86      -0.1966
     62  CA         8.8720   27.1820   13.3030 C.3    86  GLU86       0.1733
     63  C          9.0970   25.6870   13.1270 C.2    86  GLU86       0.2616
     64  O          8.3200   25.0060   12.4450 O.2    86  GLU86      -0.2715
     65  CB         7.8460   27.4110   14.4040 C.3    86  GLU86       0.0429
     66  CG         8.0510   26.5040   15.6020 C.3    86  GLU86       0.1163
     67  CD         7.0390   26.7580   16.7040 C.2    86  GLU86       0.3649
     68  OE1        6.2300   27.7110   16.5750 O.co2  86  GLU86      -0.2457
     69  OE2        7.0590   26.0000   17.6980 O.co2  86  GLU86      -0.2457
     70  N         10.1710   25.1770   13.7190 N.am   87  TYR87      -0.1960
     71  CA        10.4130   23.7430   13.6960 C.3    87  TYR87       0.1771
     72  C          9.7200   23.0560   14.8730 C.2    87  TYR87       0.2619
     73  O          9.8420   23.4870   16.0250 O.2    87  TYR87      -0.2715
     74  CB        11.9070   23.4500   13.7300 C.3    87  TYR87       0.0574
     75  CG        12.2200   21.9770   13.7290 C.ar   87  TYR87      -0.0198
     76  CD1       11.6420   21.1280   12.7940 C.ar   87  TYR87      -0.0009
     77  CD2       13.1080   21.4320   14.6530 C.ar   87  TYR87      -0.0009
     78  CE1       11.9320   19.7680   12.7850 C.ar   87  TYR87       0.0417
     79  CE2       13.4070   20.0700   14.6490 C.ar   87  TYR87       0.0417
     80  CZ        12.8150   19.2450   13.7120 C.ar   87  TYR87       0.1957
     81  OH        13.1050   17.8960   13.6980 O.3    87  TYR87      -0.2866
     82  N          8.9770   21.9950   14.5780 N.am   88  ALA88      -0.1964
     83  CA         8.3830   21.1810   15.6260 C.3    88  ALA88       0.1713
     84  C          9.1130   19.8510   15.6410 C.2    88  ALA88       0.2458
     85  O          8.8840   18.9930   14.7770 O.2    88  ALA88      -0.2730
     86  CB         6.8990   20.9760   15.3680 C.3    88  ALA88       0.0333
     87  N          9.9800   19.6700   16.6470 N.am   89  PRO89      -0.2716
     88  CA        10.9780   18.5980   16.7150 C.3    89  PRO89       0.1536
     89  C         10.3790   17.2030   16.7060 C.2    89  PRO89       0.2598
     90  O         10.9810   16.2770   16.1500 O.2    89  PRO89      -0.2715
     91  CB        11.6520   18.8430   18.0670 C.3    89  PRO89       0.0310
     92  CG        11.4250   20.2990   18.3510 C.3    89  PRO89       0.0237
     93  CD        10.0640   20.5750   17.8070 C.3    89  PRO89       0.0939
     94  N          9.2160   17.0460   17.3280 N.am   90  LEU90      -0.1964
     95  CA         8.7150   15.7050   17.6180 C.3    90  LEU90       0.1728
     96  C          7.7530   15.1820   16.5940 C.2    90  LEU90       0.2617
     97  O          7.2870   14.0530   16.7120 O.2    90  LEU90      -0.2715
     98  CB         8.1190   15.6310   19.0250 C.3    90  LEU90       0.0311
     99  CG         9.0200   16.4380   19.9690 C.3    90  LEU90       0.0022
    100  CD1        8.3630   17.8170   20.0790 C.3    90  LEU90       0.0001
    101  CD2        9.2220   15.8400   21.3190 C.3    90  LEU90       0.0001
    102  N          7.4700   15.9980   15.5850 N.am   91  GLY91      -0.1940
    103  CA         6.6990   15.5480   14.4400 C.3    91  GLY91       0.2014
    104  C          5.1890   15.5620   14.5950 C.2    91  GLY91       0.2639
    105  O          4.6230   16.4050   15.2900 O.2    91  GLY91      -0.2714
    106  N          4.5430   14.5990   13.9460 N.am   92  THR92      -0.1950
    107  CA         3.0890   14.5850   13.7920 C.3    92  THR92       0.1897
    108  C          2.3620   13.7160   14.8200 C.2    92  THR92       0.2313
    109  O          2.8390   12.6410   15.2060 O.2    92  THR92      -0.2863
    110  CB         2.6910   14.1140   12.3820 C.3    92  THR92       0.1794
    111  OG1        3.2050   12.7980   12.1420 O.3    92  THR92      -0.2208
    112  CG2        3.2460   15.0600   11.3360 C.3    92  THR92       0.0378
    113  N          1.8650   10.1280   13.4820 N.3    95  ARG95      -0.1245
    114  CA         2.8740    9.1070   13.7090 C.3    95  ARG95       0.1563
    115  C          2.6470    8.5400   15.1050 C.2    95  ARG95       0.2260
    116  O          2.6800    7.3240   15.3120 O.2    95  ARG95      -0.2867
    117  CB         4.2880    9.6910   13.5790 C.3    95  ARG95       0.0307
    118  CG         4.7720   10.4740   14.8020 C.3    95  ARG95       0.0489
    119  CD         6.0720   11.2180   14.5110 C.3    95  ARG95       0.2205
    120  NE         6.9930   10.4120   13.7090 N.pl3  95  ARG95      -0.0865
    121  CZ         8.3130   10.3810   13.8750 C.cat  95  ARG95       0.5346
    122  NH1        8.8880   11.1110   14.8240 N.pl3  95  ARG95       0.1354
    123  NH2        9.0590    9.6160   13.0900 N.pl3  95  ARG95       0.1354
    124  N         -2.6440   14.7010   11.0050 N.3   135  GLU135     -0.1231
    125  CA        -1.5050   14.8200   10.1080 C.3   135  GLU135      0.1699
    126  C         -0.9850   16.2580   10.0170 C.2   135  GLU135      0.2592
    127  O          0.1810   16.4740    9.6910 O.2   135  GLU135     -0.2718
    128  CB        -1.8820   14.2920    8.7150 C.3   135  GLU135      0.0402
    129  CG        -2.6240   12.9520    8.7250 C.3   135  GLU135      0.1161
    130  CD        -4.1330   13.1240    8.7810 C.2   135  GLU135      0.3649
    131  OE1       -4.8520   12.1210    8.9860 O.co2 135  GLU135     -0.2457
    132  OE2       -4.6000   14.2700    8.6260 O.co2 135  GLU135     -0.2457
    133  N         -1.8590   17.2350   10.2530 N.am  136  ASN136     -0.1974
    134  CA        -1.4720   18.6450   10.2150 C.3   136  ASN136      0.1688
    135  C         -1.1110   19.1720   11.5950 C.2   136  ASN136      0.2292
    136  O         -0.7430   20.3350   11.7480 O.2   136  ASN136     -0.2864
    137  CB        -2.5880   19.5070    9.6110 C.3   136  ASN136      0.1181
    138  CG        -3.1850   18.9000    8.3580 C.2   136  ASN136      0.2629
    139  OD1       -4.4090   18.8950    8.1820 O.2   136  ASN136     -0.2716
    140  ND2       -2.3270   18.3800    7.4790 N.am  136  ASN136     -0.0877
    141  N          1.2770   19.0680   14.9280 N.3   138  LEU138     -0.1245
    142  CA         2.6740   18.7700   15.1980 C.3   138  LEU138      0.1561
    143  C          2.9610   18.8600   16.6880 C.2   138  LEU138      0.2260
    144  O          2.1620   19.4070   17.4500 O.2   138  LEU138     -0.2867
    145  CB         3.5830   19.7280   14.4220 C.3   138  LEU138      0.0270
    146  CG         3.5120   19.6290   12.9010 C.3   138  LEU138      0.0019
    147  CD1        4.0210   20.9020   12.2460 C.3   138  LEU138      0.0001
    148  CD2        4.2730   18.4020   12.4050 C.3   138  LEU138      0.0001
    149  N         -0.5110   23.2700   12.4100 N.3   148  ALA148     -0.1245
    150  CA         0.2930   23.6770   11.2670 C.3   148  ALA148      0.1562
    151  C         -0.6240   24.2490   10.1990 C.2   148  ALA148      0.2260
    152  O         -0.5210   25.4230    9.8410 O.2   148  ALA148     -0.2867
    153  CB         1.0760   22.5030   10.7230 C.3   148  ALA148      0.0290
    154  N          1.4250   18.0070    3.2960 N.3   154  VAL154     -0.1231
    155  CA         2.7080   17.3160    3.3280 C.3   154  VAL154      0.1692
    156  C          2.6190   16.1240    4.2810 C.2   154  VAL154      0.2592
    157  O          1.9910   16.2100    5.3350 O.2   154  VAL154     -0.2718
    158  CB         3.8360   18.2410    3.8110 C.3   154  VAL154      0.0266
    159  CG1        4.2660   19.2010    2.7090 C.3   154  VAL154      0.0020
    160  CG2        3.4070   19.0010    5.0660 C.3   154  VAL154      0.0020
    161  N          3.2520   15.0170    3.9080 N.am  155  HIS155     -0.1962
    162  CA         3.3290   13.8590    4.7830 C.3   155  HIS155      0.1787
    163  C          4.7780   13.4720    5.0600 C.2   155  HIS155      0.2620
    164  O          5.6980   14.0180    4.4530 O.2   155  HIS155     -0.2715
    165  CB         2.5830   12.6740    4.1620 C.3   155  HIS155      0.0785
    166  CG         1.9690   12.9670    2.8320 C.ar  155  HIS155      0.0821
    167  ND1        0.6530   13.2210    2.6620 N.ar  155  HIS155     -0.2267
    168  CD2        2.5430   13.0330    1.5820 C.ar  155  HIS155      0.1154
    169  CE1        0.3860   13.4450    1.3670 C.ar  155  HIS155      0.1986
    170  NE2        1.5410   13.3280    0.7220 N.ar  155  HIS155     -0.2212
    171  N          4.9670   12.5060    5.9520 N.am  156  ALA156     -0.1977
    172  CA         6.2880   11.9790    6.2710 C.3   156  ALA156      0.1597
    173  C          6.3260   10.5000    5.9140 C.2   156  ALA156      0.2287
    174  O          5.5590    9.7060    6.4700 O.2   156  ALA156     -0.2864
    175  CB         6.6120   12.1840    7.7450 C.3   156  ALA156      0.0319
@<TRIPOS>BOND
     1   170   169   ar
     2   170   168   ar
     3   169   167   ar
     4   168   166   ar
     5    39    38    2
     6    38    37    1
     7   167   166   ar
     8   159   158    1
     9    24    25    1
    10   166   165    1
    11    23    22    2
    12    22    21    1
    13    37    40    1
    14    37    36    1
    15   154   155    1
    16   155   158    1
    17   155   156    1
    18    41    40    1
    19    41    42    1
    20   158   160    1
    21   161   156   am
    22   161   162    1
    23    25    26    1
    24    25    28    1
    25    42    43    1
    26    43    44    1
    27   165   162    1
    28   156   157    2
    29    26    27    2
    30   164   163    2
    31    21    20    1
    32    30    28    1
    33   162   163    1
    34     3     2    1
    35     3     4    2
    36   163   171   am
    37     2     1    1
    38     2     5    1
    39    28    29    1
    40    20    14   am
    41    12    13    1
    42   173   172    1
    43   173   174    2
    44   171   172    1
    45     5     6    1
    46   172   175    1
    47    14    15    2
    48    14    13    1
    49    13    16    1
    50     6     7    1
    51   140   138   am
    52    59    58    1
    53    33    34    2
    54    33    32    1
    55    16    17    1
    56    58    60    1
    57    58    57    1
    58   139   138    2
    59     7     8    1
    60   138   137    1
    61    17    18    1
    62    17    19    1
    63   132   130   ar
    64    53    54    1
    65   128   129    1
    66   128   125    1
    67   129   130    1
    68   130   131   ar
    69    10     9    1
    70    32    35    1
    71    32    31    1
    72    57    54    1
    73     8     9    2
    74   137   134    1
    75    54    55    1
    76   127   126    2
    77     9    11    1
    78   152   151    2
    79   126   125    1
    80   126   133   am
    81   125   124    1
    82   151   150    1
    83   134   133    1
    84   134   135    1
    85   153   150    1
    86    55    56    2
    87    55    61   am
    88   150   149    1
    89   112   110    1
    90   135   136    2
    91    52    50    1
    92    61    62    1
    93   111   110    1
    94   147   146    1
    95   110   107    1
    96   148   146    1
    97    64    63    2
    98    78    76   ar
    99    78    80   ar
   100    76    75   ar
   101    48    47    2
   102   146   145    1
   103    50    49    1
   104    50    51    1
   105   123   121    1
   106    63    62    1
   107    63    70   am
   108    62    65    1
   109    49    46    1
   110   113   114    1
   111   117   114    1
   112   117   118    1
   113    71    70    1
   114    71    74    1
   115    71    72    1
   116    81    80    1
   117   120   121    2
   118   120   119    1
   119   114   115    1
   120    80    79   ar
   121    75    74    1
   122    75    77   ar
   123    47    46    1
   124   107   106    1
   125   107   108    1
   126   121   122    1
   127   106   104   am
   128    65    66    1
   129    46    45    1
   130   145   142    1
   131   103   104    1
   132   103   102    1
   133   119   118    1
   134    82    72   am
   135    82    83    1
   136   104   105    2
   137    79    77   ar
   138    85    84    2
   139   108   109    2
   140    72    73    2
   141   141   142    1
   142   115   116    2
   143   142   143    1
   144    86    83    1
   145   102    96   am
   146    66    67    1
   147    83    84    1
   148    84    87   am
   149    90    89    2
   150    68    67   ar
   151    96    97    2
   152    96    95    1
   153    87    88    1
   154    87    93    1
   155   143   144    2
   156    67    69   ar
   157    89    88    1
   158    89    94   am
   159    88    91    1
   160    94    95    1
   161    95    98    1
   162    93    92    1
   163    91    92    1
   164    98    99    1
   165    99   100    1
   166    99   101    1
