@<TRIPOS>MOLECULE
tmp/3uolA00.pdb
 180 170 0 0 0
SMALL
GASTEIGER

@<TRIPOS>ATOM
      1  N        -19.3550   31.0640   -5.8990 N.3    11  ARG11      -0.1245
      2  CA       -20.6290   30.7270   -5.2650 C.3    11  ARG11       0.1563
      3  C        -20.7810   29.2330   -4.9890 C.2    11  ARG11       0.2260
      4  O        -20.1320   28.3860   -5.6300 O.2    11  ARG11      -0.2867
      5  CB       -21.7940   31.1860   -6.1450 C.3    11  ARG11       0.0307
      6  CG       -21.7360   30.6180   -7.5550 C.3    11  ARG11       0.0489
      7  CD       -22.7580   31.2850   -8.4640 C.3    11  ARG11       0.2205
      8  NE       -22.5820   30.8780   -9.8560 N.pl3  11  ARG11      -0.0865
      9  CZ       -23.3170   29.9540  -10.4660 C.cat  11  ARG11       0.5346
     10  NH1      -24.2990   29.3470   -9.8090 N.pl3  11  ARG11       0.1354
     11  NH2      -23.0770   29.6490  -11.7390 N.pl3  11  ARG11       0.1354
     12  N        -22.5380   26.0650   -5.8560 N.3    13  LEU13      -0.1231
     13  CA       -23.3550   25.5700   -6.9570 C.3    13  LEU13       0.1693
     14  C        -24.4880   24.7200   -6.4090 C.2    13  LEU13       0.2592
     15  O        -25.6010   24.7310   -6.9350 O.2    13  LEU13      -0.2718
     16  CB       -22.5160   24.7460   -7.9230 C.3    13  LEU13       0.0284
     17  CG       -21.2350   25.3820   -8.4370 C.3    13  LEU13       0.0019
     18  CD1      -20.3870   24.3570   -9.1880 C.3    13  LEU13       0.0001
     19  CD2      -21.5840   26.5860   -9.3060 C.3    13  LEU13       0.0001
     20  N        -24.1950   23.9880   -5.3380 N.am   14  GLY14      -0.1957
     21  CA       -25.2150   23.2590   -4.6270 C.3    14  GLY14       0.1869
     22  C        -24.8880   23.0480   -3.1720 C.2    14  GLY14       0.2309
     23  O        -23.7260   23.0610   -2.7700 O.2    14  GLY14      -0.2863
     24  N        -20.9020   22.0630   -2.8930 N.3    21  VAL21      -0.1245
     25  CA       -20.0440   22.1130   -4.0660 C.3    21  VAL21       0.1561
     26  C        -19.8730   23.5730   -4.4500 C.2    21  VAL21       0.2260
     27  O        -20.8580   24.2530   -4.6990 O.2    21  VAL21      -0.2867
     28  CB       -20.6960   21.3980   -5.2790 C.3    21  VAL21       0.0252
     29  CG1      -19.7410   21.3690   -6.4460 C.3    21  VAL21       0.0019
     30  CG2      -21.1370   19.9900   -4.9080 C.3    21  VAL21       0.0019
     31  N        -15.0380   22.4980  -10.1280 N.3    34  ALA34      -0.1245
     32  CA       -15.9870   22.4930   -9.0320 C.3    34  ALA34       0.1562
     33  C        -15.3400   21.8490   -7.8080 C.2    34  ALA34       0.2260
     34  O        -14.7440   20.7690   -7.8860 O.2    34  ALA34      -0.2867
     35  CB       -17.2850   21.7630   -9.4250 C.3    34  ALA34       0.0290
     36  N        -15.9070   20.1390   -4.3310 N.3    36  LYS36      -0.1245
     37  CA       -16.9290   19.5540   -3.4780 C.3    36  LYS36       0.1561
     38  C        -16.3880   19.4200   -2.0510 C.2    36  LYS36       0.2260
     39  O        -15.3080   18.8800   -1.8180 O.2    36  LYS36      -0.2867
     40  CB       -17.4080   18.2290   -4.0420 C.3    36  LYS36       0.0271
     41  CG       -18.6090   17.5940   -3.3520 C.3    36  LYS36       0.0035
     42  CD       -19.5870   17.0230   -4.4120 C.3    36  LYS36       0.0206
     43  CE       -20.4350   15.8680   -3.9000 C.3    36  LYS36       0.1093
     44  NZ       -21.3310   15.2840   -4.9470 N.3    36  LYS36      -0.1314
     45  N        -18.8540   12.7370  -15.0810 N.3    68  LEU68      -0.1245
     46  CA       -18.1040   13.8320  -14.4710 C.3    68  LEU68       0.1561
     47  C        -16.7700   13.3250  -13.9420 C.2    68  LEU68       0.2260
     48  O        -16.7330   12.3490  -13.2040 O.2    68  LEU68      -0.2867
     49  CB       -18.9070   14.4830  -13.3490 C.3    68  LEU68       0.0270
     50  CG       -18.4940   15.9360  -13.0660 C.3    68  LEU68       0.0019
     51  CD1      -18.9320   16.8930  -14.2100 C.3    68  LEU68       0.0001
     52  CD2      -19.0260   16.4270  -11.7120 C.3    68  LEU68       0.0001
     53  N        -13.4350   18.4120   -8.7120 N.3    84  LEU84      -0.1231
     54  CA       -14.2260   17.8820   -9.8280 C.3    84  LEU84       0.1693
     55  C        -14.2310   18.7550  -11.0960 C.2    84  LEU84       0.2592
     56  O        -14.0520   19.9730  -11.0410 O.2    84  LEU84      -0.2718
     57  CB       -15.6850   17.6660   -9.4000 C.3    84  LEU84       0.0284
     58  CG       -15.9670   16.9170   -8.0980 C.3    84  LEU84       0.0019
     59  CD1      -17.3760   17.1880   -7.6520 C.3    84  LEU84       0.0001
     60  CD2      -15.7330   15.4320   -8.2570 C.3    84  LEU84       0.0001
     61  N        -14.4670   18.1060  -12.2280 N.am   85  GLU85      -0.1966
     62  CA       -14.7170   18.8010  -13.4730 C.3    85  GLU85       0.1733
     63  C        -15.9640   19.6410  -13.3220 C.2    85  GLU85       0.2616
     64  O        -16.9390   19.2080  -12.6980 O.2    85  GLU85      -0.2715
     65  CB       -14.8700   17.7890  -14.6030 C.3    85  GLU85       0.0429
     66  CG       -15.9750   18.0780  -15.5990 C.3    85  GLU85       0.1163
     67  CD       -15.9840   17.1020  -16.7870 C.2    85  GLU85       0.3649
     68  OE1      -15.5180   15.9370  -16.6670 O.co2  85  GLU85      -0.2457
     69  OE2      -16.4750   17.5100  -17.8570 O.co2  85  GLU85      -0.2457
     70  N        -15.9370   20.8520  -13.8740 N.am   86  TYR86      -0.1960
     71  CA       -17.0630   21.7750  -13.7290 C.3    86  TYR86       0.1771
     72  C        -17.9970   21.6690  -14.9140 C.2    86  TYR86       0.2619
     73  O        -17.5330   21.6730  -16.0470 O.2    86  TYR86      -0.2715
     74  CB       -16.5500   23.2060  -13.5990 C.3    86  TYR86       0.0574
     75  CG       -17.6020   24.2960  -13.7670 C.ar   86  TYR86      -0.0198
     76  CD1      -18.6540   24.4280  -12.8670 C.ar   86  TYR86      -0.0009
     77  CD2      -17.4930   25.2390  -14.8070 C.ar   86  TYR86      -0.0009
     78  CE1      -19.6060   25.4330  -13.0230 C.ar   86  TYR86       0.0417
     79  CE2      -18.4320   26.2610  -14.9700 C.ar   86  TYR86       0.0417
     80  CZ       -19.4870   26.3510  -14.0860 C.ar   86  TYR86       0.1957
     81  OH       -20.4120   27.3650  -14.2670 O.3    86  TYR86      -0.2866
     82  N        -19.3020   21.5920  -14.6490 N.am   87  ALA87      -0.1964
     83  CA       -20.3160   21.4860  -15.7070 C.3    87  ALA87       0.1713
     84  C        -21.1850   22.7120  -15.7430 C.2    87  ALA87       0.2458
     85  O        -22.0630   22.8850  -14.8780 O.2    87  ALA87      -0.2730
     86  CB       -21.1930   20.2750  -15.4860 C.3    87  ALA87       0.0333
     87  N        -20.9600   23.5550  -16.7620 N.am   88  PRO88      -0.2716
     88  CA       -21.5110   24.9090  -16.9030 C.3    88  PRO88       0.1536
     89  C        -23.0330   25.0160  -16.9750 C.2    88  PRO88       0.2598
     90  O        -23.5550   26.0450  -16.5210 O.2    88  PRO88      -0.2715
     91  CB       -20.8670   25.4080  -18.2010 C.3    88  PRO88       0.0310
     92  CG       -19.5700   24.6660  -18.2710 C.3    88  PRO88       0.0237
     93  CD       -19.9020   23.2960  -17.7600 C.3    88  PRO88       0.0939
     94  N        -23.7360   24.0200  -17.5140 N.am   89  LEU89      -0.1964
     95  CA       -25.1830   24.1810  -17.6170 C.3    89  LEU89       0.1728
     96  C        -25.9670   23.6680  -16.4350 C.2    89  LEU89       0.2617
     97  O        -27.1730   23.9310  -16.3340 O.2    89  LEU89      -0.2715
     98  CB       -25.7340   23.6290  -18.9150 C.3    89  LEU89       0.0311
     99  CG       -25.3670   24.4630  -20.1380 C.3    89  LEU89       0.0022
    100  CD1      -25.1200   25.9300  -19.7470 C.3    89  LEU89       0.0001
    101  CD2      -24.1530   23.8540  -20.8420 C.3    89  LEU89       0.0001
    102  N        -25.2920   22.9560  -15.5330 N.am   90  GLY90      -0.1940
    103  CA       -25.9740   22.4520  -14.3630 C.3    90  GLY90       0.2014
    104  C        -26.7780   21.2140  -14.7000 C.2    90  GLY90       0.2639
    105  O        -26.3530   20.4020  -15.5200 O.2    90  GLY90      -0.2714
    106  N        -27.9450   21.0930  -14.0780 N.am   91  THR91      -0.1950
    107  CA       -28.6330   19.8160  -13.9670 C.3    91  THR91       0.1897
    108  C        -29.8200   19.6470  -14.8970 C.2    91  THR91       0.2313
    109  O        -30.6270   20.5490  -15.0770 O.2    91  THR91      -0.2863
    110  CB       -29.1560   19.5800  -12.5570 C.3    91  THR91       0.1794
    111  OG1      -30.3020   20.4040  -12.3410 O.3    91  THR91      -0.2208
    112  CG2      -28.0810   19.8740  -11.4940 C.3    91  THR91       0.0378
    113  N        -33.0930   21.0050  -13.5980 N.3    94  ARG94      -0.1245
    114  CA       -33.5300   22.4010  -13.6860 C.3    94  ARG94       0.1563
    115  C        -34.0620   22.6280  -15.0830 C.2    94  ARG94       0.2260
    116  O        -35.0980   23.2470  -15.2890 O.2    94  ARG94      -0.2867
    117  CB       -32.3650   23.3660  -13.4470 C.3    94  ARG94       0.0307
    118  CG       -32.6230   24.4140  -12.3500 C.3    94  ARG94       0.0489
    119  CD       -33.9890   25.1000  -12.4580 C.3    94  ARG94       0.2205
    120  NE       -34.0350   26.3680  -11.7180 N.pl3  94  ARG94      -0.0865
    121  CZ       -35.1130   27.1410  -11.6020 C.cat  94  ARG94       0.5346
    122  NH1      -36.2570   26.7790  -12.1700 N.pl3  94  ARG94       0.1354
    123  NH2      -35.0440   28.2770  -10.9130 N.pl3  94  ARG94       0.1354
    124  N        -31.5740   15.2260  -11.0320 N.3   134  GLU134     -0.1231
    125  CA       -30.7790   16.1410  -10.2110 C.3   134  GLU134      0.1699
    126  C        -29.2980   15.7470  -10.0970 C.2   134  GLU134      0.2592
    127  O        -28.4730   16.5650   -9.7110 O.2   134  GLU134     -0.2718
    128  CB       -31.3950   16.2340   -8.8110 C.3   134  GLU134      0.0402
    129  CG       -32.9130   16.0990   -8.7910 C.3   134  GLU134      0.1161
    130  CD       -33.3660   14.6440   -8.7010 C.2   134  GLU134      0.3649
    131  OE1      -34.3830   14.2720   -9.3360 O.co2 134  GLU134     -0.2457
    132  OE2      -32.7000   13.8760   -7.9750 O.co2 134  GLU134     -0.2457
    133  N        -28.9700   14.4920  -10.4000 N.am  135  ASN135     -0.1974
    134  CA       -27.5780   14.0240  -10.4320 C.3   135  ASN135      0.1688
    135  C        -26.9430   14.0400  -11.7930 C.2   135  ASN135      0.2292
    136  O        -25.8640   13.4590  -11.9780 O.2   135  ASN135     -0.2864
    137  CB       -27.4590   12.5710   -9.9000 C.3   135  ASN135      0.1181
    138  CG       -28.0060   12.4040   -8.4790 C.2   135  ASN135      0.2629
    139  OD1      -28.4110   13.2510   -7.8710 O.2   135  ASN135     -0.2716
    140  ND2      -27.9780   11.3250   -8.0100 N.am  135  ASN135     -0.0877
    141  N        -25.6750   16.2150  -15.0360 N.3   137  LEU137     -0.1245
    142  CA       -25.2230   17.5720  -15.2350 C.3   137  LEU137      0.1561
    143  C        -25.0300   17.7530  -16.7010 C.2   137  LEU137      0.2260
    144  O        -24.8780   16.7610  -17.4540 O.2   137  LEU137     -0.2867
    145  CB       -23.8990   17.8120  -14.5120 C.3   137  LEU137      0.0270
    146  CG       -23.9570   17.9140  -12.9950 C.3   137  LEU137      0.0019
    147  CD1      -22.5780   17.8090  -12.4400 C.3   137  LEU137      0.0001
    148  CD2      -24.6010   19.2140  -12.6420 C.3   137  LEU137      0.0001
    149  N        -23.2150   12.8360  -12.7700 N.3   147  ALA147     -0.1231
    150  CA       -22.4880   13.4160  -11.6460 C.3   147  ALA147      0.1694
    151  C        -22.2840   12.3730  -10.5780 C.2   147  ALA147      0.2592
    152  O        -21.1940   12.2070  -10.0330 O.2   147  ALA147     -0.2718
    153  CB       -23.2630   14.5820  -11.0800 C.3   147  ALA147      0.0304
    154  N        -23.3900   11.7220  -10.2440 N.am  148  ASP148     -0.1974
    155  CA       -23.4270   10.6700   -9.2260 C.3   148  ASP148      0.1709
    156  C        -22.5120   11.0200   -8.0390 C.2   148  ASP148      0.2293
    157  O        -22.4990   12.1500   -7.5380 O.2   148  ASP148     -0.2864
    158  CB       -23.0940    9.2890   -9.8070 C.3   148  ASP148      0.1436
    159  CG       -23.5360    8.1540   -8.8980 C.2   148  ASP148      0.3671
    160  OD1      -24.7520    7.9230   -8.8150 O.co2 148  ASP148     -0.2456
    161  OD2      -22.6820    7.4990   -8.2570 O.co2 148  ASP148     -0.2456
    162  N        -26.1920   16.8740   -3.7690 N.3   153  VAL153     -0.1245
    163  CA       -26.2430   18.3120   -3.5830 C.3   153  VAL153      0.1561
    164  C        -27.3790   18.8720   -4.4210 C.2   153  VAL153      0.2260
    165  O        -27.6650   18.3720   -5.5150 O.2   153  VAL153     -0.2867
    166  CB       -24.9380   18.9680   -3.9940 C.3   153  VAL153      0.0252
    167  CG1      -23.8690   18.7700   -2.8940 C.3   153  VAL153      0.0019
    168  CG2      -24.4910   18.3820   -5.2930 C.3   153  VAL153      0.0019
    169  N        -29.1130   22.5030   -6.0890 N.3   155  ALA155     -0.1231
    170  CA       -29.0990   23.9370   -6.3880 C.3   155  ALA155      0.1679
    171  C        -30.4580   24.5250   -6.0110 C.2   155  ALA155      0.2434
    172  O        -31.4850   23.8880   -6.2460 O.2   155  ALA155     -0.2733
    173  CB       -28.8140   24.1780   -7.8580 C.3   155  ALA155      0.0304
    174  N        -30.4840   25.7520   -5.4490 N.am  156  PRO156     -0.2729
    175  CA       -31.7480   26.2750   -4.8870 C.3   156  PRO156      0.1401
    176  C        -32.9480   26.3520   -5.8750 C.2   156  PRO156      0.2269
    177  O        -32.8480   26.9990   -6.9190 O.2   156  PRO156     -0.2865
    178  CB       -31.3560   27.6870   -4.4090 C.3   156  PRO156      0.0296
    179  CG       -30.0980   28.0290   -5.1830 C.3   156  PRO156      0.0237
    180  CD       -29.3810   26.7300   -5.3560 C.3   156  PRO156      0.0939
@<TRIPOS>BOND
     1   101    99    1
     2    99   100    1
     3    99    98    1
     4    98    95    1
     5    92    91    1
     6    92    93    1
     7    91    88    1
     8    69    67   ar
     9    93    87    1
    10    95    94    1
    11    95    96    1
    12    94    89   am
    13   144   143    2
    14    89    88    1
    15    89    90    2
    16    88    87    1
    17    67    68   ar
    18    67    66    1
    19    87    84   am
    20   143   142    1
    21    96    97    2
    22    96   102   am
    23    73    72    2
    24    84    83    1
    25    84    85    2
    26    83    86    1
    27    83    82    1
    28    66    65    1
    29   102   103    1
    30   105   104    2
    31   116   115    2
    32   142   141    1
    33   142   145    1
    34   115   114    1
    35    45    46    1
    36   109   108    2
    37    79    77   ar
    38    79    80   ar
    39    72    82   am
    40    72    71    1
    41   108   107    1
    42    77    75   ar
    43   104   103    1
    44   104   106   am
    45    65    62    1
    46   145   146    1
    47    46    47    1
    48    46    49    1
    49    81    80    1
    50    51    50    1
    51    80    78   ar
    52   106   107    1
    53   107   110    1
    54    47    48    2
    55    70    71    1
    56    70    63   am
    57    75    74    1
    58    75    76   ar
    59    71    74    1
    60   114   113    1
    61   114   117    1
    62    62    63    1
    63    62    61    1
    64   117   118    1
    65    49    50    1
    66    63    64    2
    67    50    52    1
    68    78    76   ar
    69   146   148    1
    70   146   147    1
    71   149   150    1
    72   110   111    1
    73   110   112    1
    74   119   118    1
    75   119   120    1
    76    61    55   am
    77   122   121    1
    78   136   135    2
    79   135   134    1
    80    11     9    1
    81   120   121    2
    82   150   153    1
    83   150   151    1
    84   121   123    1
    85    55    56    2
    86    55    54    1
    87   124   125    1
    88   151   154   am
    89   151   152    2
    90     9     8    2
    91     9    10    1
    92   134   133    1
    93   134   137    1
    94   133   126   am
    95   154   155    1
    96   125   126    1
    97   125   128    1
    98    31    32    1
    99   126   127    2
   100   137   138    1
   101     8     7    1
   102    54    57    1
   103    54    53    1
   104   158   155    1
   105   158   159    1
   106    35    32    1
   107    57    58    1
   108   131   130   ar
   109    19    17    1
   110   155   156    1
   111    18    17    1
   112    32    33    1
   113   159   160   ar
   114   159   161   ar
   115   128   129    1
   116   129   130    1
   117   130   132   ar
   118   138   140   am
   119   138   139    2
   120     7     6    1
   121    17    16    1
   122    60    58    1
   123    58    59    1
   124   156   157    2
   125    16    13    1
   126    34    33    2
   127   173   170    1
   128     6     5    1
   129    13    14    1
   130    13    12    1
   131    15    14    2
   132   177   176    2
   133    29    28    1
   134    14    20   am
   135   170   169    1
   136   170   171    1
   137   172   171    2
   138     5     2    1
   139   171   174   am
   140     1     2    1
   141   176   175    1
   142     4     3    2
   143   165   164    2
   144   174   180    1
   145   174   175    1
   146   180   179    1
   147    20    21    1
   148   168   166    1
   149    28    30    1
   150    28    25    1
   151     2     3    1
   152   179   178    1
   153    44    43    1
   154   175   178    1
   155    27    26    2
   156    21    22    1
   157    26    25    1
   158   164   163    1
   159    42    43    1
   160    42    41    1
   161    36    37    1
   162    25    24    1
   163    40    37    1
   164    40    41    1
   165   166   163    1
   166   166   167    1
   167   162   163    1
   168    37    38    1
   169    22    23    2
   170    38    39    2
