@<TRIPOS>MOLECULE
tmp/3uomD04.pdb
 96 92 0 0 0
SMALL
GASTEIGER

@<TRIPOS>ATOM
      1  N         37.6140  -20.5170   61.2590 N.3   137  ASN137     -0.1240
      2  CA        36.1740  -20.7150   61.3830 C.3   137  ASN137      0.1653
      3  C         35.3360  -19.6030   60.7660 C.2   137  ASN137      0.2266
      4  O         34.1240  -19.7270   60.6640 O.2   137  ASN137     -0.2867
      5  CB        35.7820  -20.8920   62.8490 C.3   137  ASN137      0.1155
      6  CG        36.1000  -22.2720   63.3560 C.2   137  ASN137      0.2627
      7  OD1       35.3620  -23.2150   63.0990 O.2   137  ASN137     -0.2716
      8  ND2       37.2190  -22.4060   64.0580 N.am  137  ASN137     -0.0877
      9  N         34.1480  -17.6240   57.6340 N.3   139  GLU139     -0.1231
     10  CA        34.1540  -17.7990   56.1830 C.3   139  GLU139      0.1699
     11  C         32.9980  -17.1770   55.4090 C.2   139  GLU139      0.2592
     12  O         32.8530  -17.4200   54.2100 O.2   139  GLU139     -0.2718
     13  CB        34.3200  -19.2740   55.8120 C.3   139  GLU139      0.0402
     14  CG        33.2080  -20.1880   56.2870 C.3   139  GLU139      0.1161
     15  CD        33.4240  -21.6230   55.8280 C.2   139  GLU139      0.3649
     16  OE1       34.5980  -22.0470   55.7180 O.co2 139  GLU139     -0.2457
     17  OE2       32.4260  -22.3220   55.5600 O.co2 139  GLU139     -0.2457
     18  N         32.1840  -16.3570   56.0590 N.am  140  ASP140     -0.1974
     19  CA        31.1140  -15.6960   55.3200 C.3   140  ASP140      0.1709
     20  C         31.6190  -14.4390   54.6100 C.2   140  ASP140      0.2293
     21  O         30.8480  -13.5270   54.3070 O.2   140  ASP140     -0.2864
     22  CB        29.9220  -15.3790   56.2360 C.3   140  ASP140      0.1436
     23  CG        30.2640  -14.3760   57.3080 C.2   140  ASP140      0.3671
     24  OD1       31.4620  -14.2490   57.6440 O.co2 140  ASP140     -0.2456
     25  OD2       29.3350  -13.7220   57.8250 O.co2 140  ASP140     -0.2456
     26  N         33.1980  -18.6440   51.8500 N.3   197  PHE197     -0.1241
     27  CA        32.7020  -20.0250   51.9540 C.3   197  PHE197      0.1605
     28  C         33.6350  -21.0610   51.3240 C.2   197  PHE197      0.2264
     29  O         33.1890  -22.1210   50.9030 O.2   197  PHE197     -0.2867
     30  CB        31.2920  -20.1400   51.3530 C.3   197  PHE197      0.0534
     31  CG        30.3260  -19.1580   51.9310 C.ar  197  PHE197     -0.0203
     32  CD1       29.7680  -19.3780   53.1750 C.ar  197  PHE197     -0.0042
     33  CD2       30.0010  -17.9970   51.2460 C.ar  197  PHE197     -0.0042
     34  CE1       28.8940  -18.4560   53.7320 C.ar  197  PHE197     -0.0003
     35  CE2       29.1300  -17.0730   51.7890 C.ar  197  PHE197     -0.0003
     36  CZ        28.5720  -17.3030   53.0400 C.ar  197  PHE197     -0.0000
     37  N         19.9290  -18.8710   58.5840 N.3   253  GLU253     -0.1245
     38  CA        21.0170  -19.6290   59.1560 C.3   253  GLU253      0.1567
     39  C         20.6250  -20.2350   60.5100 C.2   253  GLU253      0.2260
     40  O         21.1040  -21.3150   60.8730 O.2   253  GLU253     -0.2867
     41  CB        22.2400  -18.7140   59.2900 C.3   253  GLU253      0.0388
     42  CG        23.4820  -19.3740   59.8630 C.3   253  GLU253      0.1160
     43  CD        24.6590  -18.4050   59.9830 C.2   253  GLU253      0.3649
     44  OE1       24.5050  -17.2130   59.6320 O.co2 253  GLU253     -0.2457
     45  OE2       25.7390  -18.8410   60.4280 O.co2 253  GLU253     -0.2457
     46  N         19.7710  -23.6400   57.6100 N.3   259  PHE259     -0.1241
     47  CA        21.1590  -24.0640   57.7170 C.3   259  PHE259      0.1605
     48  C         21.4520  -25.2130   56.7610 C.2   259  PHE259      0.2264
     49  O         22.4910  -25.2290   56.0890 O.2   259  PHE259     -0.2867
     50  CB        21.4910  -24.4960   59.1430 C.3   259  PHE259      0.0534
     51  CG        22.9630  -24.6750   59.3830 C.ar  259  PHE259     -0.0203
     52  CD1       23.7280  -23.6190   59.8590 C.ar  259  PHE259     -0.0042
     53  CD2       23.5820  -25.8860   59.1270 C.ar  259  PHE259     -0.0042
     54  CE1       25.0860  -23.7650   60.0850 C.ar  259  PHE259     -0.0003
     55  CE2       24.9490  -26.0510   59.3540 C.ar  259  PHE259     -0.0003
     56  CZ        25.7020  -24.9880   59.8240 C.ar  259  PHE259     -0.0000
     57  N         21.8190  -23.7780   53.2890 N.3   262  LEU262     -0.1231
     58  CA        23.1080  -23.0970   53.2240 C.3   262  LEU262      0.1693
     59  C         24.2450  -24.0830   52.9590 C.2   262  LEU262      0.2591
     60  O         25.1130  -23.8500   52.1090 O.2   262  LEU262     -0.2718
     61  CB        23.3540  -22.3210   54.5350 C.3   262  LEU262      0.0284
     62  CG        24.6410  -21.4950   54.6090 C.3   262  LEU262      0.0019
     63  CD1       24.6970  -20.5020   53.4500 C.3   262  LEU262      0.0001
     64  CD2       24.7840  -20.7670   55.9770 C.3   262  LEU262      0.0001
     65  N         24.2480  -25.1920   53.6870 N.am  263  GLU263     -0.1979
     66  CA        25.2480  -26.2180   53.4500 C.3   263  GLU263      0.1602
     67  C         25.1850  -26.7080   52.0070 C.2   263  GLU263      0.2287
     68  O         26.2090  -26.9550   51.3790 O.2   263  GLU263     -0.2864
     69  CB        25.0600  -27.3690   54.4330 C.3   263  GLU263      0.0415
     70  CG        25.4720  -27.0000   55.8570 C.3   263  GLU263      0.1163
     71  CD        25.3310  -28.1690   56.8240 C.2   263  GLU263      0.3649
     72  OE1       24.2040  -28.6810   56.9750 O.co2 263  GLU263     -0.2457
     73  OE2       26.3440  -28.5760   57.4330 O.co2 263  GLU263     -0.2457
     74  N         26.6480  -24.1020   49.6380 N.3   266  LYS266     -0.1245
     75  CA        28.0990  -24.1810   49.7410 C.3   266  LYS266      0.1561
     76  C         28.6460  -25.3340   48.8980 C.2   266  LYS266      0.2260
     77  O         29.6880  -25.1980   48.2590 O.2   266  LYS266     -0.2867
     78  CB        28.5200  -24.3410   51.2080 C.3   266  LYS266      0.0271
     79  CG        29.9820  -24.6490   51.4040 C.3   266  LYS266      0.0035
     80  CD        30.4850  -24.0760   52.7310 C.3   266  LYS266      0.0206
     81  CE        31.8810  -24.5780   53.0760 C.3   266  LYS266      0.1093
     82  NZ        31.8850  -26.0180   53.4650 N.3   266  LYS266     -0.1314
     83  N         23.2540  -15.1150   48.7780 N.3   282  TRP282     -0.1241
     84  CA        22.5110  -15.6250   49.9270 C.3   282  TRP282      0.1605
     85  C         21.9960  -14.4530   50.7700 C.2   282  TRP282      0.2264
     86  O         22.7700  -13.6090   51.2250 O.2   282  TRP282     -0.2867
     87  CB        23.4010  -16.5570   50.7680 C.3   282  TRP282      0.0550
     88  CG        22.8540  -16.8100   52.1560 C.ar  282  TRP282      0.0003
     89  CD1       21.5470  -16.9900   52.4920 C.ar  282  TRP282      0.0946
     90  CD2       23.5940  -16.8660   53.3820 C.ar  282  TRP282      0.0152
     91  NE1       21.4240  -17.1860   53.8440 N.ar  282  TRP282     -0.2442
     92  CE2       22.6660  -17.1040   54.4170 C.ar  282  TRP282      0.0810
     93  CE3       24.9500  -16.7610   53.7050 C.ar  282  TRP282      0.0012
     94  CZ2       23.0520  -17.2170   55.7620 C.ar  282  TRP282      0.0191
     95  CZ3       25.3360  -16.8760   55.0460 C.ar  282  TRP282      0.0001
     96  CH2       24.3870  -17.1060   56.0540 C.ar  282  TRP282      0.0015
@<TRIPOS>BOND
     1    77    76    2
     2    83    84    1
     3    76    75    1
     4    74    75    1
     5    75    78    1
     6    84    87    1
     7    84    85    1
     8    87    88    1
     9    85    86    2
    10    29    28    2
    11    78    79    1
    12    33    35   ar
    13    33    31   ar
    14    28    27    1
    15    30    31    1
    16    30    27    1
    17    68    67    2
    18    79    80    1
    19    35    36   ar
    20    26    27    1
    21    31    32   ar
    22    67    66    1
    23    60    59    2
    24    88    89   ar
    25    88    90   ar
    26    89    91   ar
    27    80    81    1
    28    59    58    1
    29    59    65   am
    30    36    34   ar
    31    81    82    1
    32    32    34   ar
    33    58    57    1
    34    58    61    1
    35    90    93   ar
    36    90    92   ar
    37    63    62    1
    38    66    65    1
    39    66    69    1
    40    93    95   ar
    41    91    92   ar
    42    12    11    2
    43    21    20    2
    44    92    94   ar
    45    69    70    1
    46    61    62    1
    47    62    64    1
    48    20    19    1
    49    95    96   ar
    50    19    18    1
    51    19    22    1
    52    11    18   am
    53    11    10    1
    54    17    15   ar
    55    16    15   ar
    56    94    96   ar
    57    13    10    1
    58    13    14    1
    59    15    14    1
    60    70    71    1
    61    49    48    2
    62    10     9    1
    63    22    23    1
    64    48    47    1
    65    71    72   ar
    66    71    73   ar
    67    23    24   ar
    68    23    25   ar
    69    46    47    1
    70    47    50    1
    71    37    38    1
    72    53    55   ar
    73    53    51   ar
    74    50    51    1
    75    38    41    1
    76    38    39    1
    77    41    42    1
    78    55    56   ar
    79    51    52   ar
    80    44    43   ar
    81    56    54   ar
    82    52    54   ar
    83    42    43    1
    84    43    45   ar
    85    39    40    2
    86     4     3    2
    87     3     2    1
    88     1     2    1
    89     2     5    1
    90     5     6    1
    91     7     6    2
    92     6     8   am
