@<TRIPOS>MOLECULE
tmp/3uomD06.pdb
 96 91 0 0 0
SMALL
GASTEIGER

@<TRIPOS>ATOM
      1  N         26.5120   13.8030   53.3670 N.3    32  LEU32      -0.1245
      2  CA        25.2890   13.5590   52.6240 C.3    32  LEU32       0.1561
      3  C         25.1780   14.5140   51.4430 C.2    32  LEU32       0.2260
      4  O         24.9310   15.7050   51.6160 O.2    32  LEU32      -0.2867
      5  CB        24.1000   13.7480   53.5570 C.3    32  LEU32       0.0270
      6  CG        24.3920   13.0050   54.8630 C.3    32  LEU32       0.0019
      7  CD1       23.9160   13.7800   56.0820 C.3    32  LEU32       0.0001
      8  CD2       23.8240   11.5880   54.8220 C.3    32  LEU32       0.0001
      9  N         22.9900   15.4490   48.5130 N.3    34  HIS34      -0.1241
     10  CA        21.6140   15.2480   48.0720 C.3    34  HIS34       0.1621
     11  C         21.0620   16.4870   47.3770 C.2    34  HIS34       0.2264
     12  O         21.4750   17.6110   47.6620 O.2    34  HIS34      -0.2867
     13  CB        20.7290   14.9510   49.2720 C.3    34  HIS34       0.0745
     14  CG        20.4120   16.1670   50.0760 C.ar   34  HIS34       0.0817
     15  ND1       21.3910   16.9690   50.6210 N.ar   34  HIS34      -0.2268
     16  CD2       19.2290   16.7400   50.4030 C.ar   34  HIS34       0.1154
     17  CE1       20.8250   17.9770   51.2610 C.ar   34  HIS34       0.1986
     18  NE2       19.5130   17.8610   51.1450 N.ar   34  HIS34      -0.2212
     19  N         11.7670   14.4960   53.4450 N.3    47  PHE47      -0.1241
     20  CA        13.1770   14.7800   53.6390 C.3    47  PHE47       0.1605
     21  C         13.5020   14.9450   55.1160 C.2    47  PHE47       0.2264
     22  O         14.5750   14.5590   55.5700 O.2    47  PHE47      -0.2867
     23  CB        13.5950   16.0350   52.8860 C.3    47  PHE47       0.0534
     24  CG        14.9450   16.5500   53.2880 C.ar   47  PHE47      -0.0203
     25  CD1       16.0960   16.0650   52.6830 C.ar   47  PHE47      -0.0042
     26  CD2       15.0680   17.5030   54.2840 C.ar   47  PHE47      -0.0042
     27  CE1       17.3390   16.5300   53.0540 C.ar   47  PHE47      -0.0003
     28  CE2       16.3090   17.9720   54.6610 C.ar   47  PHE47      -0.0003
     29  CZ        17.4480   17.4860   54.0440 C.ar   47  PHE47      -0.0000
     30  N         13.5840   11.6110   56.8350 N.3    50  GLU50      -0.1231
     31  CA        14.7820   10.8840   56.4310 C.3    50  GLU50       0.1699
     32  C         16.0190   11.4500   57.1000 C.2    50  GLU50       0.2592
     33  O         16.9860   10.7300   57.3310 O.2    50  GLU50      -0.2718
     34  CB        14.9440   10.8950   54.9110 C.3    50  GLU50       0.0402
     35  CG        13.9190   10.0350   54.1770 C.3    50  GLU50       0.1161
     36  CD        13.9430   10.2500   52.6670 C.2    50  GLU50       0.3649
     37  OE1       14.7630   11.0720   52.1870 O.co2  50  GLU50      -0.2457
     38  OE2       13.1370    9.5930   51.9630 O.co2  50  GLU50      -0.2457
     39  N         15.9780   12.7400   57.4200 N.am   51  GLU51      -0.1979
     40  CA        17.0730   13.3950   58.1270 C.3    51  GLU51       0.1602
     41  C         17.2790   12.8210   59.5230 C.2    51  GLU51       0.2287
     42  O         18.3820   12.8800   60.0640 O.2    51  GLU51      -0.2864
     43  CB        16.8120   14.8990   58.2350 C.3    51  GLU51       0.0415
     44  CG        17.4520   15.7290   57.1530 C.3    51  GLU51       0.1163
     45  CD        18.9610   15.7950   57.2960 C.2    51  GLU51       0.3649
     46  OE1       19.6460   15.0010   56.6180 O.co2  51  GLU51      -0.2457
     47  OE2       19.4600   16.6400   58.0800 O.co2  51  GLU51      -0.2457
     48  N         20.4280   10.1840   59.8930 N.3    54  LEU54      -0.1245
     49  CA        21.7800   10.6930   60.0530 C.3    54  LEU54       0.1561
     50  C         21.9410   11.4910   61.3610 C.2    54  LEU54       0.2260
     51  O         23.0180   11.4900   61.9770 O.2    54  LEU54      -0.2867
     52  CB        22.1380   11.5280   58.8320 C.3    54  LEU54       0.0270
     53  CG        20.8690   11.7780   58.0130 C.3    54  LEU54       0.0019
     54  CD1       21.1700   12.6110   56.7920 C.3    54  LEU54       0.0001
     55  CD2       20.2220   10.4860   57.5770 C.3    54  LEU54       0.0001
     56  N         25.8300   17.9530   55.5820 N.3    70  LEU70      -0.1245
     57  CA        25.0270   17.9650   54.3650 C.3    70  LEU70       0.1561
     58  C         25.6970   18.8180   53.2990 C.2    70  LEU70       0.2260
     59  O         26.2290   19.8910   53.5870 O.2    70  LEU70      -0.2867
     60  CB        23.6310   18.5310   54.6360 C.3    70  LEU70       0.0270
     61  CG        22.5800   17.6390   55.2940 C.3    70  LEU70       0.0019
     62  CD1       21.4440   18.4780   55.8630 C.3    70  LEU70       0.0001
     63  CD2       22.0510   16.6200   54.3070 C.3    70  LEU70       0.0001
     64  N         22.0730   12.3180   46.0420 N.3    89  ASP89      -0.1225
     65  CA        21.4140   11.4580   47.0280 C.3    89  ASP89       0.1805
     66  C         22.2940   10.3020   47.4990 C.2    89  ASP89       0.2598
     67  O         21.8660    9.1520   47.4970 O.2    89  ASP89      -0.2718
     68  CB        20.0940   10.9100   46.4860 C.3    89  ASP89       0.1424
     69  CG        19.1140   12.0030   46.1370 C.2    89  ASP89       0.3668
     70  OD1       19.2250   13.1100   46.7150 O.co2  89  ASP89      -0.2456
     71  OD2       18.2350   11.7510   45.2830 O.co2  89  ASP89      -0.2456
     72  N         23.5210   10.6120   47.9040 N.am   90  SER90      -0.1938
     73  CA        24.4540    9.5820   48.3550 C.3    90  SER90       0.2055
     74  C         25.1940   10.0250   49.6070 C.2    90  SER90       0.2642
     75  O         25.2540   11.2200   49.9190 O.2    90  SER90      -0.2714
     76  CB        25.4720    9.2610   47.2580 C.3    90  SER90       0.2130
     77  OG        24.8290    8.7650   46.1030 O.3    90  SER90      -0.2179
     78  N         25.7660    9.0620   50.3200 N.am   91  MET91      -0.1976
     79  CA        26.6230    9.3830   51.4570 C.3    91  MET91       0.1605
     80  C         28.0600    8.9770   51.1620 C.2    91  MET91       0.2287
     81  O         28.3240    7.8480   50.7530 O.2    91  MET91      -0.2864
     82  CB        26.1210    8.7320   52.7480 C.3    91  MET91       0.0413
     83  CG        26.9470    9.1000   53.9890 C.3    91  MET91       0.0598
     84  SD        26.3980    8.3030   55.5320 S.3    91  MET91      -0.1393
     85  CE        27.1970    6.7080   55.3830 C.3    91  MET91       0.0692
     86  N         19.8490    2.2860   54.1760 N.3   106  PHE106     -0.1241
     87  CA        19.7720    3.6170   54.7610 C.3   106  PHE106      0.1605
     88  C         18.9940    3.5570   56.0690 C.2   106  PHE106      0.2264
     89  O         17.7920    3.8310   56.1150 O.2   106  PHE106     -0.2867
     90  CB        19.1620    4.6350   53.7930 C.3   106  PHE106      0.0534
     91  CG        19.3560    6.0610   54.2270 C.ar  106  PHE106     -0.0203
     92  CD1       20.6040    6.6510   54.1620 C.ar  106  PHE106     -0.0042
     93  CD2       18.2950    6.8020   54.7120 C.ar  106  PHE106     -0.0042
     94  CE1       20.7960    7.9580   54.5720 C.ar  106  PHE106     -0.0003
     95  CE2       18.4800    8.1120   55.1220 C.ar  106  PHE106     -0.0003
     96  CZ        19.7350    8.6870   55.0520 C.ar  106  PHE106     -0.0000
@<TRIPOS>BOND
     1    71    69   ar
     2    64    65    1
     3    77    76    1
     4    69    68    1
     5    69    70   ar
     6    68    65    1
     7    65    66    1
     8    76    73    1
     9    11    12    2
    10    11    10    1
    11    67    66    2
    12    66    72   am
    13    72    73    1
    14    10     9    1
    15    10    13    1
    16    73    74    1
    17    13    14    1
    18    74    75    2
    19    74    78   am
    20    14    16   ar
    21    14    15   ar
    22    78    79    1
    23    16    18   ar
    24    15    17   ar
    25    81    80    2
    26    18    17   ar
    27    80    79    1
    28     3     4    2
    29     3     2    1
    30    79    82    1
    31    38    36   ar
    32    37    36   ar
    33     2     1    1
    34     2     5    1
    35    36    35    1
    36    25    27   ar
    37    25    24   ar
    38    82    83    1
    39    23    24    1
    40    23    20    1
    41    27    29   ar
    42    24    26   ar
    43    58    59    2
    44    58    57    1
    45    19    20    1
    46     5     6    1
    47    20    21    1
    48    90    91    1
    49    90    87    1
    50    83    84    1
    51    29    28   ar
    52    92    91   ar
    53    92    94   ar
    54    86    87    1
    55    35    34    1
    56    91    93   ar
    57    26    28   ar
    58    63    61    1
    59    57    60    1
    60    57    56    1
    61    94    96   ar
    62    60    61    1
    63    93    95   ar
    64    87    88    1
    65     8     6    1
    66     6     7    1
    67    34    31    1
    68    96    95   ar
    69    21    22    2
    70    61    62    1
    71    85    84    1
    72    88    89    2
    73    31    30    1
    74    31    32    1
    75    46    45   ar
    76    54    53    1
    77    32    33    2
    78    32    39   am
    79    44    45    1
    80    44    43    1
    81    45    47   ar
    82    39    40    1
    83    55    53    1
    84    53    52    1
    85    40    43    1
    86    40    41    1
    87    52    49    1
    88    41    42    2
    89    48    49    1
    90    49    50    1
    91    50    51    2
