@<TRIPOS>MOLECULE
tmp/3uonA00.pdb
 180 176 0 0 0
SMALL
GASTEIGER

@<TRIPOS>ATOM
      1  N         19.4230    4.2180    1.2990 N.3    53  ILE53      -0.1245
      2  CA        18.6610    4.9830    0.3180 C.3    53  ILE53       0.1561
      3  C         19.3810    6.2840   -0.0340 C.2    53  ILE53       0.2260
      4  O         19.3890    6.7110   -1.1910 O.2    53  ILE53      -0.2867
      5  CB        17.2390    5.2980    0.8340 C.3    53  ILE53       0.0252
      6  CG1       16.3780    4.0320    0.8300 C.3    53  ILE53       0.0019
      7  CG2       16.5890    6.3930   -0.0000 C.3    53  ILE53       0.0019
      8  CD1       16.1900    3.4200   -0.5420 C.3    53  ILE53       0.0001
      9  N         17.2390   -1.3870   -3.4800 N.3    84  ASP84      -0.1225
     10  CA        16.1570   -0.4280   -3.2860 C.3    84  ASP84       0.1805
     11  C         14.8840   -1.0990   -2.7720 C.2    84  ASP84       0.2597
     12  O         14.3320   -0.6960   -1.7490 O.2    84  ASP84      -0.2718
     13  CB        15.8720    0.3220   -4.5910 C.3    84  ASP84       0.1424
     14  CG        14.8930    1.4670   -4.4090 C.2    84  ASP84       0.3668
     15  OD1       14.2770    1.5710   -3.3260 O.co2  84  ASP84      -0.2456
     16  OD2       14.7330    2.2610   -5.3600 O.co2  84  ASP84      -0.2456
     17  N         14.4240   -2.1230   -3.4840 N.am   85  TYR85      -0.1976
     18  CA        13.1960   -2.8200   -3.1100 C.3    85  TYR85       0.1639
     19  C         13.3420   -3.6510   -1.8370 C.2    85  TYR85       0.2290
     20  O         12.3940   -3.7760   -1.0610 O.2    85  TYR85      -0.2864
     21  CB        12.6830   -3.6820   -4.2670 C.3    85  TYR85       0.0560
     22  CG        11.9540   -2.8860   -5.3230 C.ar   85  TYR85      -0.0198
     23  CD1       12.6370   -1.9920   -6.1380 C.ar   85  TYR85      -0.0009
     24  CD2       10.5840   -3.0210   -5.5010 C.ar   85  TYR85      -0.0009
     25  CE1       11.9770   -1.2560   -7.1040 C.ar   85  TYR85       0.0417
     26  CE2        9.9140   -2.2920   -6.4660 C.ar   85  TYR85       0.0417
     27  CZ        10.6160   -1.4110   -7.2650 C.ar   85  TYR85       0.1957
     28  OH         9.9620   -0.6790   -8.2290 O.3    85  TYR85      -0.2866
     29  N         13.3320   -1.1360    1.0530 N.3    88  SER88      -0.1202
     30  CA        11.9940   -0.5600    1.1220 C.3    88  SER88       0.2020
     31  C         11.0350   -1.5220    1.8160 C.2    88  SER88       0.2618
     32  O         10.2370   -1.1130    2.6570 O.2    88  SER88      -0.2717
     33  CB        11.4800   -0.2060   -0.2750 C.3    88  SER88       0.2103
     34  OG        12.1910    0.8950   -0.8160 O.3    88  SER88      -0.2182
     35  N         11.1200   -2.8020    1.4610 N.am   89  ASN89      -0.1974
     36  CA        10.3120   -3.8350    2.1040 C.3    89  ASN89       0.1688
     37  C         10.6670   -3.9790    3.5820 C.2    89  ASN89       0.2292
     38  O          9.7920   -4.1540    4.4340 O.2    89  ASN89      -0.2864
     39  CB        10.4830   -5.1760    1.3890 C.3    89  ASN89       0.1181
     40  CG         9.4680   -6.2050    1.8330 C.2    89  ASN89       0.2629
     41  OD1        8.5150   -6.4960    1.1140 O.2    89  ASN89      -0.2716
     42  ND2        9.6650   -6.7620    3.0200 N.am   89  ASN89      -0.0877
     43  N          8.9360   -1.1050    5.4760 N.3    92  VAL92      -0.1245
     44  CA         7.5080   -1.2990    5.7010 C.3    92  VAL92       0.1561
     45  C          7.2410   -2.3960    6.7270 C.2    92  VAL92       0.2260
     46  O          6.2860   -2.3070    7.4960 O.2    92  VAL92      -0.2867
     47  CB         6.7460   -1.6030    4.3940 C.3    92  VAL92       0.0252
     48  CG1        6.9250   -0.4620    3.4060 C.3    92  VAL92       0.0019
     49  CG2        7.2100   -2.9200    3.7950 C.3    92  VAL92       0.0019
     50  N         12.4770  -10.2440   -2.4340 N.3   136  TRP136     -0.1241
     51  CA        12.8280   -9.3930   -3.5670 C.3   136  TRP136      0.1605
     52  C         14.1010   -9.8100   -4.3080 C.2   136  TRP136      0.2264
     53  O         14.0750  -10.0330   -5.5190 O.2   136  TRP136     -0.2867
     54  CB        12.9400   -7.9360   -3.1160 C.3   136  TRP136      0.0550
     55  CG        11.6230   -7.3160   -2.7520 C.ar  136  TRP136      0.0003
     56  CD1       11.1730   -7.0170   -1.4990 C.ar  136  TRP136      0.0946
     57  CD2       10.5900   -6.9220   -3.6590 C.ar  136  TRP136      0.0152
     58  NE1        9.9200   -6.4550   -1.5690 N.ar  136  TRP136     -0.2442
     59  CE2        9.5360   -6.3840   -2.8830 C.ar  136  TRP136      0.0810
     60  CE3       10.4440   -6.9640   -5.0490 C.ar  136  TRP136      0.0012
     61  CZ2        8.3610   -5.8980   -3.4530 C.ar  136  TRP136      0.0191
     62  CZ3        9.2770   -6.4820   -5.6140 C.ar  136  TRP136      0.0001
     63  CH2        8.2510   -5.9550   -4.8160 C.ar  136  TRP136      0.0015
     64  N          7.9660   -6.5160  -14.0120 N.3   162  PHE162     -0.1241
     65  CA         7.1030   -5.3450  -13.9020 C.3   162  PHE162      0.1605
     66  C          6.7300   -4.7720  -15.2670 C.2   162  PHE162      0.2264
     67  O          6.0400   -3.7550  -15.3510 O.2   162  PHE162     -0.2867
     68  CB         7.7620   -4.2550  -13.0530 C.3   162  PHE162      0.0534
     69  CG         7.6020   -4.4560  -11.5720 C.ar  162  PHE162     -0.0203
     70  CD1        6.9260   -5.5580  -11.0760 C.ar  162  PHE162     -0.0042
     71  CD2        8.1150   -3.5320  -10.6770 C.ar  162  PHE162     -0.0042
     72  CE1        6.7760   -5.7410   -9.7130 C.ar  162  PHE162     -0.0003
     73  CE2        7.9670   -3.7070   -9.3170 C.ar  162  PHE162     -0.0003
     74  CZ         7.2960   -4.8130   -8.8340 C.ar  162  PHE162     -0.0000
     75  N          2.6490   -5.3700  -11.7510 N.3   168  THR168     -0.1218
     76  CA         3.2080   -4.2900  -10.9480 C.3   168  THR168      0.1862
     77  C          2.1980   -3.7940   -9.9210 C.2   168  THR168      0.2287
     78  O          2.5370   -3.5850   -8.7560 O.2   168  THR168     -0.2866
     79  CB         3.6510   -3.1090  -11.8280 C.3   168  THR168      0.1770
     80  OG1        4.6070   -3.5630  -12.7940 O.3   168  THR168     -0.2211
     81  CG2        4.2750   -2.0150  -10.9790 C.3   168  THR168      0.0375
     82  N          1.6520   -6.4120   -7.2470 N.3   171  THR171     -0.1203
     83  CA         2.7750   -6.3930   -6.3200 C.3   171  THR171      0.1994
     84  C          2.6790   -5.2100   -5.3590 C.2   171  THR171      0.2617
     85  O          3.0140   -5.3280   -4.1810 O.2   171  THR171     -0.2717
     86  CB         4.1150   -6.3530   -7.0750 C.3   171  THR171      0.1784
     87  OG1        4.2430   -7.5370   -7.8730 O.3   171  THR171     -0.2211
     88  CG2        5.2780   -6.2830   -6.1010 C.3   171  THR171      0.0376
     89  N          2.2120   -4.0730   -5.8660 N.am  172  ALA172     -0.1979
     90  CA         2.0030   -2.8930   -5.0320 C.3   172  ALA172      0.1597
     91  C          1.0260   -3.1970   -3.9030 C.2   172  ALA172      0.2287
     92  O          1.2720   -2.8610   -2.7430 O.2   172  ALA172     -0.2864
     93  CB         1.4910   -1.7340   -5.8710 C.3   172  ALA172      0.0319
     94  N          2.6450   -5.6700   -1.3830 N.3   175  ALA175     -0.1231
     95  CA         3.8270   -5.1260   -0.7200 C.3   175  ALA175      0.1694
     96  C          3.5260   -3.8490    0.0600 C.2   175  ALA175      0.2592
     97  O          4.1280   -3.5960    1.1070 O.2   175  ALA175     -0.2718
     98  CB         4.9450   -4.8880   -1.7260 C.3   175  ALA175      0.0304
     99  N          2.5990   -3.0440   -0.4490 N.am  176  PHE176     -0.1976
    100  CA         2.3430   -1.7310    0.1360 C.3   176  PHE176      0.1639
    101  C          0.9410   -1.5690    0.7230 C.2   176  PHE176      0.2290
    102  O          0.7860   -1.2070    1.8880 O.2   176  PHE176     -0.2864
    103  CB         2.6050   -0.6300   -0.8950 C.3   176  PHE176      0.0560
    104  CG         2.3700    0.7580   -0.3710 C.ar  176  PHE176     -0.0200
    105  CD1        3.3330    1.3940    0.3920 C.ar  176  PHE176     -0.0042
    106  CD2        1.1860    1.4260   -0.6410 C.ar  176  PHE176     -0.0042
    107  CE1        3.1210    2.6680    0.8790 C.ar  176  PHE176     -0.0003
    108  CE2        0.9680    2.7010   -0.1570 C.ar  176  PHE176     -0.0003
    109  CZ         1.9380    3.3230    0.6040 C.ar  176  PHE176     -0.0000
    110  N          4.6380    7.9150    0.2440 N.3   382  TRP382     -0.1241
    111  CA         4.5520    6.6990   -0.5570 C.3   382  TRP382      0.1605
    112  C          3.2370    6.5840   -1.3300 C.2   382  TRP382      0.2264
    113  O          3.1890    5.9410   -2.3750 O.2   382  TRP382     -0.2867
    114  CB         4.7420    5.4650    0.3270 C.3   382  TRP382      0.0550
    115  CG         6.1500    5.2530    0.8100 C.ar  382  TRP382      0.0003
    116  CD1        6.9480    6.1590    1.4470 C.ar  382  TRP382      0.0946
    117  CD2        6.9090    4.0440    0.7140 C.ar  382  TRP382      0.0152
    118  NE1        8.1650    5.5900    1.7440 N.ar  382  TRP382     -0.2442
    119  CE2        8.1670    4.2920    1.3070 C.ar  382  TRP382      0.0810
    120  CE3        6.6540    2.7770    0.1830 C.ar  382  TRP382      0.0012
    121  CZ2        9.1620    3.3200    1.3780 C.ar  382  TRP382      0.0191
    122  CZ3        7.6420    1.8140    0.2540 C.ar  382  TRP382      0.0001
    123  CH2        8.8820    2.0900    0.8470 C.ar  382  TRP382      0.0015
    124  N          3.2150    7.8350   -5.1920 N.3   385  TYR385     -0.1227
    125  CA         3.8010    6.8700   -6.1110 C.3   385  TYR385      0.1736
    126  C          2.8880    5.6720   -6.3570 C.2   385  TYR385      0.2595
    127  O          2.6620    5.2740   -7.4950 O.2   385  TYR385     -0.2718
    128  CB         5.1550    6.3860   -5.5960 C.3   385  TYR385      0.0548
    129  CG         5.8370    5.4450   -6.5550 C.ar  385  TYR385     -0.0200
    130  CD1        6.7770    5.9100   -7.4650 C.ar  385  TYR385     -0.0009
    131  CD2        5.5250    4.0920   -6.5660 C.ar  385  TYR385     -0.0009
    132  CE1        7.3960    5.0520   -8.3500 C.ar  385  TYR385      0.0417
    133  CE2        6.1390    3.2260   -7.4480 C.ar  385  TYR385      0.0417
    134  CZ         7.0750    3.7110   -8.3380 C.ar  385  TYR385      0.1957
    135  OH         7.6910    2.8530   -9.2200 O.3   385  TYR385     -0.2866
    136  N          2.3660    5.0990   -5.2800 N.am  386  ASN386     -0.1974
    137  CA         1.5420    3.9010   -5.3780 C.3   386  ASN386      0.1688
    138  C          0.1800    4.1460   -6.0230 C.2   386  ASN386      0.2292
    139  O         -0.3220    3.2930   -6.7550 O.2   386  ASN386     -0.2864
    140  CB         1.3810    3.2370   -4.0080 C.3   386  ASN386      0.1181
    141  CG         2.6550    2.5740   -3.5310 C.2   386  ASN386      0.2629
    142  OD1        2.8700    1.3820   -3.7600 O.2   386  ASN386     -0.2716
    143  ND2        3.5110    3.3420   -2.8640 N.am  386  ASN386     -0.0877
    144  N          0.8000    4.1300   -9.5680 N.3   389  VAL389     -0.1245
    145  CA         0.7850    2.7870  -10.1270 C.3   389  VAL389      0.1561
    146  C         -0.6500    2.3680  -10.4330 C.2   389  VAL389      0.2260
    147  O         -0.9510    1.9070  -11.5310 O.2   389  VAL389     -0.2867
    148  CB         1.4230    1.7750   -9.1600 C.3   389  VAL389      0.0252
    149  CG1        1.2010    0.3510   -9.6500 C.3   389  VAL389      0.0019
    150  CG2        2.9060    2.0710   -8.9870 C.3   389  VAL389      0.0019
    151  N          9.0410    9.2760   -7.2100 N.3   408  TYR408     -0.1241
    152  CA        10.2690    8.6330   -6.7460 C.3   408  TYR408      0.1605
    153  C         10.9630    9.4350   -5.6540 C.2   408  TYR408      0.2264
    154  O         11.3880    8.8830   -4.6380 O.2   408  TYR408     -0.2867
    155  CB        11.2370    8.4120   -7.9110 C.3   408  TYR408      0.0534
    156  CG        11.2390    7.0000   -8.4440 C.ar  408  TYR408     -0.0201
    157  CD1       12.1260    6.0530   -7.9500 C.ar  408  TYR408     -0.0009
    158  CD2       10.3500    6.6110   -9.4370 C.ar  408  TYR408     -0.0009
    159  CE1       12.1330    4.7560   -8.4330 C.ar  408  TYR408      0.0417
    160  CE2       10.3480    5.3140   -9.9300 C.ar  408  TYR408      0.0417
    161  CZ        11.2420    4.3910   -9.4230 C.ar  408  TYR408      0.1957
    162  OH        11.2430    3.1020   -9.9100 O.3   408  TYR408     -0.2866
    163  N          9.1340    9.3010   -2.1810 N.3   411  CYS411     -0.1221
    164  CA         9.4890    8.0640   -1.4960 C.3   411  CYS411      0.1808
    165  C         10.9030    8.1410   -0.9350 C.2   411  CYS411      0.2601
    166  O         11.1850    7.6240    0.1460 O.2   411  CYS411     -0.2717
    167  CB         9.3690    6.8690   -2.4450 C.3   411  CYS411      0.0970
    168  SG         7.6860    6.5170   -2.9870 S.3   411  CYS411     -0.0800
    169  N         11.7910    8.7920   -1.6770 N.am  412  TYR412     -0.1976
    170  CA        13.1860    8.8940   -1.2660 C.3   412  TYR412      0.1639
    171  C         13.3690    9.8250   -0.0680 C.2   412  TYR412      0.2290
    172  O         13.9320    9.4270    0.9540 O.2   412  TYR412     -0.2864
    173  CB        14.0700    9.3400   -2.4370 C.3   412  TYR412      0.0560
    174  CG        14.3580    8.2480   -3.4450 C.ar  412  TYR412     -0.0198
    175  CD1       14.2110    6.9090   -3.1060 C.ar  412  TYR412     -0.0009
    176  CD2       14.7790    8.5550   -4.7340 C.ar  412  TYR412     -0.0009
    177  CE1       14.4740    5.9050   -4.0230 C.ar  412  TYR412      0.0417
    178  CE2       15.0430    7.5570   -5.6580 C.ar  412  TYR412      0.0417
    179  CZ        14.8900    6.2350   -5.2970 C.ar  412  TYR412      0.1957
    180  OH        15.1500    5.2400   -6.2120 O.3   412  TYR412     -0.2866
@<TRIPOS>BOND
     1    67    66    2
     2    66    65    1
     3    64    65    1
     4    65    68    1
     5    68    69    1
     6    80    79    1
     7    79    81    1
     8    79    76    1
     9    75    76    1
    10    69    70   ar
    11    69    71   ar
    12   147   146    2
    13    70    72   ar
    14    76    77    1
    15    71    73   ar
    16   146   145    1
    17   145   144    1
    18   145   148    1
    19   160   158   ar
    20   160   161   ar
    21    77    78    2
    22   162   161    1
    23    72    74   ar
    24   149   148    1
    25   158   156   ar
    26   161   159   ar
    27    73    74   ar
    28   135   134    1
    29   148   150    1
    30   156   157   ar
    31   156   155    1
    32   159   157   ar
    33   132   134   ar
    34   132   130   ar
    35   134   133   ar
    36    28    27    1
    37   155   152    1
    38    87    86    1
    39   127   126    2
    40   130   129   ar
    41   133   131   ar
    42    27    25   ar
    43    27    26   ar
    44    82    83    1
    45   151   152    1
    46    25    23   ar
    47    86    83    1
    48    86    88    1
    49   139   138    2
    50   152   153    1
    51   131   129   ar
    52   129   128    1
    53    26    24   ar
    54   126   125    1
    55   126   136   am
    56    83    84    1
    57   180   179    1
    58    23    22   ar
    59   125   128    1
    60   125   124    1
    61   138   137    1
    62    93    90    1
    63    89    84   am
    64    89    90    1
    65   178   179   ar
    66   178   176   ar
    67   153   154    2
    68    62    60   ar
    69    62    63   ar
    70    53    52    2
    71    24    22   ar
    72   137   136    1
    73   137   140    1
    74    16    14   ar
    75    84    85    2
    76    22    21    1
    77   179   177   ar
    78    60    57   ar
    79    90    91    1
    80    63    61   ar
    81   176   174   ar
    82    13    14    1
    83    13    10    1
    84    14    15   ar
    85    52    51    1
    86    21    18    1
    87   177   175   ar
    88   140   141    1
    89    91    92    2
    90   142   141    2
    91    57    59   ar
    92    57    55   ar
    93    51    54    1
    94    51    50    1
    95   141   143   am
    96    17    18    1
    97    17    11   am
    98     9    10    1
    99    61    59   ar
   100   174   175   ar
   101   174   173    1
   102    10    11    1
   103    54    55    1
   104    18    19    1
   105   168   167    1
   106    59    58   ar
   107    11    12    2
   108    55    56   ar
   109   167   164    1
   110   173   170    1
   111   113   112    2
   112   163   164    1
   113    19    20    2
   114    98    95    1
   115   169   170    1
   116   169   165   am
   117    58    56   ar
   118   164   165    1
   119    94    95    1
   120   112   111    1
   121   170   171    1
   122     4     3    2
   123   165   166    2
   124   103   104    1
   125   103   100    1
   126    34    33    1
   127    95    96    1
   128   106   104   ar
   129   106   108   ar
   130   111   110    1
   131   111   114    1
   132     8     6    1
   133    99    96   am
   134    99   100    1
   135   104   105   ar
   136    33    30    1
   137   108   109   ar
   138   171   172    2
   139     3     2    1
   140     7     5    1
   141    96    97    2
   142   100   101    1
   143   120   122   ar
   144   120   117   ar
   145   122   123   ar
   146     2     5    1
   147     2     1    1
   148   114   115    1
   149   105   107   ar
   150   109   107   ar
   151   117   115   ar
   152   117   119   ar
   153   101   102    2
   154   115   116   ar
   155     6     5    1
   156   123   121   ar
   157    29    30    1
   158    41    40    2
   159    30    31    1
   160   119   121   ar
   161   119   118   ar
   162    39    40    1
   163    39    36    1
   164   116   118   ar
   165    35    31   am
   166    35    36    1
   167    31    32    2
   168    40    42   am
   169    36    37    1
   170    48    47    1
   171    37    38    2
   172    49    47    1
   173    47    44    1
   174    43    44    1
   175    44    45    1
   176    45    46    2
