@<TRIPOS>MOLECULE
tmp/3uotA00.pdb
 89 85 0 0 0
SMALL
GASTEIGER

@<TRIPOS>ATOM
      1  N          5.5540   24.1440   27.0790 N.3    40  ARG40      -0.1245
      2  CA         5.7460   22.9180   27.8330 C.3    40  ARG40       0.1563
      3  C          7.1110   22.8670   28.5050 C.2    40  ARG40       0.2260
      4  O          7.2760   22.1940   29.5110 O.2    40  ARG40      -0.2867
      5  CB         5.5220   21.6950   26.9370 C.3    40  ARG40       0.0307
      6  CG         5.6600   20.3700   27.6610 C.3    40  ARG40       0.0489
      7  CD         4.8760   19.2500   26.9870 C.3    40  ARG40       0.2205
      8  NE         4.9060   19.3300   25.5270 N.pl3  40  ARG40      -0.0865
      9  CZ         5.8910   18.8890   24.7530 C.cat  40  ARG40       0.5346
     10  NH1        6.9580   18.3180   25.2890 N.pl3  40  ARG40       0.1354
     11  NH2        5.8050   19.0310   23.4370 N.pl3  40  ARG40       0.1354
     12  N          1.1860   17.2240   27.2750 N.3    50  PRO50      -0.2102
     13  CA         1.7060   16.8360   25.9590 C.3    50  PRO50       0.1504
     14  C          1.0810   17.6100   24.7900 C.2    50  PRO50       0.2576
     15  O          1.7240   17.7470   23.7490 O.2    50  PRO50      -0.2718
     16  CB         1.4080   15.3190   25.8740 C.3    50  PRO50       0.0282
     17  CG         0.4490   15.0230   26.9750 C.3    50  PRO50       0.0208
     18  CD         0.7030   16.0560   28.0390 C.3    50  PRO50       0.0893
     19  N         -0.1200   18.1660   24.9770 N.am   51  SER51      -0.1938
     20  CA        -0.7740   18.9210   23.9040 C.3    51  SER51       0.2055
     21  C         -0.3000   20.3990   23.8130 C.2    51  SER51       0.2643
     22  O         -0.6480   21.1210   22.8860 O.2    51  SER51      -0.2714
     23  CB        -2.2820   18.8680   24.0840 C.3    51  SER51       0.2130
     24  OG        -2.6530   19.4770   25.2990 O.3    51  SER51      -0.2179
     25  N          0.4880   20.8350   24.7740 N.am   52  ILE52      -0.1963
     26  CA         0.9980   22.2000   24.7440 C.3    52  ILE52       0.1727
     27  C          2.3540   22.1560   24.0320 C.2    52  ILE52       0.2617
     28  O          3.1990   21.3100   24.3390 O.2    52  ILE52      -0.2715
     29  CB         1.1340   22.7700   26.1640 C.3    52  ILE52       0.0290
     30  CG1       -0.2430   22.8870   26.8370 C.3    52  ILE52       0.0022
     31  CG2        1.9350   24.0620   26.1500 C.3    52  ILE52       0.0023
     32  CD1       -1.1560   23.9540   26.2530 C.3    52  ILE52       0.0001
     33  N          2.5440   23.0460   23.0640 N.am   53  SER53      -0.1936
     34  CA         3.8180   23.1380   22.3520 C.3    53  SER53       0.2055
     35  C          4.9700   23.5290   23.2790 C.2    53  SER53       0.2643
     36  O          4.7750   24.2290   24.2650 O.2    53  SER53      -0.2714
     37  CB         3.7070   24.0440   21.1130 C.3    53  SER53       0.2130
     38  OG         3.0450   23.3530   20.0390 O.3    53  SER53      -0.2179
     39  N          6.1620   23.0200   22.9820 N.am   54  LYS54      -0.1963
     40  CA         7.3750   23.3350   23.7570 C.3    54  LYS54       0.1728
     41  C          7.5390   24.8380   23.9530 C.2    54  LYS54       0.2616
     42  O          7.8340   25.3050   25.0610 O.2    54  LYS54      -0.2715
     43  CB         8.6050   22.7520   23.0640 C.3    54  LYS54       0.0311
     44  CG         8.6890   21.2520   23.2240 C.3    54  LYS54       0.0038
     45  CD         9.8890   20.6290   22.5070 C.3    54  LYS54       0.0206
     46  CE         9.4600   19.9060   21.2340 C.3    54  LYS54       0.1093
     47  NZ         9.1850   20.8140   20.0840 N.3    54  LYS54      -0.1314
     48  N          7.3440   25.5740   22.8590 N.am   55  GLN55      -0.1977
     49  CA         7.1760   27.0220   22.8760 C.3    55  GLN55       0.1601
     50  C          5.8470   27.2930   22.1900 C.2    55  GLN55       0.2287
     51  O          5.7300   27.2140   20.9710 O.2    55  GLN55      -0.2864
     52  CB         8.3160   27.7170   22.1250 C.3    55  GLN55       0.0394
     53  CG         8.8090   28.9790   22.8060 C.3    55  GLN55       0.0908
     54  CD         9.9850   28.7260   23.7460 C.2    55  GLN55       0.2608
     55  OE1       10.9650   29.4870   23.7400 O.2    55  GLN55      -0.2717
     56  NE2        9.9000   27.6550   24.5610 N.am   55  GLN55      -0.0878
     57  N          3.4620   29.5170   16.5040 N.3    74  GLY74      -0.1225
     58  CA         3.3150   28.4080   15.5580 C.3    74  GLY74       0.1811
     59  C          3.1530   27.1120   16.3190 C.2    74  GLY74       0.2280
     60  O          3.7380   26.0880   15.9540 O.2    74  GLY74      -0.2866
     61  N          1.4940   23.6580   17.7460 N.3    76  LEU76      -0.1231
     62  CA         0.8100   22.5730   17.0660 C.3    76  LEU76       0.1693
     63  C         -0.7130   22.6930   17.1440 C.2    76  LEU76       0.2592
     64  O         -1.3880   22.6250   16.1250 O.2    76  LEU76      -0.2718
     65  CB         1.2760   21.2020   17.5990 C.3    76  LEU76       0.0284
     66  CG         0.7100   19.9790   16.8580 C.3    76  LEU76       0.0019
     67  CD1        1.1230   19.9860   15.3920 C.3    76  LEU76       0.0001
     68  CD2        1.1330   18.6810   17.5200 C.3    76  LEU76       0.0001
     69  N         -1.2430   22.8850   18.3470 N.am   77  ASN77      -0.1974
     70  CA        -2.6850   22.8300   18.5640 C.3    77  ASN77       0.1688
     71  C         -3.3600   24.1960   18.6630 C.2    77  ASN77       0.2292
     72  O         -4.5530   24.2840   18.9130 O.2    77  ASN77      -0.2864
     73  CB        -2.9510   22.0380   19.8210 C.3    77  ASN77       0.1181
     74  CG        -2.6600   20.5700   19.6320 C.2    77  ASN77       0.2629
     75  OD1       -3.2400   19.9470   18.7660 O.2    77  ASN77      -0.2716
     76  ND2       -1.7690   20.0190   20.4440 N.am   77  ASN77      -0.0877
     77  N         -4.1680   25.3430   23.1460 N.3   105  ALA105     -0.1231
     78  CA        -4.6280   23.9610   22.8610 C.3   105  ALA105      0.1694
     79  C         -5.9930   23.8270   23.5170 C.2   105  ALA105      0.2592
     80  O         -6.8780   24.6000   23.1750 O.2   105  ALA105     -0.2718
     81  CB        -3.6350   22.9060   23.3420 C.3   105  ALA105      0.0304
     82  N         -6.1840   22.9240   24.4720 N.am  106  ASP106     -0.1974
     83  CA        -7.4990   22.8030   25.1380 C.3   106  ASP106      0.1709
     84  C         -7.4670   23.3380   26.5710 C.2   106  ASP106      0.2293
     85  O         -8.2800   22.9390   27.4070 O.2   106  ASP106     -0.2864
     86  CB        -8.0000   21.3340   25.1490 C.3   106  ASP106      0.1436
     87  CG        -7.0240   20.3720   25.8440 C.2   106  ASP106      0.3671
     88  OD1       -5.8870   20.7880   26.1510 O.co2 106  ASP106     -0.2456
     89  OD2       -7.3870   19.1680   26.0350 O.co2 106  ASP106     -0.2456
@<TRIPOS>BOND
     1    67    66    1
     2    58    59    1
     3    58    57    1
     4    60    59    2
     5    64    63    2
     6    66    68    1
     7    66    65    1
     8    62    63    1
     9    62    65    1
    10    62    61    1
    11    63    69   am
    12    69    70    1
    13    70    71    1
    14    70    73    1
    15    71    72    2
    16    75    74    2
    17    74    73    1
    18    74    76   am
    19    38    37    1
    20    47    46    1
    21    51    50    2
    22    37    34    1
    23    46    45    1
    24    52    53    1
    25    52    49    1
    26    50    49    1
    27    34    33    1
    28    34    35    1
    29    45    44    1
    30    53    54    1
    31    48    49    1
    32    48    41   am
    33    78    77    1
    34    78    81    1
    35    78    79    1
    36    22    21    2
    37    39    35   am
    38    39    40    1
    39    43    44    1
    40    43    40    1
    41    33    27   am
    42    80    79    2
    43    35    36    2
    44    11     9    1
    45    79    82   am
    46    55    54    2
    47    54    56   am
    48    15    14    2
    49    40    41    1
    50    21    20    1
    51    21    25   am
    52    20    23    1
    53    20    19    1
    54    41    42    2
    55    27    28    2
    56    27    26    1
    57    23    24    1
    58    82    83    1
    59    26    25    1
    60    26    29    1
    61     9    10    1
    62     9     8    2
    63    14    19   am
    64    14    13    1
    65    83    86    1
    66    83    84    1
    67    86    87    1
    68     8     7    1
    69    87    89   ar
    70    87    88   ar
    71    16    13    1
    72    16    17    1
    73    13    12    1
    74    31    29    1
    75    29    30    1
    76    32    30    1
    77    84    85    2
    78     5     6    1
    79     5     2    1
    80    17    18    1
    81     7     6    1
    82     1     2    1
    83    12    18    1
    84     2     3    1
    85     3     4    2
