@<TRIPOS>MOLECULE
tmp/3uowB00.pdb
 117 114 0 0 0
SMALL
GASTEIGER

@<TRIPOS>ATOM
      1  N        -21.7760   29.5840   44.4400 N.3   288  ARG288     -0.1245
      2  CA       -20.9780   29.8950   45.6240 C.3   288  ARG288      0.1563
      3  C        -21.8250   30.0260   46.8860 C.2   288  ARG288      0.2260
      4  O        -21.4880   29.4520   47.9240 O.2   288  ARG288     -0.2867
      5  CB       -20.1620   31.1680   45.3980 C.3   288  ARG288      0.0307
      6  CG       -18.7600   30.9100   44.8980 C.3   288  ARG288      0.0489
      7  CD       -18.0050   32.2030   44.6770 C.3   288  ARG288      0.2205
      8  NE       -17.9610   32.5710   43.2680 N.pl3 288  ARG288     -0.0865
      9  CZ       -16.9750   32.2460   42.4340 C.cat 288  ARG288      0.5346
     10  NH1      -15.9350   31.5420   42.8570 N.pl3 288  ARG288      0.1354
     11  NH2      -17.0320   32.6280   41.1710 N.pl3 288  ARG288      0.1354
     12  N         -3.1040   26.6870   45.4460 N.3   361  PRO361     -0.2102
     13  CA        -4.3600   26.9290   46.1510 C.3   361  PRO361      0.1504
     14  C         -5.5440   26.3230   45.4050 C.2   361  PRO361      0.2576
     15  O         -5.5320   26.2380   44.1740 O.2   361  PRO361     -0.2718
     16  CB        -4.4710   28.4620   46.1700 C.3   361  PRO361      0.0282
     17  CG        -3.5460   28.9400   45.1100 C.3   361  PRO361      0.0208
     18  CD        -2.4350   27.9470   45.0710 C.3   361  PRO361      0.0893
     19  N         -6.5450   25.8950   46.1590 N.am  362  PHE362     -0.1963
     20  CA        -7.7500   25.3280   45.5970 C.3   362  PHE362      0.1756
     21  C         -8.9630   26.0330   46.2090 C.2   362  PHE362      0.2461
     22  O         -9.1210   26.0400   47.4320 O.2   362  PHE362     -0.2730
     23  CB        -7.7900   23.8230   45.8610 C.3   362  PHE362      0.0574
     24  CG        -8.8910   23.1010   45.1360 C.ar  362  PHE362     -0.0200
     25  CD1       -8.8340   22.9120   43.7520 C.ar  362  PHE362     -0.0042
     26  CD2       -9.9830   22.5900   45.8360 C.ar  362  PHE362     -0.0042
     27  CE1       -9.8490   22.2260   43.0790 C.ar  362  PHE362     -0.0003
     28  CE2      -11.0020   21.9070   45.1710 C.ar  362  PHE362     -0.0003
     29  CZ       -10.9320   21.7260   43.7880 C.ar  362  PHE362     -0.0000
     30  N         -9.8180   26.6420   45.3580 N.am  363  PRO363     -0.2716
     31  CA       -10.9690   27.4290   45.8310 C.3   363  PRO363      0.1536
     32  C        -11.9820   26.5950   46.6170 C.2   363  PRO363      0.2599
     33  O        -12.0990   25.3880   46.3890 O.2   363  PRO363     -0.2715
     34  CB       -11.5960   27.9540   44.5300 C.3   363  PRO363      0.0310
     35  CG       -11.1400   27.0060   43.4740 C.3   363  PRO363      0.0237
     36  CD        -9.7620   26.5860   43.8840 C.3   363  PRO363      0.0939
     37  N        -12.6950   27.2470   47.5380 N.am  364  GLY364     -0.1941
     38  CA       -13.7090   26.5900   48.3830 C.3   364  GLY364      0.1998
     39  C        -14.8310   25.8570   47.6410 C.2   364  GLY364      0.2480
     40  O        -15.1460   24.7170   47.9820 O.2   364  GLY364     -0.2729
     41  N        -15.4480   26.5120   46.6280 N.am  365  PRO365     -0.2726
     42  CA       -16.4760   25.8770   45.7960 C.3   365  PRO365      0.1402
     43  C        -15.9480   24.7830   44.8500 C.2   365  PRO365      0.2269
     44  O        -16.7460   24.0920   44.2140 O.2   365  PRO365     -0.2865
     45  CB       -17.0310   27.0480   44.9810 C.3   365  PRO365      0.0296
     46  CG       -15.9420   28.0520   44.9740 C.3   365  PRO365      0.0237
     47  CD       -15.3230   27.9470   46.3160 C.3   365  PRO365      0.0939
     48  N        -17.1270   25.9850   40.1060 N.3   369  ILE369     -0.1245
     49  CA       -16.7990   27.2060   39.3650 C.3   369  ILE369      0.1561
     50  C        -15.8220   26.9480   38.2060 C.2   369  ILE369      0.2260
     51  O        -15.4100   27.8810   37.5050 O.2   369  ILE369     -0.2867
     52  CB       -16.2390   28.3170   40.2890 C.3   369  ILE369      0.0252
     53  CG1      -14.9960   27.8200   41.0450 C.3   369  ILE369      0.0019
     54  CG2      -17.3340   28.8280   41.2390 C.3   369  ILE369      0.0019
     55  CD1      -14.0030   28.9140   41.3920 C.3   369  ILE369      0.0001
     56  N         -0.4550   28.6510   40.1640 N.3   405  GLN405     -0.1245
     57  CA        -1.7580   27.9750   40.1660 C.3   405  GLN405      0.1566
     58  C         -2.1150   27.4370   38.7850 C.2   405  GLN405      0.2260
     59  O         -2.0510   28.1650   37.7900 O.2   405  GLN405     -0.2867
     60  CB        -2.8460   28.9310   40.6380 C.3   405  GLN405      0.0367
     61  CG        -4.1800   28.2710   40.9090 C.3   405  GLN405      0.0905
     62  CD        -5.1380   29.1850   41.6310 C.2   405  GLN405      0.2608
     63  OE1       -6.2300   28.7710   42.0200 O.2   405  GLN405     -0.2717
     64  NE2       -4.7360   30.4410   41.8200 N.am  405  GLN405     -0.0878
     65  N         -3.0620   39.0770   45.1460 N.3   432  PHE432     -0.1241
     66  CA        -4.4750   38.7030   44.9690 C.3   432  PHE432      0.1605
     67  C         -5.1230   39.2980   43.7120 C.2   432  PHE432      0.2264
     68  O         -5.9880   38.6640   43.0960 O.2   432  PHE432     -0.2867
     69  CB        -5.2940   39.0900   46.2040 C.3   432  PHE432      0.0534
     70  CG        -6.7260   38.5370   46.1350 C.ar  432  PHE432     -0.0203
     71  CD1       -6.9350   37.1620   46.2430 C.ar  432  PHE432     -0.0042
     72  CD2       -7.8220   39.3710   45.9650 C.ar  432  PHE432     -0.0042
     73  CE1       -8.2000   36.6120   46.1340 C.ar  432  PHE432     -0.0003
     74  CE2       -9.0890   38.8100   45.8940 C.ar  432  PHE432     -0.0003
     75  CZ        -9.2900   37.4460   45.9600 C.ar  432  PHE432     -0.0000
     76  N         -4.3310   38.8370   34.5510 N.3   469  LYS469     -0.1245
     77  CA        -5.0880   39.6150   35.5280 C.3   469  LYS469      0.1561
     78  C         -4.2820   40.8460   35.9450 C.2   469  LYS469      0.2260
     79  O         -3.1920   40.7040   36.5110 O.2   469  LYS469     -0.2867
     80  CB        -5.4380   38.7630   36.7590 C.3   469  LYS469      0.0271
     81  CG        -6.1990   39.5330   37.8460 C.3   469  LYS469      0.0035
     82  CD        -6.7950   38.6180   38.8880 C.3   469  LYS469      0.0206
     83  CE        -7.8080   39.3710   39.7380 C.3   469  LYS469      0.1093
     84  NZ        -8.6110   38.4690   40.6080 N.3   469  LYS469     -0.1314
     85  N         -9.7950   37.3870   35.1310 N.3   473  THR473     -0.1203
     86  CA        -9.5670   36.8070   36.4550 C.3   473  THR473      0.1994
     87  C         -8.8680   35.4570   36.2970 C.2   473  THR473      0.2618
     88  O         -8.7420   34.9500   35.1790 O.2   473  THR473     -0.2717
     89  CB       -10.8890   36.6370   37.2500 C.3   473  THR473      0.1784
     90  OG1      -11.8440   35.9150   36.4620 O.3   473  THR473     -0.2211
     91  CG2      -11.4720   37.9970   37.6370 C.3   473  THR473      0.0376
     92  N         -8.3990   34.8840   37.4070 N.am  474  ILE474     -0.1965
     93  CA        -7.7500   33.5680   37.3780 C.3   474  ILE474      0.1727
     94  C         -8.7680   32.4680   37.0470 C.2   474  ILE474      0.2616
     95  O         -8.5470   31.6650   36.1350 O.2   474  ILE474     -0.2715
     96  CB        -6.9980   33.2480   38.7030 C.3   474  ILE474      0.0290
     97  CG1       -5.8800   34.2740   38.9460 C.3   474  ILE474      0.0022
     98  CG2       -6.4340   31.8210   38.6770 C.3   474  ILE474      0.0023
     99  CD1       -5.2000   34.1700   40.3210 C.3   474  ILE474      0.0001
    100  N         -9.8770   32.4460   37.7850 N.am  475  GLU475     -0.1977
    101  CA       -10.9610   31.5030   37.5200 C.3   475  GLU475      0.1602
    102  C        -11.8810   32.0600   36.4390 C.2   475  GLU475      0.2287
    103  O        -11.9040   33.2700   36.1940 O.2   475  GLU475     -0.2864
    104  CB       -11.7590   31.1960   38.7950 C.3   475  GLU475      0.0415
    105  CG       -10.9550   30.5360   39.9280 C.3   475  GLU475      0.1163
    106  CD       -10.6940   29.0400   39.7210 C.2   475  GLU475      0.3649
    107  OE1      -11.1980   28.4550   38.7350 O.co2 475  GLU475     -0.2457
    108  OE2       -9.9780   28.4470   40.5610 O.co2 475  GLU475     -0.2457
    109  N        -15.4030   31.5310   36.3660 N.3   477  GLU477     -0.1245
    110  CA       -16.6530   31.9800   36.9880 C.3   477  GLU477      0.1567
    111  C        -16.4060   32.8760   38.1920 C.2   477  GLU477      0.2260
    112  O        -15.4670   32.6590   38.9550 O.2   477  GLU477     -0.2867
    113  CB       -17.5160   30.7810   37.3890 C.3   477  GLU477      0.0388
    114  CG       -18.0280   29.9730   36.2010 C.3   477  GLU477      0.1160
    115  CD       -19.2710   29.1530   36.5190 C.2   477  GLU477      0.3649
    116  OE1      -19.2930   28.4550   37.5630 O.co2 477  GLU477     -0.2457
    117  OE2      -20.2270   29.1990   35.7120 O.co2 477  GLU477     -0.2457
@<TRIPOS>BOND
     1    76    77    1
     2    85    86    1
     3    88    87    2
     4    77    78    1
     5    77    80    1
     6   117   115   ar
     7    78    79    2
     8    95    94    2
     9   103   102    2
    10   114   115    1
    11   114   113    1
    12    87    86    1
    13    87    92   am
    14   109   110    1
    15   102   101    1
    16    86    89    1
    17    90    89    1
    18   115   116   ar
    19    80    81    1
    20   110   113    1
    21   110   111    1
    22    94    93    1
    23    94   100   am
    24    89    91    1
    25    93    92    1
    26    93    96    1
    27    51    50    2
    28   101   100    1
    29   101   104    1
    30    59    58    2
    31    81    82    1
    32   111   112    2
    33    50    49    1
    34    98    96    1
    35    96    97    1
    36   107   106   ar
    37    58    57    1
    38   104   105    1
    39    82    83    1
    40    97    99    1
    41    49    48    1
    42    49    52    1
    43   106   105    1
    44   106   108   ar
    45    83    84    1
    46    56    57    1
    47    57    60    1
    48    52    53    1
    49    52    54    1
    50    60    61    1
    51    61    62    1
    52    53    55    1
    53    11     9    1
    54    62    64   am
    55    62    63    2
    56     9    10    1
    57     9     8    2
    58    27    25   ar
    59    27    29   ar
    60    68    67    2
    61     8     7    1
    62    35    36    1
    63    35    34    1
    64    67    66    1
    65    25    24   ar
    66    29    28   ar
    67    36    30    1
    68    15    14    2
    69    44    43    2
    70     1     2    1
    71    34    31    1
    72     7     6    1
    73    43    42    1
    74     6     5    1
    75    66    65    1
    76    66    69    1
    77    46    45    1
    78    46    47    1
    79    45    42    1
    80    18    17    1
    81    18    12    1
    82    17    16    1
    83    24    26   ar
    84    24    23    1
    85    28    26   ar
    86    30    31    1
    87    30    21   am
    88     5     2    1
    89    14    13    1
    90    14    19   am
    91    12    13    1
    92    20    23    1
    93    20    19    1
    94    20    21    1
    95     2     3    1
    96    42    41    1
    97    31    32    1
    98    74    75   ar
    99    74    72   ar
   100    75    73   ar
   101    72    70   ar
   102    73    71   ar
   103    70    69    1
   104    70    71   ar
   105    13    16    1
   106    21    22    2
   107    47    41    1
   108    33    32    2
   109    32    37   am
   110    41    39   am
   111     3     4    2
   112    37    38    1
   113    39    40    2
   114    39    38    1
