@<TRIPOS>MOLECULE
tmp/3up0A00.pdb
 250 238 0 0 0
SMALL
GASTEIGER

@<TRIPOS>ATOM
      1  N         -7.5970  -20.9180   39.7990 N.3    22  MET22      -0.1245
      2  CA        -6.7710  -20.5170   38.6480 C.3    22  MET22       0.1570
      3  C         -5.5590  -19.7090   39.0790 C.2    22  MET22       0.2261
      4  O         -4.4760  -19.8730   38.5030 O.2    22  MET22      -0.2867
      5  CB        -7.5960  -19.6980   37.6540 C.3    22  MET22       0.0387
      6  CG        -6.9020  -19.3490   36.3730 C.3    22  MET22       0.0595
      7  SD        -6.6260  -20.7650   35.3010 S.3    22  MET22      -0.1393
      8  CE        -8.3030  -21.1630   34.8990 C.3    22  MET22       0.0692
      9  N          1.5640  -22.5080   43.1110 N.3    26  MET26      -0.1245
     10  CA         2.0240  -23.8020   42.6080 C.3    26  MET26       0.1570
     11  C          2.7330  -24.5970   43.6980 C.2    26  MET26       0.2261
     12  O          3.5800  -24.0530   44.4190 O.2    26  MET26      -0.2867
     13  CB         3.0020  -23.6160   41.4370 C.3    26  MET26       0.0387
     14  CG         2.3630  -23.0510   40.1710 C.3    26  MET26       0.0595
     15  SD         3.5830  -22.8040   38.8550 S.3    26  MET26      -0.1393
     16  CE         4.3440  -21.2830   39.4050 C.3    26  MET26       0.0692
     17  N          9.1720  -22.6940   36.1570 N.3    35  PHE35      -0.1241
     18  CA         8.7470  -21.2910   36.1830 C.3    35  PHE35       0.1605
     19  C          9.7920  -20.3940   36.8570 C.2    35  PHE35       0.2264
     20  O         10.0210  -19.2840   36.4300 O.2    35  PHE35      -0.2867
     21  CB         7.4000  -21.1260   36.8870 C.3    35  PHE35       0.0534
     22  CG         6.7810  -19.7660   36.6800 C.ar   35  PHE35      -0.0203
     23  CD1        6.0270  -19.4930   35.5400 C.ar   35  PHE35      -0.0042
     24  CD2        6.9470  -18.7630   37.6300 C.ar   35  PHE35      -0.0042
     25  CE1        5.4910  -18.2070   35.3180 C.ar   35  PHE35      -0.0003
     26  CE2        6.3870  -17.4740   37.4380 C.ar   35  PHE35      -0.0003
     27  CZ         5.6620  -17.2010   36.2910 C.ar   35  PHE35      -0.0000
     28  N          9.0490  -24.3030   29.1830 N.3    45  ILE45      -0.1245
     29  CA         7.8120  -23.6230   28.7570 C.3    45  ILE45       0.1561
     30  C          6.6480  -24.6250   28.7500 C.2    45  ILE45       0.2260
     31  O          5.5390  -24.3050   29.1810 O.2    45  ILE45      -0.2867
     32  CB         7.9590  -22.9640   27.3980 C.3    45  ILE45       0.0252
     33  CG1        9.1150  -21.9750   27.4000 C.3    45  ILE45       0.0019
     34  CG2        6.6520  -22.2760   26.9940 C.3    45  ILE45       0.0019
     35  CD1        8.9930  -20.8510   28.3950 C.3    45  ILE45       0.0001
     36  N          5.4560  -25.2820   32.2560 N.3    48  ILE48      -0.1231
     37  CA         4.6740  -24.1510   32.7270 C.3    48  ILE48       0.1692
     38  C          3.2610  -24.1530   32.1810 C.2    48  ILE48       0.2591
     39  O          2.2910  -24.0010   32.9560 O.2    48  ILE48      -0.2718
     40  CB         5.3870  -22.8050   32.3640 C.3    48  ILE48       0.0266
     41  CG1        6.6830  -22.7100   33.1690 C.3    48  ILE48       0.0019
     42  CG2        4.4910  -21.6100   32.6600 C.3    48  ILE48       0.0020
     43  CD1        7.6130  -21.6010   32.6990 C.3    48  ILE48       0.0001
     44  N          3.1480  -24.4050   30.8760 N.am   49  MET49      -0.1979
     45  CA         1.8230  -24.5130   30.2380 C.3    49  MET49       0.1605
     46  C          0.9670  -25.5910   30.8860 C.2    49  MET49       0.2287
     47  O         -0.2580  -25.3950   31.0120 O.2    49  MET49      -0.2864
     48  CB         1.9490  -24.8330   28.7500 C.3    49  MET49       0.0413
     49  CG         2.4610  -23.6650   27.9720 C.3    49  MET49       0.0598
     50  SD         2.2360  -23.9550   26.1900 S.3    49  MET49      -0.1393
     51  CE         3.4430  -25.2250   25.8560 C.3    49  MET49       0.0692
     52  N          0.6210  -26.3970   33.9800 N.3    51  VAL51      -0.1231
     53  CA        -0.0840  -25.8950   35.1410 C.3    51  VAL51       0.1692
     54  C         -1.3980  -25.2340   34.7300 C.2    51  VAL51       0.2592
     55  O         -2.4600  -25.5930   35.2100 O.2    51  VAL51      -0.2718
     56  CB         0.7550  -24.8850   35.9150 C.3    51  VAL51       0.0266
     57  CG1       -0.0010  -24.3320   37.0970 C.3    51  VAL51       0.0020
     58  CG2        2.0730  -25.5180   36.2810 C.3    51  VAL51       0.0020
     59  N         -1.3280  -24.2990   33.7700 N.am   52  THR52      -0.1953
     60  CA        -2.5020  -23.5880   33.3210 C.3    52  THR52       0.1897
     61  C         -3.5070  -24.5130   32.6470 C.2    52  THR52       0.2313
     62  O         -4.7100  -24.3910   32.8640 O.2    52  THR52      -0.2863
     63  CB        -2.1110  -22.4540   32.3230 C.3    52  THR52       0.1794
     64  OG1       -0.9700  -21.7370   32.8330 O.3    52  THR52      -0.2208
     65  CG2       -3.2250  -21.4880   32.1110 C.3    52  THR52       0.0378
     66  N         -5.4150  -26.4700   35.2260 N.3    55  ARG55      -0.1245
     67  CA        -6.3310  -25.5950   35.8650 C.3    55  ARG55       0.1563
     68  C         -7.5610  -25.2420   35.0230 C.2    55  ARG55       0.2260
     69  O         -8.6590  -25.0820   35.5440 O.2    55  ARG55      -0.2867
     70  CB        -5.5990  -24.3720   36.4040 C.3    55  ARG55       0.0307
     71  CG        -4.6800  -24.7330   37.5470 C.3    55  ARG55       0.0489
     72  CD        -3.9210  -23.5470   38.0960 C.3    55  ARG55       0.2205
     73  NE        -3.1700  -23.9700   39.2610 N.pl3  55  ARG55      -0.0865
     74  CZ        -2.5500  -23.1440   40.0990 C.cat  55  ARG55       0.5346
     75  NH1       -2.5680  -21.8410   39.8880 N.pl3  55  ARG55       0.1354
     76  NH2       -1.9130  -23.6510   41.1470 N.pl3  55  ARG55       0.1354
     77  N         -5.8120  -24.1610   23.4780 N.3    83  ILE83      -0.1245
     78  CA        -4.7520  -23.2180   23.0700 C.3    83  ILE83       0.1561
     79  C         -5.2910  -21.8000   23.0410 C.2    83  ILE83       0.2260
     80  O         -4.5810  -20.8810   23.4260 O.2    83  ILE83      -0.2867
     81  CB        -4.0900  -23.5830   21.7110 C.3    83  ILE83       0.0252
     82  CG1       -3.4540  -24.9790   21.7770 C.3    83  ILE83       0.0019
     83  CG2       -3.0970  -22.5620   21.3020 C.3    83  ILE83       0.0019
     84  CD1       -2.5400  -25.1800   22.8630 C.3    83  ILE83       0.0001
     85  N         -5.4810  -20.6280   26.6180 N.3    86  LEU86      -0.1231
     86  CA        -4.1130  -20.3370   27.1240 C.3    86  LEU86       0.1693
     87  C         -3.6610  -18.9740   26.6260 C.2    86  LEU86       0.2592
     88  O         -3.0040  -18.2200   27.3320 O.2    86  LEU86      -0.2718
     89  CB        -3.1130  -21.3790   26.6770 C.3    86  LEU86       0.0284
     90  CG        -2.9000  -22.6590   27.4240 C.3    86  LEU86       0.0019
     91  CD1       -1.8760  -23.5080   26.6810 C.3    86  LEU86       0.0001
     92  CD2       -2.4090  -22.2880   28.8160 C.3    86  LEU86       0.0001
     93  N         -3.9910  -18.6580   25.3720 N.am   87  THR87      -0.1953
     94  CA        -3.5960  -17.3910   24.7780 C.3    87  THR87       0.1897
     95  C         -4.2800  -16.2190   25.4890 C.2    87  THR87       0.2313
     96  O         -3.6470  -15.1740   25.7080 O.2    87  THR87      -0.2863
     97  CB        -3.8540  -17.3740   23.2480 C.3    87  THR87       0.1794
     98  OG1       -3.1500  -18.4850   22.6690 O.3    87  THR87      -0.2208
     99  CG2       -3.3340  -16.0700   22.6180 C.3    87  THR87       0.0378
    100  N         -5.2830  -16.3080   28.6260 N.3    89  ARG89      -0.1231
    101  CA        -4.5510  -16.2170   29.9100 C.3    89  ARG89       0.1694
    102  C         -3.2660  -15.4480   29.6880 C.2    89  ARG89       0.2592
    103  O         -2.8740  -14.6270   30.5030 O.2    89  ARG89      -0.2718
    104  CB        -4.2670  -17.6180   30.4760 C.3    89  ARG89       0.0321
    105  CG        -3.4400  -17.6220   31.7720 C.3    89  ARG89       0.0489
    106  CD        -4.2580  -17.2390   32.9510 C.3    89  ARG89       0.2205
    107  NE        -3.5390  -17.4840   34.2080 N.pl3  89  ARG89      -0.0865
    108  CZ        -3.9890  -17.0950   35.3980 C.cat  89  ARG89       0.5346
    109  NH1       -5.1700  -16.5070   35.5300 N.pl3  89  ARG89       0.1354
    110  NH2       -3.2570  -17.3320   36.4810 N.pl3  89  ARG89       0.1354
    111  N         -2.6160  -15.6810   28.5500 N.am   90  GLY90      -0.1957
    112  CA        -1.4320  -14.9560   28.1710 C.3    90  GLY90       0.1869
    113  C         -1.6180  -13.4560   28.1090 C.2    90  GLY90       0.2309
    114  O         -0.7560  -12.7030   28.5450 O.2    90  GLY90      -0.2863
    115  N         -1.8560  -12.0170   31.6450 N.3    93  ARG93      -0.1245
    116  CA        -0.6200  -12.0870   32.4090 C.3    93  ARG93       0.1563
    117  C          0.5810  -11.3840   31.7920 C.2    93  ARG93       0.2260
    118  O          1.6880  -11.3990   32.3700 O.2    93  ARG93      -0.2867
    119  CB        -0.2810  -13.5490   32.7050 C.3    93  ARG93       0.0307
    120  CG        -1.3010  -14.3070   33.5620 C.3    93  ARG93       0.0489
    121  CD        -1.7990  -13.5430   34.7870 C.3    93  ARG93       0.2205
    122  NE        -0.6560  -13.0250   35.5250 N.pl3  93  ARG93      -0.0865
    123  CZ        -0.7460  -12.1130   36.5110 C.cat  93  ARG93       0.5346
    124  NH1       -1.9200  -11.6330   36.8850 N.pl3  93  ARG93       0.1354
    125  NH2        0.3600  -11.6730   37.0860 N.pl3  93  ARG93       0.1354
    126  N          5.5880  -12.5290   30.7880 N.3   101  TRP101     -0.1227
    127  CA         4.4470  -13.0030   31.5140 C.3   101  TRP101      0.1737
    128  C          4.8300  -13.2710   32.9760 C.2   101  TRP101      0.2596
    129  O          5.9240  -13.7640   33.2230 O.2   101  TRP101     -0.2718
    130  CB         3.9530  -14.3060   30.9470 C.3   101  TRP101      0.0564
    131  CG         3.3640  -14.2250   29.5330 C.ar  101  TRP101      0.0003
    132  CD1        2.1300  -13.8150   29.2080 C.ar  101  TRP101      0.0946
    133  CD2        3.9940  -14.6370   28.3250 C.ar  101  TRP101      0.0152
    134  NE1        1.9170  -13.9390   27.8390 N.ar  101  TRP101     -0.2442
    135  CE2        3.0610  -14.4340   27.2780 C.ar  101  TRP101      0.0810
    136  CE3        5.2420  -15.1600   28.0100 C.ar  101  TRP101      0.0012
    137  CZ2        3.3570  -14.7630   25.9610 C.ar  101  TRP101      0.0191
    138  CZ3        5.5170  -15.4860   26.6640 C.ar  101  TRP101      0.0001
    139  CH2        4.5830  -15.2630   25.6810 C.ar  101  TRP101      0.0015
    140  N          3.9170  -12.9800   33.8870 N.am  102  THR102     -0.1939
    141  CA         4.0760  -13.3250   35.3090 C.3   102  THR102      0.2028
    142  C          2.8650  -14.1190   35.7950 C.2   102  THR102      0.2643
    143  O          1.8590  -14.2290   35.0970 O.2   102  THR102     -0.2714
    144  CB         4.2190  -12.0470   36.1470 C.3   102  THR102      0.1808
    145  OG1        3.0840  -11.2070   35.9200 O.3   102  THR102     -0.2208
    146  CG2        5.4950  -11.3130   35.7790 C.3   102  THR102      0.0379
    147  N          2.9600  -14.6870   36.9980 N.am  103  THR103     -0.1937
    148  CA         1.8600  -15.4190   37.6140 C.3   103  THR103      0.2013
    149  C          1.4360  -14.6650   38.8930 C.2   103  THR103      0.2484
    150  O          2.2940  -14.0450   39.5320 O.2   103  THR103     -0.2729
    151  CB         2.2840  -16.8730   37.9300 C.3   103  THR103      0.1807
    152  OG1        1.1310  -17.6530   38.2030 O.3   103  THR103     -0.2208
    153  CG2        3.2180  -16.9260   39.1680 C.3   103  THR103      0.0379
    154  N          0.1300  -14.6510   39.2250 N.am  104  PRO104     -0.2726
    155  CA        -0.4200  -13.7690   40.2780 C.3   104  PRO104      0.1402
    156  C          0.0920  -13.9900   41.6900 C.2   104  PRO104      0.2269
    157  O          0.0800  -13.0370   42.4850 O.2   104  PRO104     -0.2865
    158  CB        -1.9250  -14.0560   40.2150 C.3   104  PRO104      0.0296
    159  CG        -2.0360  -15.2840   39.4260 C.3   104  PRO104      0.0237
    160  CD        -0.9710  -15.2450   38.4500 C.3   104  PRO104      0.0939
    161  N          8.2290  -15.3350   32.5040 N.3   112  VAL112     -0.1245
    162  CA         8.6060  -15.9520   31.2650 C.3   112  VAL112      0.1561
    163  C          8.7560  -14.8200   30.2260 C.2   112  VAL112      0.2260
    164  O          7.8050  -14.0750   30.0050 O.2   112  VAL112     -0.2867
    165  CB         7.4970  -16.9070   30.7900 C.3   112  VAL112      0.0252
    166  CG1        7.8620  -17.5030   29.4450 C.3   112  VAL112      0.0019
    167  CG2        7.2910  -18.0160   31.8120 C.3   112  VAL112      0.0019
    168  N         11.1090  -16.1890   24.8030 N.3   116  MET116     -0.1230
    169  CA        11.0340  -17.6490   24.7880 C.3   116  MET116      0.1702
    170  C         10.6900  -18.1680   23.3920 C.2   116  MET116      0.2592
    171  O         11.0870  -19.2730   23.0020 O.2   116  MET116     -0.2718
    172  CB        10.0420  -18.1600   25.8500 C.3   116  MET116      0.0401
    173  CG         8.5660  -17.9530   25.5650 C.3   116  MET116      0.0596
    174  SD         7.8750  -19.2780   24.5970 S.3   116  MET116     -0.1393
    175  CE         6.2580  -18.5800   24.1710 C.3   116  MET116      0.0692
    176  N          9.9520  -17.3480   22.6220 N.am  117  PHE117     -0.1976
    177  CA         9.5770  -17.7360   21.2780 C.3   117  PHE117      0.1639
    178  C         10.8060  -18.0370   20.4120 C.2   117  PHE117      0.2290
    179  O         10.7830  -18.9140   19.5420 O.2   117  PHE117     -0.2864
    180  CB         8.7550  -16.6480   20.5790 C.3   117  PHE117      0.0560
    181  CG         7.2680  -16.7030   20.8400 C.ar  117  PHE117     -0.0200
    182  CD1        6.4770  -17.6860   20.2320 C.ar  117  PHE117     -0.0042
    183  CD2        6.6460  -15.7470   21.6300 C.ar  117  PHE117     -0.0042
    184  CE1        5.0890  -17.7220   20.4300 C.ar  117  PHE117     -0.0003
    185  CE2        5.2970  -15.7820   21.8070 C.ar  117  PHE117     -0.0003
    186  CZ         4.5060  -16.7530   21.2090 C.ar  117  PHE117     -0.0000
    187  N          4.6280  -16.5770   15.1040 N.3   128  GLN128     -0.1245
    188  CA         3.7650  -16.7390   16.2790 C.3   128  GLN128      0.1566
    189  C          4.0140  -15.6670   17.3240 C.2   128  GLN128      0.2260
    190  O          3.0910  -15.2180   17.9790 O.2   128  GLN128     -0.2867
    191  CB         3.8950  -18.1410   16.8590 C.3   128  GLN128      0.0367
    192  CG         3.4030  -19.2450   15.9550 C.3   128  GLN128      0.0905
    193  CD         2.0770  -18.9540   15.3100 C.2   128  GLN128      0.2608
    194  OE1        2.0500  -18.4950   14.1710 O.2   128  GLN128     -0.2717
    195  NE2        0.9800  -19.2010   16.0170 N.am  128  GLN128     -0.0878
    196  N          1.1010  -13.0860   18.6660 N.3   132  PHE132     -0.1241
    197  CA         0.7320  -12.8950   20.0500 C.3   132  PHE132      0.1605
    198  C          0.7900  -11.3890   20.4290 C.2   132  PHE132      0.2264
    199  O         -0.1130  -10.8770   21.0710 O.2   132  PHE132     -0.2867
    200  CB         1.5940  -13.7040   21.0420 C.3   132  PHE132      0.0534
    201  CG         1.2130  -13.4100   22.4350 C.ar  132  PHE132     -0.0203
    202  CD1        0.0870  -13.9780   23.0030 C.ar  132  PHE132     -0.0042
    203  CD2        1.8710  -12.4390   23.1480 C.ar  132  PHE132     -0.0042
    204  CE1       -0.3300  -13.6130   24.2850 C.ar  132  PHE132     -0.0003
    205  CE2        1.4620  -12.1080   24.4480 C.ar  132  PHE132     -0.0003
    206  CZ         0.3640  -12.6770   24.9930 C.ar  132  PHE132     -0.0000
    207  N         -4.4680  -17.8060   15.8540 N.3   214  ILE214     -0.1245
    208  CA        -3.3330  -18.1990   16.6730 C.3   214  ILE214      0.1561
    209  C         -3.3770  -19.7000   16.9330 C.2   214  ILE214      0.2260
    210  O         -2.3520  -20.3940   16.8080 O.2   214  ILE214     -0.2867
    211  CB        -3.3050  -17.3720   17.9760 C.3   214  ILE214      0.0252
    212  CG1       -2.8070  -15.9750   17.6680 C.3   214  ILE214      0.0019
    213  CG2       -2.4430  -18.0780   19.0560 C.3   214  ILE214      0.0019
    214  CD1       -3.0080  -14.9500   18.7820 C.3   214  ILE214      0.0001
    215  N         -0.3380  -22.5450   15.7020 N.3   218  SER218     -0.1217
    216  CA         0.5890  -22.8130   16.8080 C.3   218  SER218      0.1889
    217  C          0.9920  -24.2720   16.9850 C.2   218  SER218      0.2288
    218  O          1.9280  -24.5580   17.7170 O.2   218  SER218     -0.2866
    219  CB         0.0200  -22.2900   18.1420 C.3   218  SER218      0.2089
    220  OG        -0.1250  -20.8960   18.1630 O.3   218  SER218     -0.2183
    221  N          4.7600  -25.4020   16.9340 N.3   221  LEU221     -0.1231
    222  CA         5.7100  -24.5060   17.5270 C.3   221  LEU221      0.1693
    223  C          6.8150  -25.1750   18.3340 C.2   221  LEU221      0.2592
    224  O          7.9230  -24.6260   18.4260 O.2   221  LEU221     -0.2718
    225  CB         4.9750  -23.5160   18.4250 C.3   221  LEU221      0.0284
    226  CG         5.6510  -22.2900   18.9740 C.3   221  LEU221      0.0019
    227  CD1        6.2610  -21.4440   17.8690 C.3   221  LEU221      0.0001
    228  CD2        4.5560  -21.4930   19.7240 C.3   221  LEU221      0.0001
    229  N          6.5310  -26.3370   18.8990 N.am  222  PHE222     -0.1976
    230  CA         7.5320  -27.0300   19.7320 C.3   222  PHE222      0.1639
    231  C          8.2020  -28.1860   18.9880 C.2   222  PHE222      0.2290
    232  O          9.0320  -28.8930   19.5770 O.2   222  PHE222     -0.2864
    233  CB         6.9280  -27.5060   21.0450 C.3   222  PHE222      0.0560
    234  CG         6.5550  -26.3680   21.9550 C.ar  222  PHE222     -0.0200
    235  CD1        5.3380  -25.7100   21.8090 C.ar  222  PHE222     -0.0042
    236  CD2        7.4190  -25.9400   22.9750 C.ar  222  PHE222     -0.0042
    237  CE1        5.0240  -24.6240   22.6240 C.ar  222  PHE222     -0.0003
    238  CE2        7.0730  -24.8730   23.7980 C.ar  222  PHE222     -0.0003
    239  CZ         5.8790  -24.2220   23.6150 C.ar  222  PHE222     -0.0000
    240  N          0.7830  -29.8710   21.5150 N.3   239  PHE239     -0.1241
    241  CA         1.9430  -29.4170   20.7500 C.3   239  PHE239      0.1605
    242  C          2.8490  -30.6000   20.4580 C.2   239  PHE239      0.2264
    243  O          3.5830  -31.0560   21.3310 O.2   239  PHE239     -0.2867
    244  CB         2.7270  -28.3650   21.5120 C.3   239  PHE239      0.0534
    245  CG         1.9610  -27.0980   21.7910 C.ar  239  PHE239     -0.0203
    246  CD1        1.3440  -26.8630   23.0020 C.ar  239  PHE239     -0.0042
    247  CD2        1.9200  -26.0910   20.8320 C.ar  239  PHE239     -0.0042
    248  CE1        0.6870  -25.6580   23.2350 C.ar  239  PHE239     -0.0003
    249  CE2        1.2520  -24.9020   21.0530 C.ar  239  PHE239     -0.0003
    250  CZ         0.6440  -24.6790   22.2430 C.ar  239  PHE239     -0.0000
@<TRIPOS>BOND
     1   194   193    2
     2   187   188    1
     3   193   192    1
     4   193   195   am
     5   215   216    1
     6   207   208    1
     7   192   191    1
     8   188   191    1
     9   188   189    1
    10   208   209    1
    11   208   211    1
    12   210   209    2
    13   216   217    1
    14   216   219    1
    15   221   222    1
    16   217   218    2
    17   189   190    2
    18   222   223    1
    19   222   225    1
    20   212   211    1
    21   212   214    1
    22   227   226    1
    23   211   213    1
    24   219   220    1
    25   223   224    2
    26   223   229   am
    27   225   226    1
    28   196   197    1
    29   229   230    1
    30   226   228    1
    31   231   232    2
    32   231   230    1
    33   179   178    2
    34   230   233    1
    35   197   198    1
    36   197   200    1
    37   182   184   ar
    38   182   181   ar
    39   178   177    1
    40   198   199    2
    41   184   186   ar
    42   242   241    1
    43   242   243    2
    44   180   181    1
    45   180   177    1
    46   241   244    1
    47   241   240    1
    48   247   249   ar
    49   247   245   ar
    50   181   183   ar
    51   200   201    1
    52   233   234    1
    53   249   250   ar
    54   186   185   ar
    55   177   176    1
    56    83    81    1
    57   244   245    1
    58   183   185   ar
    59    81    82    1
    60    81    78    1
    61    82    84    1
    62   245   246   ar
    63   235   234   ar
    64   235   237   ar
    65   234   236   ar
    66   250   248   ar
    67   201   202   ar
    68   201   203   ar
    69    99    97    1
    70   176   170   am
    71   237   239   ar
    72    98    97    1
    73   236   238   ar
    74   171   170    2
    75   246   248   ar
    76   202   204   ar
    77    79    78    1
    78    79    80    2
    79    78    77    1
    80   203   205   ar
    81    97    94    1
    82   170   169    1
    83   239   238   ar
    84   175   174    1
    85   204   206   ar
    86   205   206   ar
    87   174   173    1
    88    94    93    1
    89    94    95    1
    90   169   168    1
    91   169   172    1
    92    93    87   am
    93    95    96    2
    94   173   172    1
    95   139   137   ar
    96   139   138   ar
    97    51    50    1
    98   137   135   ar
    99    50    49    1
   100    85    86    1
   101    87    86    1
   102    87    88    2
   103   138   136   ar
   104    89    86    1
   105    89    90    1
   106    91    90    1
   107    34    32    1
   108   135   134   ar
   109   135   133   ar
   110    32    33    1
   111    32    29    1
   112    33    35    1
   113    90    92    1
   114   134   132   ar
   115    49    48    1
   116   136   133   ar
   117   113   112    1
   118   113   114    2
   119   112   111    1
   120   133   131   ar
   121   111   102   am
   122   100   101    1
   123    30    29    1
   124    30    31    2
   125    48    45    1
   126    29    28    1
   127   132   131   ar
   128   166   165    1
   129   131   130    1
   130   102   101    1
   131   102   103    2
   132   101   104    1
   133   164   163    2
   134   163   162    1
   135    45    44    1
   136    45    46    1
   137   104   105    1
   138   126   127    1
   139   165   162    1
   140   165   167    1
   141    44    38   am
   142    46    47    2
   143   130   127    1
   144   162   161    1
   145   127   128    1
   146   115   116    1
   147   105   106    1
   148   117   118    2
   149   117   116    1
   150    65    63    1
   151    38    37    1
   152    38    39    2
   153    36    37    1
   154    63    64    1
   155    63    60    1
   156    40    42    1
   157    40    37    1
   158    40    41    1
   159   116   119    1
   160    61    62    2
   161    61    60    1
   162    43    41    1
   163   119   120    1
   164   106   107    1
   165   128   129    2
   166   128   140   am
   167    60    59    1
   168   120   121    1
   169    59    54   am
   170   140   141    1
   171    52    53    1
   172   107   108    2
   173    54    53    1
   174    54    55    2
   175   121   122    1
   176     8     7    1
   177    68    69    2
   178    68    67    1
   179   143   142    2
   180    53    56    1
   181    66    67    1
   182     7     6    1
   183   141   142    1
   184   141   144    1
   185    25    23   ar
   186    25    27   ar
   187   108   109    1
   188   108   110    1
   189   122   123    2
   190    23    22   ar
   191   146   144    1
   192   142   147   am
   193    67    70    1
   194    56    58    1
   195    56    57    1
   196   145   144    1
   197    17    18    1
   198    18    19    1
   199    18    21    1
   200    27    26   ar
   201     6     5    1
   202    70    71    1
   203    20    19    2
   204   123   124    1
   205   123   125    1
   206    22    21    1
   207    22    24   ar
   208   147   148    1
   209    26    24   ar
   210    71    72    1
   211   148   151    1
   212   148   149    1
   213     5     2    1
   214   151   152    1
   215   151   153    1
   216    72    73    1
   217   160   154    1
   218   160   159    1
   219     4     3    2
   220     2     3    1
   221     2     1    1
   222    15    16    1
   223    15    14    1
   224   149   154   am
   225   149   150    2
   226   154   155    1
   227    73    74    2
   228   159   158    1
   229    75    74    1
   230    74    76    1
   231    14    13    1
   232   158   155    1
   233   155   156    1
   234    13    10    1
   235   156   157    2
   236    10     9    1
   237    10    11    1
   238    11    12    2
