@<TRIPOS>MOLECULE
tmp/3up1B01.pdb
 143 141 0 0 0
SMALL
GASTEIGER

@<TRIPOS>ATOM
      1  N         60.8930   33.7900   30.3930 N.3    10  GLN10      -0.1231
      2  CA        61.0650   32.4190   29.9240 C.3    10  GLN10       0.1698
      3  C         61.7750   31.6260   31.0020 C.2    10  GLN10       0.2592
      4  O         62.6110   32.1710   31.7110 O.2    10  GLN10      -0.2718
      5  CB        61.8490   32.3650   28.6140 C.3    10  GLN10       0.0381
      6  CG        61.2400   33.2420   27.5090 C.3    10  GLN10       0.0905
      7  CD        61.7200   32.8470   26.1310 C.2    10  GLN10       0.2608
      8  OE1       62.7980   33.2610   25.6980 O.2    10  GLN10      -0.2717
      9  NE2       60.9200   32.0320   25.4310 N.am   10  GLN10      -0.0878
     10  N         61.4300   30.3460   31.1240 N.am   11  LEU11      -0.1980
     11  CA        61.9260   29.5190   32.2170 C.3    11  LEU11       0.1596
     12  C         62.9400   28.4860   31.7670 C.2    11  LEU11       0.2287
     13  O         62.7150   27.7660   30.7890 O.2    11  LEU11      -0.2864
     14  CB        60.7700   28.8250   32.9280 C.3    11  LEU11       0.0297
     15  CG        59.6540   29.7570   33.3860 C.3    11  LEU11       0.0022
     16  CD1       58.6450   28.9440   34.1630 C.3    11  LEU11       0.0001
     17  CD2       60.1920   30.9050   34.2380 C.3    11  LEU11       0.0001
     18  N         54.6770   34.0020   31.0270 N.3    92  VAL92      -0.1231
     19  CA        55.6350   33.0770   30.4470 C.3    92  VAL92       0.1692
     20  C         55.4250   32.9210   28.9360 C.2    92  VAL92       0.2592
     21  O         54.2960   32.7680   28.4620 O.2    92  VAL92      -0.2718
     22  CB        55.5630   31.6920   31.1360 C.3    92  VAL92       0.0266
     23  CG1       56.4120   30.6460   30.3660 C.3    92  VAL92       0.0020
     24  CG2       55.9990   31.8110   32.5910 C.3    92  VAL92       0.0020
     25  N         56.5200   33.0000   28.1890 N.am   93  LYS93      -0.1966
     26  CA        56.5140   32.6810   26.7710 C.3    93  LYS93       0.1713
     27  C         57.3110   31.3950   26.6030 C.2    93  LYS93       0.2458
     28  O         58.5300   31.4010   26.7590 O.2    93  LYS93      -0.2730
     29  CB        57.1800   33.7950   25.9560 C.3    93  LYS93       0.0311
     30  CG        57.1810   33.5560   24.4430 C.3    93  LYS93       0.0038
     31  CD        57.9390   34.6700   23.6880 C.3    93  LYS93       0.0206
     32  CE        57.8150   34.5170   22.1810 C.3    93  LYS93       0.1093
     33  NZ        58.5600   35.5660   21.4170 N.3    93  LYS93      -0.1314
     34  N         56.6240   30.2810   26.3000 N.am   94  PRO94      -0.2716
     35  CA        57.3450   29.0140   26.1750 C.3    94  PRO94       0.1536
     36  C         58.3970   29.0570   25.0780 C.2    94  PRO94       0.2598
     37  O         58.3000   29.8610   24.1540 O.2    94  PRO94      -0.2715
     38  CB        56.2460   28.0100   25.8090 C.3    94  PRO94       0.0310
     39  CG        54.9730   28.6200   26.2540 C.3    94  PRO94       0.0237
     40  CD        55.1740   30.1180   26.1310 C.3    94  PRO94       0.0939
     41  N         59.4140   28.2090   25.1800 N.am   95  GLU95      -0.1964
     42  CA        60.2790   28.0290   24.0390 C.3    95  GLU95       0.1733
     43  C         59.4230   27.4110   22.9400 C.2    95  GLU95       0.2616
     44  O         58.3760   26.8280   23.2180 O.2    95  GLU95      -0.2715
     45  CB        61.4810   27.1590   24.3840 C.3    95  GLU95       0.0429
     46  CG        62.3890   27.7960   25.4170 C.3    95  GLU95       0.1163
     47  CD        63.5960   26.9420   25.7250 C.2    95  GLU95       0.3649
     48  OE1       63.5950   25.7530   25.3380 O.co2  95  GLU95      -0.2457
     49  OE2       64.5460   27.4600   26.3490 O.co2  95  GLU95      -0.2457
     50  N         59.8500   27.5850   21.6960 N.am   96  ALA96      -0.1977
     51  CA        59.1520   27.0200   20.5410 C.3    96  ALA96       0.1597
     52  C         59.2510   25.5030   20.5410 C.2    96  ALA96       0.2287
     53  O         60.2700   24.9460   20.9520 O.2    96  ALA96      -0.2864
     54  CB        59.7640   27.5760   19.2490 C.3    96  ALA96       0.0319
     55  N         59.8520   21.9370   18.5260 N.3    98  PHE98      -0.1241
     56  CA        60.9180   21.6650   17.5660 C.3    98  PHE98       0.1605
     57  C         60.9380   20.1880   17.1430 C.2    98  PHE98       0.2264
     58  O         60.1490   19.3850   17.6450 O.2    98  PHE98      -0.2867
     59  CB        62.2690   22.0700   18.1590 C.3    98  PHE98       0.0534
     60  CG        62.6330   21.3230   19.4180 C.ar   98  PHE98      -0.0203
     61  CD1       62.2180   21.7810   20.6600 C.ar   98  PHE98      -0.0042
     62  CD2       63.3980   20.1720   19.3590 C.ar   98  PHE98      -0.0042
     63  CE1       62.5510   21.0990   21.8220 C.ar   98  PHE98      -0.0003
     64  CE2       63.7400   19.4890   20.5140 C.ar   98  PHE98      -0.0003
     65  CZ        63.3120   19.9530   21.7480 C.ar   98  PHE98      -0.0000
     66  N         59.1550   19.1230   22.7020 N.3   117  THR117     -0.1203
     67  CA        58.9250   20.2490   23.6050 C.3   117  THR117      0.1994
     68  C         60.0650   20.2510   24.6380 C.2   117  THR117      0.2619
     69  O         60.8350   19.2940   24.7040 O.2   117  THR117     -0.2717
     70  CB        57.5000   20.1310   24.2340 C.3   117  THR117      0.1784
     71  OG1       56.5200   20.4560   23.2400 O.3   117  THR117     -0.2211
     72  CG2       57.2940   21.0670   25.3750 C.3   117  THR117      0.0376
     73  N         59.9710   21.3350   25.5980 N.am  118  SER118     -0.1937
     74  CA        60.8560   21.4710   26.7580 C.3   118  SER118      0.2055
     75  C         60.9570   20.2850   27.6950 C.2   118  SER118      0.2643
     76  O         59.9970   19.5480   27.9080 O.2   118  SER118     -0.2714
     77  CB        60.4020   22.6300   27.6420 C.3   118  SER118      0.2130
     78  OG        59.0470   22.4880   28.0980 O.3   118  SER118     -0.2179
     79  N         62.2350   20.1750   28.2200 N.am  119  HIS119     -0.1959
     80  CA        62.3630   19.5030   29.5080 C.3   119  HIS119      0.1787
     81  C         61.2750   19.8410   30.5420 C.2   119  HIS119      0.2620
     82  O         60.8020   18.9600   31.2550 O.2   119  HIS119     -0.2715
     83  CB        63.7550   19.8320   30.0720 C.3   119  HIS119      0.0785
     84  CG        64.2520   21.2080   29.7040 C.ar  119  HIS119      0.0821
     85  ND1       64.5590   21.5740   28.4060 N.ar  119  HIS119     -0.2267
     86  CD2       64.4880   22.2990   30.4670 C.ar  119  HIS119      0.1154
     87  CE1       64.9530   22.8360   28.3910 C.ar  119  HIS119      0.1986
     88  NE2       64.9250   23.2990   29.6210 N.ar  119  HIS119     -0.2212
     89  N         60.8670   21.1060   30.6060 N.am  120  LEU120     -0.1963
     90  CA        59.9180   21.5660   31.6220 C.3   120  LEU120      0.1728
     91  C         58.4550   21.1020   31.4870 C.2   120  LEU120      0.2616
     92  O         57.7870   20.8930   32.5010 O.2   120  LEU120     -0.2715
     93  CB        59.9370   23.0870   31.7120 C.3   120  LEU120      0.0311
     94  CG        60.9950   23.8010   32.5350 C.3   120  LEU120      0.0022
     95  CD1       60.6180   25.2590   32.5430 C.3   120  LEU120      0.0001
     96  CD2       61.0780   23.2500   33.9600 C.3   120  LEU120      0.0001
     97  N         57.9500   20.9700   30.2590 N.am  121  GLN121     -0.1977
     98  CA        56.5650   20.5170   30.0270 C.3   121  GLN121      0.1601
     99  C         56.4180   19.0570   30.4360 C.2   121  GLN121      0.2287
    100  O         55.3110   18.5340   30.5760 O.2   121  GLN121     -0.2864
    101  CB        56.1640   20.7190   28.5540 C.3   121  GLN121      0.0394
    102  CG        54.9270   19.9690   28.0270 C.3   121  GLN121      0.0908
    103  CD        53.5980   20.5110   28.5470 C.2   121  GLN121      0.2608
    104  OE1       53.5520   21.2930   29.4980 O.2   121  GLN121     -0.2717
    105  NE2       52.5040   20.0840   27.9200 N.am  121  GLN121     -0.0878
    106  N         57.0990   19.9320   34.8440 N.3   124  TYR124     -0.1241
    107  CA        55.7840   20.4870   35.1150 C.3   124  TYR124      0.1605
    108  C         54.8730   19.7710   34.1320 C.2   124  TYR124      0.2264
    109  O         54.9290   20.0240   32.9310 O.2   124  TYR124     -0.2867
    110  CB        55.7700   21.9900   34.8450 C.3   124  TYR124      0.0534
    111  CG        56.8380   22.7790   35.5700 C.ar  124  TYR124     -0.0201
    112  CD1       57.3650   22.3410   36.7850 C.ar  124  TYR124     -0.0009
    113  CD2       57.3230   23.9700   35.0360 C.ar  124  TYR124     -0.0009
    114  CE1       58.3420   23.0730   37.4450 C.ar  124  TYR124      0.0417
    115  CE2       58.3000   24.7070   35.6880 C.ar  124  TYR124      0.0417
    116  CZ        58.8060   24.2600   36.8910 C.ar  124  TYR124      0.1957
    117  OH        59.7780   25.0050   37.5320 O.3   124  TYR124     -0.2866
    118  N         51.0960   21.3920   31.7130 N.3   127  VAL127     -0.1231
    119  CA        50.9250   22.8430   31.6810 C.3   127  VAL127      0.1692
    120  C         50.7270   23.5480   30.3170 C.2   127  VAL127      0.2591
    121  O         50.0800   24.5790   30.2620 O.2   127  VAL127     -0.2718
    122  CB        52.0270   23.5610   32.4990 C.3   127  VAL127      0.0266
    123  CG1       52.2820   22.8190   33.8070 C.3   127  VAL127      0.0020
    124  CG2       53.2960   23.6640   31.7130 C.3   127  VAL127      0.0020
    125  N         51.2710   23.0230   29.2260 N.am  128  LEU128     -0.1980
    126  CA        51.1460   23.7340   27.9480 C.3   128  LEU128      0.1596
    127  C         50.0380   23.1890   27.0700 C.2   128  LEU128      0.2287
    128  O         49.7340   21.9990   27.0910 O.2   128  LEU128     -0.2864
    129  CB        52.4330   23.6670   27.1420 C.3   128  LEU128      0.0297
    130  CG        53.7510   24.1930   27.6870 C.3   128  LEU128      0.0022
    131  CD1       54.7990   23.9480   26.6270 C.3   128  LEU128      0.0001
    132  CD2       53.6710   25.6750   28.0420 C.3   128  LEU128      0.0001
    133  N         50.5790   28.0720   35.1130 N.3   178  PHE178     -0.1241
    134  CA        51.2560   29.1780   34.4730 C.3   178  PHE178      0.1605
    135  C         50.2600   29.8780   33.5590 C.2   178  PHE178      0.2264
    136  O         49.2660   29.2770   33.1390 O.2   178  PHE178     -0.2867
    137  CB        52.4360   28.6520   33.6470 C.3   178  PHE178      0.0534
    138  CG        53.5020   27.9920   34.4670 C.ar  178  PHE178     -0.0203
    139  CD1       53.4480   26.6260   34.7420 C.ar  178  PHE178     -0.0042
    140  CD2       54.5620   28.7290   34.9620 C.ar  178  PHE178     -0.0042
    141  CE1       54.4250   26.0200   35.5020 C.ar  178  PHE178     -0.0003
    142  CE2       55.5470   28.1230   35.7320 C.ar  178  PHE178     -0.0003
    143  CZ        55.4790   26.7690   36.0010 C.ar  178  PHE178     -0.0000
@<TRIPOS>BOND
     1    57    56    1
     2    57    58    2
     3    56    59    1
     4    56    55    1
     5    59    60    1
     6    54    51    1
     7    62    60   ar
     8    62    64   ar
     9    60    61   ar
    10    64    65   ar
    11    52    51    1
    12    52    53    2
    13    51    50    1
    14    61    63   ar
    15    33    32    1
    16    50    43   am
    17    65    63   ar
    18    32    31    1
    19    66    67    1
    20    43    44    2
    21    43    42    1
    22    71    70    1
    23    67    70    1
    24    67    68    1
    25    31    30    1
    26    42    45    1
    27    42    41    1
    28    37    36    2
    29    70    72    1
    30    45    46    1
    31    30    29    1
    32    68    69    2
    33    68    73   am
    34    36    41   am
    35    36    35    1
    36    48    47   ar
    37    46    47    1
    38     9     7   am
    39    73    74    1
    40     8     7    2
    41    47    49   ar
    42    38    35    1
    43    38    39    1
    44    29    26    1
    45     7     6    1
    46    40    39    1
    47    40    34    1
    48    35    34    1
    49    34    27   am
    50    27    28    2
    51    27    26    1
    52   131   130    1
    53    74    77    1
    54    74    75    1
    55    26    25    1
    56   127   128    2
    57   127   126    1
    58   129   130    1
    59   129   126    1
    60     6     5    1
    61    77    78    1
    62   130   132    1
    63    75    76    2
    64    75    79   am
    65   105   103   am
    66   126   125    1
    67   102   103    1
    68   102   101    1
    69    25    20   am
    70    79    80    1
    71    87    85   ar
    72    87    88   ar
    73    85    84   ar
    74    21    20    2
    75   103   104    2
    76   101    98    1
    77     5     2    1
    78    20    19    1
    79   125   120   am
    80    80    83    1
    81    80    81    1
    82    88    86   ar
    83    84    83    1
    84    84    86   ar
    85     2     1    1
    86     2     3    1
    87    98    97    1
    88    98    99    1
    89    97    91   am
    90   121   120    2
    91   120   119    1
    92    23    22    1
    93    99   100    2
    94    19    18    1
    95    19    22    1
    96    81    89   am
    97    81    82    2
    98    89    90    1
    99    13    12    2
   100     3    10   am
   101     3     4    2
   102    10    11    1
   103    22    24    1
   104    91    90    1
   105    91    92    2
   106    90    93    1
   107   119   118    1
   108   119   122    1
   109    93    94    1
   110   124   122    1
   111    12    11    1
   112    11    14    1
   113   122   123    1
   114    94    95    1
   115    94    96    1
   116    14    15    1
   117   109   108    2
   118   136   135    2
   119    15    16    1
   120    15    17    1
   121   135   134    1
   122   137   138    1
   123   137   134    1
   124   108   107    1
   125   138   139   ar
   126   138   140   ar
   127   134   133    1
   128   139   141   ar
   129   106   107    1
   130   110   107    1
   131   110   111    1
   132   140   142   ar
   133   113   111   ar
   134   113   115   ar
   135   141   143   ar
   136   111   112   ar
   137   115   116   ar
   138   142   143   ar
   139   112   114   ar
   140   116   114   ar
   141   116   117    1
