@<TRIPOS>MOLECULE
tmp/3up2A00.pdb
 162 152 0 0 0
SMALL
GASTEIGER

@<TRIPOS>ATOM
      1  N         -6.3850   28.1580    4.7310 N.3    14  ARG14      -0.1245
      2  CA        -5.6330   28.4230    3.5160 C.3    14  ARG14       0.1563
      3  C         -4.2270   27.8520    3.6020 C.2    14  ARG14       0.2260
      4  O         -3.5800   27.9430    4.6440 O.2    14  ARG14      -0.2867
      5  CB        -5.5470   29.9340    3.3030 C.3    14  ARG14       0.0307
      6  CG        -4.5810   30.3550    2.2260 C.3    14  ARG14       0.0489
      7  CD        -4.6900   31.8380    1.9760 C.3    14  ARG14       0.2205
      8  NE        -3.8160   32.6270    2.8550 N.pl3  14  ARG14      -0.0865
      9  CZ        -2.5650   32.9800    2.5500 C.cat  14  ARG14       0.5346
     10  NH1       -2.0170   32.6090    1.3900 N.pl3  14  ARG14       0.1354
     11  NH2       -1.8600   33.7140    3.4080 N.pl3  14  ARG14       0.1354
     12  N         -0.4590   28.1020    3.1690 N.3    16  LEU16      -0.1231
     13  CA         0.4800   29.2160    3.1200 C.3    16  LEU16       0.1693
     14  C          1.5890   29.0050    2.0810 C.2    16  LEU16       0.2593
     15  O          2.0170   29.9550    1.4080 O.2    16  LEU16      -0.2718
     16  CB         1.0710   29.4700    4.5100 C.3    16  LEU16       0.0284
     17  CG         0.0120   29.8040    5.5630 C.3    16  LEU16       0.0019
     18  CD1        0.6720   30.1480    6.8850 C.3    16  LEU16       0.0001
     19  CD2       -0.8490   30.9780    5.0750 C.3    16  LEU16       0.0001
     20  N          2.0670   27.7700    1.9570 N.am   17  GLY17      -0.1942
     21  CA         3.0950   27.4840    0.9720 C.3    17  GLY17       0.2014
     22  C          3.8640   26.2090    1.2230 C.2    17  GLY17       0.2638
     23  O          3.3680   25.3140    1.9220 O.2    17  GLY17      -0.2714
     24  N          5.0790   26.1440    0.6660 N.am   18  LYS18      -0.1977
     25  CA         5.8760   24.9080    0.6320 C.3    18  LYS18       0.1596
     26  C          5.1280   23.7880   -0.1280 C.2    18  LYS18       0.2287
     27  O          3.9570   23.9510   -0.5010 O.2    18  LYS18      -0.2864
     28  CB         6.3030   24.4660    2.0470 C.3    18  LYS18       0.0298
     29  CG         7.6400   25.0480    2.4890 C.3    18  LYS18       0.0038
     30  CD         8.2290   24.2870    3.6940 C.3    18  LYS18       0.0206
     31  CE         9.2950   23.2600    3.2620 C.3    18  LYS18       0.1093
     32  NZ        10.3840   23.1390    4.2840 N.3    18  LYS18      -0.1314
     33  N          2.5350   24.0970    4.7200 N.3    24  VAL24      -0.1245
     34  CA         2.2210   24.9170    5.8840 C.3    24  VAL24       0.1561
     35  C          0.8300   25.5350    5.7270 C.2    24  VAL24       0.2260
     36  O          0.5250   26.1560    4.6930 O.2    24  VAL24      -0.2867
     37  CB         3.2410   26.0470    6.0730 C.3    24  VAL24       0.0252
     38  CG1        2.9260   26.8210    7.3500 C.3    24  VAL24       0.0019
     39  CG2        4.6660   25.4800    6.1120 C.3    24  VAL24       0.0019
     40  N          0.0050   28.8880   12.4880 N.3    37  ALA37      -0.1245
     41  CA         0.3580   28.1020   11.3080 C.3    37  ALA37       0.1562
     42  C          0.7120   26.6830   11.7130 C.2    37  ALA37       0.2260
     43  O          1.3420   26.4510   12.7520 O.2    37  ALA37      -0.2867
     44  CB         1.5240   28.7360   10.5570 C.3    37  ALA37       0.0290
     45  N          2.5140   23.2800   10.2920 N.3    39  LYS39      -0.1245
     46  CA         3.3570   22.6370    9.2830 C.3    39  LYS39       0.1561
     47  C          3.1740   21.1210    9.3330 C.2    39  LYS39       0.2260
     48  O          3.3780   20.4950   10.3750 O.2    39  LYS39      -0.2867
     49  CB         4.8280   23.0050    9.4970 C.3    39  LYS39       0.0271
     50  CG         5.7710   22.3910    8.4850 C.3    39  LYS39       0.0035
     51  CD         7.1240   23.0780    8.5400 C.3    39  LYS39       0.0206
     52  CE         8.0480   22.4980    7.4980 C.3    39  LYS39       0.1093
     53  NZ         9.4450   22.4460    8.0180 N.3    39  LYS39      -0.1314
     54  N         10.7920   33.1700   14.7250 N.3    71  LEU71      -0.1245
     55  CA         9.4390   32.5960   14.6910 C.3    71  LEU71       0.1561
     56  C          9.2620   31.5430   15.7910 C.2    71  LEU71       0.2260
     57  O         10.0220   30.5620   15.8620 O.2    71  LEU71      -0.2867
     58  CB         9.1480   31.9500   13.3320 C.3    71  LEU71       0.0270
     59  CG         7.6650   31.6840   13.0670 C.3    71  LEU71       0.0019
     60  CD1        7.0330   32.9930   12.5890 C.3    71  LEU71       0.0001
     61  CD2        7.4490   30.5640   12.0430 C.3    71  LEU71       0.0001
     62  N          3.0730   26.4480   14.8540 N.3    87  LEU87      -0.1231
     63  CA         3.9560   27.5780   14.6970 C.3    87  LEU87       0.1693
     64  C          3.2520   28.9190   14.8630 C.2    87  LEU87       0.2592
     65  O          2.0830   29.0840   14.4790 O.2    87  LEU87      -0.2718
     66  CB         4.5690   27.5140   13.3030 C.3    87  LEU87       0.0284
     67  CG         5.5470   26.3480   13.0680 C.3    87  LEU87       0.0019
     68  CD1        5.7390   26.0790   11.5830 C.3    87  LEU87       0.0001
     69  CD2        6.8890   26.6490   13.7380 C.3    87  LEU87       0.0001
     70  N          3.9730   29.8860   15.4140 N.am   88  GLU88      -0.1966
     71  CA         3.5500   31.2690   15.3100 C.3    88  GLU88       0.1733
     72  C          3.2520   31.5300   13.8290 C.2    88  GLU88       0.2616
     73  O          3.9660   31.0440   12.9350 O.2    88  GLU88      -0.2715
     74  CB         4.6530   32.2080   15.8040 C.3    88  GLU88       0.0429
     75  CG         4.4410   33.6740   15.4460 C.3    88  GLU88       0.1163
     76  CD         5.6130   34.5400   15.9270 C.2    88  GLU88       0.3649
     77  OE1        6.5440   33.9600   16.5600 O.co2  88  GLU88      -0.2457
     78  OE2        5.6030   35.7830   15.6750 O.co2  88  GLU88      -0.2457
     79  N          2.1710   32.2600   13.5780 N.am   89  TYR89      -0.1960
     80  CA         1.7690   32.6230   12.2290 C.3    89  TYR89       0.1771
     81  C          2.3410   34.0290   11.9380 C.2    89  TYR89       0.2619
     82  O          2.1150   34.9860   12.7050 O.2    89  TYR89      -0.2715
     83  CB         0.2280   32.5900   12.1350 C.3    89  TYR89       0.0574
     84  CG        -0.3640   33.4330   11.0200 C.ar   89  TYR89      -0.0198
     85  CD1       -0.0410   33.1910    9.6830 C.ar   89  TYR89      -0.0009
     86  CD2       -1.2690   34.4530   11.3030 C.ar   89  TYR89      -0.0009
     87  CE1       -0.5960   33.9600    8.6560 C.ar   89  TYR89       0.0417
     88  CE2       -1.8270   35.2200   10.2920 C.ar   89  TYR89       0.0417
     89  CZ        -1.4900   34.9690    8.9680 C.ar   89  TYR89       0.1957
     90  OH        -2.0430   35.7430    7.9630 O.3    89  TYR89      -0.2866
     91  N          3.1010   34.1640   10.8560 N.am   90  ALA90      -0.1964
     92  CA         3.6210   35.4820   10.4750 C.3    90  ALA90       0.1713
     93  C          2.7810   36.0120    9.3280 C.2    90  ALA90       0.2458
     94  O          2.8040   35.4390    8.2220 O.2    90  ALA90      -0.2730
     95  CB         5.0690   35.3760   10.0610 C.3    90  ALA90       0.0333
     96  N          2.0320   37.1080    9.5760 N.am   91  PRO91      -0.2727
     97  CA         0.9590   37.4630    8.6270 C.3    91  PRO91       0.1402
     98  C          1.4120   38.0660    7.2920 C.2    91  PRO91       0.2269
     99  O          0.6220   37.9850    6.3520 O.2    91  PRO91      -0.2865
    100  CB         0.0880   38.4860    9.4080 C.3    91  PRO91       0.0296
    101  CG         0.5390   38.3820   10.8560 C.3    91  PRO91       0.0237
    102  CD         2.0080   37.9580   10.7800 C.3    91  PRO91       0.0939
    103  N          3.9670   37.0730    5.2650 N.3    93  GLY93      -0.1210
    104  CA         4.5990   36.1510    4.3300 C.3    93  GLY93       0.1956
    105  C          6.1260   36.2240    4.3240 C.2    93  GLY93       0.2612
    106  O          6.7370   36.7850    5.2520 O.2    93  GLY93      -0.2717
    107  N          6.7430   35.6590    3.2830 N.am   94  THR94      -0.1952
    108  CA         8.2060   35.5340    3.2270 C.3    94  THR94       0.1897
    109  C          8.8960   36.8010    2.7250 C.2    94  THR94       0.2313
    110  O          8.3080   37.6200    1.9910 O.2    94  THR94      -0.2863
    111  CB         8.6490   34.3940    2.2910 C.3    94  THR94       0.1794
    112  OG1        8.4180   34.7930    0.9290 O.3    94  THR94      -0.2208
    113  CG2        7.8760   33.1320    2.5740 C.3    94  THR94       0.0378
    114  N          9.1480   36.5370   -1.1850 N.3    97  ARG97      -0.1245
    115  CA         8.0160   37.0980   -1.9240 C.3    97  ARG97       0.1563
    116  C          8.0950   38.6410   -1.9970 C.2    97  ARG97       0.2260
    117  O          7.8510   39.2260   -3.0600 O.2    97  ARG97      -0.2867
    118  CB         6.6580   36.6300   -1.3760 C.3    97  ARG97       0.0307
    119  CG         5.4990   37.1660   -2.2200 C.3    97  ARG97       0.0489
    120  CD         4.1310   36.6930   -1.7530 C.3    97  ARG97       0.2205
    121  NE         3.7720   37.2840   -0.4690 N.pl3  97  ARG97      -0.0865
    122  CZ         2.5510   37.2420    0.0620 C.cat  97  ARG97       0.5346
    123  NH1        1.5540   36.6450   -0.5900 N.pl3  97  ARG97       0.1354
    124  NH2        2.3270   37.8090    1.2480 N.pl3  97  ARG97       0.1354
    125  N         13.9310   32.9480    1.3950 N.3   137  GLU137     -0.1231
    126  CA        12.8680   31.9460    1.5360 C.3   137  GLU137      0.1699
    127  C         12.6310   31.4210    2.9580 C.2   137  GLU137      0.2592
    128  O         11.6030   30.7930    3.2090 O.2   137  GLU137     -0.2718
    129  CB        13.1030   30.7580    0.5970 C.3   137  GLU137      0.0402
    130  CG        12.7300   31.0340   -0.8480 C.3   137  GLU137      0.1161
    131  CD        13.5450   30.1870   -1.8170 C.2   137  GLU137      0.3649
    132  OE1       12.9410   29.6060   -2.7560 O.co2 137  GLU137     -0.2457
    133  OE2       14.7900   30.1100   -1.6310 O.co2 137  GLU137     -0.2457
    134  N         13.5740   31.6510    3.8690 N.am  138  ASN138     -0.1974
    135  CA        13.4570   31.1840    5.2690 C.3   138  ASN138      0.1688
    136  C         13.1750   32.3120    6.2540 C.2   138  ASN138      0.2292
    137  O         13.2750   32.1260    7.4690 O.2   138  ASN138     -0.2864
    138  CB        14.7480   30.4960    5.7330 C.3   138  ASN138      0.1181
    139  CG        14.9950   29.1970    5.0240 C.2   138  ASN138      0.2629
    140  OD1       14.0930   28.6410    4.3760 O.2   138  ASN138     -0.2716
    141  ND2       16.2230   28.6890    5.1390 N.am  138  ASN138     -0.0877
    142  N         10.4250   35.2170    7.4850 N.3   140  LEU140     -0.1245
    143  CA         9.0280   35.6500    7.4060 C.3   140  LEU140      0.1561
    144  C          8.9040   37.1020    7.8830 C.2   140  LEU140      0.2260
    145  O          9.8810   37.7010    8.3440 O.2   140  LEU140     -0.2867
    146  CB         8.1380   34.7240    8.2370 C.3   140  LEU140      0.0270
    147  CG         7.9540   33.2890    7.7140 C.3   140  LEU140      0.0019
    148  CD1        7.4390   32.3430    8.8160 C.3   140  LEU140      0.0001
    149  CD2        6.9900   33.2600    6.5330 C.3   140  LEU140      0.0001
    150  N         12.7060   32.0380   10.4020 N.3   150  ALA150     -0.1231
    151  CA        11.6240   31.0940   10.4310 C.3   150  ALA150      0.1694
    152  C         11.9810   29.6470   10.4600 C.2   150  ALA150      0.2592
    153  O         11.4250   28.9310   11.1980 O.2   150  ALA150     -0.2718
    154  CB        10.6870   31.3620    9.3030 C.3   150  ALA150      0.0304
    155  N         12.8440   29.2390    9.5360 N.am  151  ASP151     -0.1974
    156  CA        13.1290   27.8310    9.3160 C.3   151  ASP151      0.1709
    157  C         14.4630   27.4580    9.9260 C.2   151  ASP151      0.2293
    158  O         15.5050   27.9920    9.5470 O.2   151  ASP151     -0.2864
    159  CB        13.1270   27.5120    7.8200 C.3   151  ASP151      0.1436
    160  CG        13.0980   26.0220    7.5420 C.2   151  ASP151      0.3671
    161  OD1       12.3900   25.6050    6.6010 O.co2 151  ASP151     -0.2456
    162  OD2       13.7830   25.2680    8.2640 O.co2 151  ASP151     -0.2456
@<TRIPOS>BOND
     1   117   116    2
     2   132   131   ar
     3   119   120    1
     4   119   118    1
     5   116   115    1
     6   115   118    1
     7   115   114    1
     8   131   133   ar
     9   131   130    1
    10   120   121    1
    11   130   129    1
    12   123   122    1
    13    27    26    2
    14   121   122    2
    15    26    25    1
    16   122   124    1
    17   129   126    1
    18    25    24    1
    19    25    28    1
    20    24    22   am
    21   112   111    1
    22    21    22    1
    23    21    20    1
    24    22    23    2
    25    10     9    1
    26   125   126    1
    27    15    14    2
    28   126   127    1
    29    20    14   am
    30     7     6    1
    31     7     8    1
    32   110   109    2
    33    28    29    1
    34    14    13    1
    35     6     5    1
    36   111   113    1
    37   111   108    1
    38    29    30    1
    39     9     8    2
    40     9    11    1
    41   109   108    1
    42   127   128    2
    43   127   134   am
    44    13    12    1
    45    13    16    1
    46   108   107    1
    47    31    30    1
    48    31    32    1
    49   107   105   am
    50     5     2    1
    51     2     3    1
    52     2     1    1
    53     3     4    2
    54   134   135    1
    55   105   104    1
    56   105   106    2
    57   104   103    1
    58   140   139    2
    59    16    17    1
    60    36    35    2
    61    33    34    1
    62   139   141   am
    63   139   138    1
    64    19    17    1
    65   135   138    1
    66   135   136    1
    67    17    18    1
    68    35    34    1
    69    34    37    1
    70    37    39    1
    71    37    38    1
    72   136   137    2
    73    99    98    2
    74   149   147    1
    75   161   160   ar
    76    98    97    1
    77   143   142    1
    78   143   144    1
    79   143   146    1
    80    52    53    1
    81    52    51    1
    82   160   159    1
    83   160   162   ar
    84   147   146    1
    85   147   148    1
    86   159   156    1
    87   144   145    2
    88    90    89    1
    89    94    93    2
    90    50    51    1
    91    50    49    1
    92    97   100    1
    93    97    96    1
    94    87    89   ar
    95    87    85   ar
    96    89    88   ar
    97    46    47    1
    98    46    49    1
    99    46    45    1
   100   154   151    1
   101   156   155    1
   102   156   157    1
   103    93    96   am
   104    93    92    1
   105    47    48    2
   106   100   101    1
   107   155   152   am
   108   158   157    2
   109    96   102    1
   110    85    84   ar
   111    95    92    1
   112    88    86   ar
   113   150   151    1
   114   151   152    1
   115   152   153    2
   116    92    91    1
   117    44    41    1
   118   102   101    1
   119    91    81   am
   120    84    86   ar
   121    84    83    1
   122    41    42    1
   123    41    40    1
   124    68    67    1
   125    42    43    2
   126    81    80    1
   127    81    82    2
   128    61    59    1
   129    83    80    1
   130    80    79    1
   131    60    59    1
   132    73    72    2
   133    59    58    1
   134    67    66    1
   135    67    69    1
   136    66    63    1
   137    58    55    1
   138    79    72   am
   139    72    71    1
   140    65    64    2
   141    55    54    1
   142    55    56    1
   143    63    62    1
   144    63    64    1
   145    64    70   am
   146    71    70    1
   147    71    74    1
   148    75    74    1
   149    75    76    1
   150    78    76   ar
   151    56    57    2
   152    76    77   ar
