@<TRIPOS>MOLECULE
tmp/3up7A00.pdb
 162 152 0 0 0
SMALL
GASTEIGER

@<TRIPOS>ATOM
      1  N          6.9920  -28.0490    4.6630 N.3    14  ARG14      -0.1245
      2  CA         6.4010  -28.0870    3.3400 C.3    14  ARG14       0.1563
      3  C          4.9630  -27.6650    3.3840 C.2    14  ARG14       0.2260
      4  O          4.2700  -27.8310    4.3810 O.2    14  ARG14      -0.2867
      5  CB         6.4740  -29.4830    2.7280 C.3    14  ARG14       0.0307
      6  CG         5.2550  -30.3380    2.9450 C.3    14  ARG14       0.0489
      7  CD         5.3500  -31.6290    2.1440 C.3    14  ARG14       0.2205
      8  NE         4.3540  -32.6060    2.5880 N.pl3  14  ARG14      -0.0865
      9  CZ         3.1090  -32.7110    2.1200 C.cat  14  ARG14       0.5346
     10  NH1        2.6690  -31.9040    1.1610 N.pl3  14  ARG14       0.1354
     11  NH2        2.2910  -33.6140    2.6430 N.pl3  14  ARG14       0.1354
     12  N          1.2560  -27.9190    2.9880 N.3    16  LEU16      -0.1231
     13  CA         0.3300  -29.0380    2.9810 C.3    16  LEU16       0.1696
     14  C         -0.7290  -28.8040    1.9260 C.2    16  LEU16       0.2632
     15  O         -1.0640  -29.7140    1.1730 O.2    16  LEU16      -0.2714
     16  CB        -0.3110  -29.2210    4.3520 C.3    16  LEU16       0.0284
     17  CG         0.6860  -29.6670    5.4120 C.3    16  LEU16       0.0019
     18  CD1       -0.0020  -29.8330    6.7390 C.3    16  LEU16       0.0001
     19  CD2        1.3320  -30.9560    4.9640 C.3    16  LEU16       0.0001
     20  N         -1.2560  -27.5860    1.8600 N.am   17  GLY17      -0.1718
     21  CA        -2.2510  -27.3030    0.8430 C.2    17  GLY17       0.1480
     22  C         -3.0050  -25.9860    0.9050 C.2    17  GLY17       0.2820
     23  O         -2.5290  -24.9790    1.4480 O.2    17  GLY17      -0.2669
     24  N         -4.1980  -26.0210    0.3110 N.am   18  LYS18      -0.1943
     25  CA        -5.1380  -24.8970    0.2410 C.3    18  LYS18       0.1599
     26  C         -4.6840  -23.6840   -0.5770 C.2    18  LYS18       0.2287
     27  O         -3.5910  -23.6670   -1.1550 O.2    18  LYS18      -0.2864
     28  CB        -5.5350  -24.4350    1.6520 C.3    18  LYS18       0.0298
     29  CG        -7.0350  -24.4540    1.9010 C.3    18  LYS18       0.0038
     30  CD        -7.4790  -23.2370    2.6950 C.3    18  LYS18       0.0206
     31  CE        -8.9790  -23.2490    2.9160 C.3    18  LYS18       0.1093
     32  NZ        -9.4400  -21.9470    3.4590 N.3    18  LYS18      -0.1314
     33  N         -1.9220  -23.8850    4.2930 N.3    24  VAL24      -0.1245
     34  CA        -1.6580  -24.7230    5.4570 C.3    24  VAL24       0.1561
     35  C         -0.2760  -25.3550    5.2900 C.2    24  VAL24       0.2260
     36  O         -0.0180  -26.0510    4.3050 O.2    24  VAL24      -0.2867
     37  CB        -2.6850  -25.8480    5.5980 C.3    24  VAL24       0.0252
     38  CG1       -2.3980  -26.6520    6.8630 C.3    24  VAL24       0.0019
     39  CG2       -4.0780  -25.2660    5.6430 C.3    24  VAL24       0.0019
     40  N          0.3000  -28.5850   12.2600 N.3    37  ALA37      -0.1245
     41  CA        -0.0840  -27.8500   11.0710 C.3    37  ALA37       0.1562
     42  C         -0.2580  -26.4130   11.4850 C.2    37  ALA37       0.2260
     43  O         -0.7900  -26.1330   12.5440 O.2    37  ALA37      -0.2867
     44  CB        -1.3640  -28.3810   10.5130 C.3    37  ALA37       0.0290
     45  N         -1.8230  -23.0550    9.8430 N.3    39  LYS39      -0.1245
     46  CA        -2.6130  -22.5080    8.7350 C.3    39  LYS39       0.1561
     47  C         -2.5760  -20.9910    8.7870 C.2    39  LYS39       0.2260
     48  O         -3.0500  -20.4010    9.7460 O.2    39  LYS39      -0.2867
     49  CB        -4.0510  -22.9990    8.8250 C.3    39  LYS39       0.0271
     50  CG        -5.0170  -22.1870    8.0020 C.3    39  LYS39       0.0035
     51  CD        -6.2860  -22.9630    7.6960 C.3    39  LYS39       0.0206
     52  CE        -6.9570  -23.4780    8.9470 C.3    39  LYS39       0.1093
     53  NZ        -8.0880  -24.3590    8.5640 N.3    39  LYS39      -0.1314
     54  N        -10.3790  -32.8310   14.6710 N.3    71  LEU71      -0.1245
     55  CA        -9.0130  -32.3360   14.5160 C.3    71  LEU71       0.1561
     56  C         -8.8180  -31.3520   15.6480 C.2    71  LEU71       0.2260
     57  O         -9.6030  -30.4200   15.8030 O.2    71  LEU71      -0.2867
     58  CB        -8.8430  -31.6150   13.1760 C.3    71  LEU71       0.0270
     59  CG        -7.3970  -31.4490   12.7310 C.3    71  LEU71       0.0019
     60  CD1       -6.9830  -32.7100   12.0030 C.3    71  LEU71       0.0001
     61  CD2       -7.2470  -30.2630   11.8240 C.3    71  LEU71       0.0001
     62  N         -2.8090  -26.1120   14.3920 N.3    87  LEU87      -0.1231
     63  CA        -3.6540  -27.2970   14.3670 C.3    87  LEU87       0.1693
     64  C         -2.9470  -28.6250   14.4980 C.2    87  LEU87       0.2592
     65  O         -1.7490  -28.7630   14.2620 O.2    87  LEU87      -0.2718
     66  CB        -4.4520  -27.3490   13.0600 C.3    87  LEU87       0.0284
     67  CG        -5.1880  -26.1210   12.5250 C.3    87  LEU87       0.0019
     68  CD1       -5.8160  -26.4730   11.2040 C.3    87  LEU87       0.0001
     69  CD2       -6.2500  -25.6610   13.5120 C.3    87  LEU87       0.0001
     70  N         -3.7330  -29.6210   14.8610 N.am   88  GLU88      -0.1966
     71  CA        -3.2370  -30.9800   14.9740 C.3    88  GLU88       0.1733
     72  C         -2.8680  -31.2910   13.5240 C.2    88  GLU88       0.2616
     73  O         -3.5490  -30.8430   12.6080 O.2    88  GLU88      -0.2715
     74  CB        -4.3770  -31.9010   15.4330 C.3    88  GLU88       0.0429
     75  CG        -3.9690  -33.2990   15.8200 C.3    88  GLU88       0.1163
     76  CD        -5.1460  -34.2640   15.9220 C.2    88  GLU88       0.3649
     77  OE1       -6.2270  -33.8710   16.4500 O.co2  88  GLU88      -0.2457
     78  OE2       -4.9700  -35.4260   15.4800 O.co2  88  GLU88      -0.2457
     79  N         -1.7960  -32.0310   13.3020 N.am   89  TYR89      -0.1960
     80  CA        -1.3970  -32.3850   11.9430 C.3    89  TYR89       0.1771
     81  C         -1.9350  -33.8020   11.6270 C.2    89  TYR89       0.2619
     82  O         -1.7580  -34.7170   12.4300 O.2    89  TYR89      -0.2715
     83  CB         0.1310  -32.3080   11.8680 C.3    89  TYR89       0.0574
     84  CG         0.7800  -33.1170   10.7750 C.ar   89  TYR89      -0.0198
     85  CD1        0.7570  -32.6860    9.4460 C.ar   89  TYR89      -0.0009
     86  CD2        1.4050  -34.3300   11.0620 C.ar   89  TYR89      -0.0009
     87  CE1        1.3390  -33.4470    8.4330 C.ar   89  TYR89       0.0417
     88  CE2        1.9820  -35.0900   10.0570 C.ar   89  TYR89       0.0417
     89  CZ         1.9430  -34.6440    8.7510 C.ar   89  TYR89       0.1957
     90  OH         2.4990  -35.4120    7.7560 O.3    89  TYR89      -0.2866
     91  N         -2.6200  -33.9730   10.4900 N.am   90  ALA90      -0.1964
     92  CA        -3.1740  -35.2800   10.0740 C.3    90  ALA90       0.1713
     93  C         -2.2790  -35.8700    8.9900 C.2    90  ALA90       0.2458
     94  O         -2.3600  -35.4630    7.8430 O.2    90  ALA90      -0.2730
     95  CB        -4.5700  -35.0980    9.5320 C.3    90  ALA90       0.0333
     96  N         -1.4440  -36.8650    9.3370 N.am   91  PRO91      -0.2727
     97  CA        -0.4850  -37.5630    8.4760 C.3    91  PRO91       0.1402
     98  C         -0.9520  -38.1140    7.1500 C.2    91  PRO91       0.2269
     99  O         -0.1720  -38.1400    6.1910 O.2    91  PRO91      -0.2865
    100  CB         0.0370  -38.6900    9.3610 C.3    91  PRO91       0.0296
    101  CG        -0.1530  -38.1780   10.7240 C.3    91  PRO91       0.0237
    102  CD        -1.5250  -37.5470   10.6350 C.3    91  PRO91       0.0939
    103  N         -3.3550  -37.0000    4.9470 N.3    93  GLY93      -0.1210
    104  CA        -4.1080  -36.1440    4.0400 C.3    93  GLY93       0.1956
    105  C         -5.6050  -36.0680    4.2610 C.2    93  GLY93       0.2612
    106  O         -6.1120  -36.4550    5.3170 O.2    93  GLY93      -0.2717
    107  N         -6.3080  -35.5430    3.2650 N.am   94  THR94      -0.1952
    108  CA        -7.7510  -35.4140    3.3530 C.3    94  THR94       0.1897
    109  C         -8.3950  -36.6850    2.7950 C.2    94  THR94       0.2313
    110  O         -7.7320  -37.4870    2.1450 O.2    94  THR94      -0.2863
    111  CB        -8.2590  -34.1760    2.5640 C.3    94  THR94       0.1794
    112  OG1       -8.3640  -34.4930    1.1690 O.3    94  THR94      -0.2208
    113  CG2       -7.2990  -33.0020    2.7370 C.3    94  THR94       0.0378
    114  N         -8.7740  -36.6100   -1.1120 N.3    97  ARG97      -0.1245
    115  CA        -7.7220  -37.1090   -1.9850 C.3    97  ARG97       0.1563
    116  C         -7.7980  -38.6430   -2.0150 C.2    97  ARG97       0.2260
    117  O         -7.6100  -39.2670   -3.0570 O.2    97  ARG97      -0.2867
    118  CB        -6.3630  -36.6400   -1.4850 C.3    97  ARG97       0.0307
    119  CG        -6.2260  -35.1180   -1.4240 C.3    97  ARG97       0.0489
    120  CD        -5.0960  -34.6810   -0.4810 C.3    97  ARG97       0.2205
    121  NE        -3.8370  -35.3770   -0.7670 N.pl3  97  ARG97      -0.0865
    122  CZ        -3.5290  -36.6210   -0.3790 C.cat  97  ARG97       0.5346
    123  NH1       -4.3880  -37.3490    0.3360 N.pl3  97  ARG97       0.1354
    124  NH2       -2.3510  -37.1460   -0.7140 N.pl3  97  ARG97       0.1354
    125  N        -13.6230  -33.1400    1.9870 N.3   137  GLU137     -0.1231
    126  CA       -12.3910  -32.3500    1.9390 C.3   137  GLU137      0.1699
    127  C        -12.1720  -31.6490    3.2790 C.2   137  GLU137      0.2592
    128  O        -11.1950  -30.9150    3.4830 O.2   137  GLU137     -0.2718
    129  CB       -12.4440  -31.3370    0.7930 C.3   137  GLU137      0.0402
    130  CG       -13.6420  -30.4420    0.8520 C.3   137  GLU137      0.1161
    131  CD       -14.2090  -30.1610   -0.5170 C.2   137  GLU137      0.3649
    132  OE1      -14.3090  -31.1280   -1.3200 O.co2 137  GLU137     -0.2457
    133  OE2      -14.5640  -28.9820   -0.7780 O.co2 137  GLU137     -0.2457
    134  N        -13.1050  -31.8880    4.1910 N.am  138  ASN138     -0.1974
    135  CA       -13.0140  -31.3420    5.5310 C.3   138  ASN138      0.1688
    136  C        -12.9130  -32.5330    6.4450 C.2   138  ASN138      0.2292
    137  O        -13.2720  -32.4770    7.6100 O.2   138  ASN138     -0.2864
    138  CB       -14.2380  -30.5030    5.8910 C.3   138  ASN138      0.1181
    139  CG       -14.1410  -29.0980    5.3470 C.2   138  ASN138      0.2629
    140  OD1      -13.0570  -28.6560    4.9510 O.2   138  ASN138     -0.2716
    141  ND2      -15.2610  -28.3820    5.3320 N.am  138  ASN138     -0.0877
    142  N        -10.0560  -35.2990    7.5430 N.3   140  LEU140     -0.1245
    143  CA        -8.6790  -35.7140    7.4530 C.3   140  LEU140      0.1561
    144  C         -8.4400  -37.1640    7.8790 C.2   140  LEU140      0.2260
    145  O         -9.3750  -37.9210    8.1610 O.2   140  LEU140     -0.2867
    146  CB        -7.8270  -34.7710    8.2880 C.3   140  LEU140      0.0270
    147  CG        -7.9690  -33.3530    7.7520 C.3   140  LEU140      0.0019
    148  CD1       -7.2420  -32.3580    8.6420 C.3   140  LEU140      0.0001
    149  CD2       -7.4330  -33.3400    6.3330 C.3   140  LEU140      0.0001
    150  N        -12.5360  -31.6910   10.5410 N.3   150  ALA150     -0.1231
    151  CA       -11.8800  -30.3910   10.5720 C.3   150  ALA150      0.1694
    152  C        -12.7620  -29.2790   10.0320 C.2   150  ALA150      0.2592
    153  O        -13.8970  -29.5060    9.6090 O.2   150  ALA150     -0.2718
    154  CB       -10.6050  -30.4420    9.7630 C.3   150  ALA150      0.0304
    155  N        -12.2070  -28.0710   10.0680 N.am  151  ASP151     -0.1974
    156  CA       -12.8410  -26.8550    9.5670 C.3   151  ASP151      0.1709
    157  C        -14.2200  -26.5530   10.1360 C.2   151  ASP151      0.2293
    158  O        -15.2150  -26.5400    9.4090 O.2   151  ASP151     -0.2864
    159  CB       -12.9050  -26.9000    8.0310 C.3   151  ASP151      0.1436
    160  CG       -11.5530  -27.2720    7.3860 C.2   151  ASP151      0.3671
    161  OD1      -11.4370  -27.2250    6.1380 O.co2 151  ASP151     -0.2456
    162  OD2      -10.5970  -27.6200    8.1200 O.co2 151  ASP151     -0.2456
@<TRIPOS>BOND
     1   117   116    2
     2   116   115    1
     3   115   118    1
     4   115   114    1
     5   118   119    1
     6   119   120    1
     7   132   131   ar
     8    27    26    2
     9   133   131   ar
    10   121   120    1
    11   121   122    2
    12   124   122    1
    13    26    25    1
    14   131   130    1
    15   122   123    1
    16    25    24    1
    17    25    28    1
    18    24    22   am
    19   129   130    1
    20   129   126    1
    21    21    22    1
    22    21    20    2
    23    22    23    2
    24    10     9    1
    25   112   111    1
    26    15    14    2
    27    28    29    1
    28    20    14    1
    29    29    30    1
    30    14    13    1
    31   126   125    1
    32   126   127    1
    33     9     8    2
    34     9    11    1
    35     7     8    1
    36     7     6    1
    37   110   109    2
    38   111   113    1
    39   111   108    1
    40    30    31    1
    41     5     6    1
    42     5     2    1
    43   109   108    1
    44    31    32    1
    45    13    12    1
    46    13    16    1
    47   107   108    1
    48   107   105   am
    49   127   128    2
    50   127   134   am
    51     2     3    1
    52     2     1    1
    53     3     4    2
    54   104   105    1
    55   104   103    1
    56   134   135    1
    57   105   106    2
    58    33    34    1
    59    36    35    2
    60    16    17    1
    61   140   139    2
    62    19    17    1
    63    35    34    1
    64   141   139   am
    65   139   138    1
    66    17    18    1
    67    34    37    1
    68   135   138    1
    69   135   136    1
    70    37    39    1
    71    37    38    1
    72   161   160   ar
    73    99    98    2
    74   149   147    1
    75   136   137    2
    76    98    97    1
    77   160   159    1
    78   160   162   ar
    79   143   142    1
    80   143   144    1
    81   143   146    1
    82    51    50    1
    83    51    52    1
    84   147   146    1
    85   147   148    1
    86    90    89    1
    87    94    93    2
    88   144   145    2
    89    50    49    1
    90   159   156    1
    91    87    89   ar
    92    87    85   ar
    93    97    96    1
    94    97   100    1
    95    53    52    1
    96    46    47    1
    97    46    49    1
    98    46    45    1
    99    89    88   ar
   100    47    48    2
   101    93    96   am
   102    93    92    1
   103    96   102    1
   104   100   101    1
   105   158   157    2
   106    85    84   ar
   107    95    92    1
   108   156   155    1
   109   156   157    1
   110   153   152    2
   111   154   151    1
   112   152   155   am
   113   152   151    1
   114    88    86   ar
   115    92    91    1
   116    91    81   am
   117    44    41    1
   118   150   151    1
   119   102   101    1
   120    84    86   ar
   121    84    83    1
   122    41    42    1
   123    41    40    1
   124    68    67    1
   125    42    43    2
   126    81    80    1
   127    81    82    2
   128    61    59    1
   129    83    80    1
   130    80    79    1
   131    60    59    1
   132    67    66    1
   133    67    69    1
   134    73    72    2
   135    59    58    1
   136    66    63    1
   137    58    55    1
   138    79    72   am
   139    72    71    1
   140    65    64    2
   141    63    62    1
   142    63    64    1
   143    64    70   am
   144    55    54    1
   145    55    56    1
   146    70    71    1
   147    71    74    1
   148    74    75    1
   149    78    76   ar
   150    56    57    2
   151    75    76    1
   152    76    77   ar
