@<TRIPOS>MOLECULE
tmp/3up9A00.pdb
 119 112 0 0 0
SMALL
GASTEIGER

@<TRIPOS>ATOM
      1  N         33.8040   27.2510   52.0960 N.3    14  HIS14      -0.1241
      2  CA        32.8640   26.1780   52.3820 C.3    14  HIS14       0.1621
      3  C         32.5970   25.3020   51.1780 C.2    14  HIS14       0.2264
      4  O         32.7700   24.1010   51.2670 O.2    14  HIS14      -0.2867
      5  CB        31.5610   26.7410   52.9690 C.3    14  HIS14       0.0745
      6  CG        31.7800   27.6950   54.1140 C.ar   14  HIS14       0.0817
      7  ND1       32.1710   28.9480   53.9190 N.ar   14  HIS14      -0.2268
      8  CD2       31.6700   27.5190   55.4990 C.ar   14  HIS14       0.1154
      9  CE1       32.3150   29.5470   55.1280 C.ar   14  HIS14       0.1986
     10  NE2       32.0230   28.6620   56.0810 N.ar   14  HIS14      -0.2212
     11  N         23.8790   35.5740   53.8050 N.3    41  TYR41      -0.1241
     12  CA        23.7460   34.8110   55.0300 C.3    41  TYR41       0.1605
     13  C         22.3130   34.4100   55.3420 C.2    41  TYR41       0.2264
     14  O         22.1160   33.3880   55.9820 O.2    41  TYR41      -0.2867
     15  CB        24.3640   35.5890   56.1930 C.3    41  TYR41       0.0534
     16  CG        25.9040   35.7350   56.1970 C.ar   41  TYR41      -0.0201
     17  CD1       26.7110   34.8500   55.5040 C.ar   41  TYR41      -0.0009
     18  CD2       26.5280   36.7250   56.9780 C.ar   41  TYR41      -0.0009
     19  CE1       28.0770   34.9600   55.5340 C.ar   41  TYR41       0.0417
     20  CE2       27.9140   36.8270   57.0440 C.ar   41  TYR41       0.0417
     21  CZ        28.6780   35.9420   56.3150 C.ar   41  TYR41       0.1957
     22  OH        30.0540   35.9850   56.3620 O.3    41  TYR41      -0.2866
     23  N         27.9880   27.2040   56.3030 N.3    58  TYR58      -0.1227
     24  CA        28.3670   28.5920   56.0270 C.3    58  TYR58       0.1736
     25  C         28.4150   29.4790   57.2630 C.2    58  TYR58       0.2595
     26  O         28.9170   30.5600   57.1690 O.2    58  TYR58      -0.2718
     27  CB        27.3980   29.2340   55.0190 C.3    58  TYR58       0.0548
     28  CG        26.1290   29.7960   55.6200 C.ar   58  TYR58      -0.0200
     29  CD1       25.0810   28.9660   55.9880 C.ar   58  TYR58      -0.0009
     30  CD2       25.9740   31.1490   55.8160 C.ar   58  TYR58      -0.0009
     31  CE1       23.9100   29.4670   56.5490 C.ar   58  TYR58       0.0417
     32  CE2       24.8270   31.6410   56.3780 C.ar   58  TYR58       0.0417
     33  CZ        23.7970   30.7990   56.7650 C.ar   58  TYR58       0.1957
     34  OH        22.6430   31.3220   57.3060 O.3    58  TYR58      -0.2866
     35  N         27.8660   29.0300   58.3990 N.am   59  GLN59      -0.1965
     36  CA        27.6230   29.9120   59.5110 C.3    59  GLN59       0.1733
     37  C         28.3860   29.5230   60.7950 C.2    59  GLN59       0.2617
     38  O         28.8380   28.3910   60.9540 O.2    59  GLN59      -0.2715
     39  CB        26.1240   30.0550   59.7490 C.3    59  GLN59       0.0408
     40  CG        25.4860   28.9810   60.5740 C.3    59  GLN59       0.0908
     41  CD        23.9910   28.9980   60.4450 C.2    59  GLN59       0.2608
     42  OE1       23.3440   29.8740   60.9970 O.2    59  GLN59      -0.2717
     43  NE2       23.4350   28.0320   59.7200 N.am   59  GLN59      -0.0878
     44  N         28.5480   30.5100   61.6610 N.am   60  THR60      -0.1951
     45  CA        29.2990   30.4200   62.8760 C.3    60  THR60       0.1897
     46  C         28.2840   30.1010   63.9510 C.2    60  THR60       0.2313
     47  O         27.1000   30.3350   63.7970 O.2    60  THR60      -0.2863
     48  CB        30.0640   31.7520   63.2110 C.3    60  THR60       0.1794
     49  OG1       29.1110   32.8430   63.4260 O.3    60  THR60      -0.2208
     50  CG2       31.0670   32.1490   62.0850 C.3    60  THR60       0.0378
     51  N         26.2700   33.2260   65.2150 N.3    63  TYR63      -0.1241
     52  CA        25.2650   33.6200   64.2600 C.3    63  TYR63       0.1605
     53  C         24.0790   32.6520   64.3060 C.2    63  TYR63       0.2264
     54  O         22.9140   33.0970   64.2850 O.2    63  TYR63      -0.2867
     55  CB        25.8870   33.6650   62.8560 C.3    63  TYR63       0.0534
     56  CG        24.8940   33.9840   61.7640 C.ar   63  TYR63      -0.0201
     57  CD1       24.0820   32.9820   61.2180 C.ar   63  TYR63      -0.0009
     58  CD2       24.7670   35.2690   61.2680 C.ar   63  TYR63      -0.0009
     59  CE1       23.1730   33.2700   60.2090 C.ar   63  TYR63       0.0417
     60  CE2       23.8600   35.5460   60.2560 C.ar   63  TYR63       0.0417
     61  CZ        23.0500   34.5500   59.7390 C.ar   63  TYR63       0.1957
     62  OH        22.0870   34.8330   58.7580 O.3    63  TYR63      -0.2866
     63  N         37.3810   31.5780   60.5220 N.3    84  GLU84      -0.1245
     64  CA        37.8180   32.6320   59.5980 C.3    84  GLU84       0.1567
     65  C         38.0210   33.9140   60.3840 C.2    84  GLU84       0.2260
     66  O         37.0250   34.5830   60.6720 O.2    84  GLU84      -0.2867
     67  CB        36.7500   32.9110   58.5340 C.3    84  GLU84       0.0388
     68  CG        36.6020   31.8990   57.4120 C.3    84  GLU84       0.1160
     69  CD        35.1850   31.8850   56.8490 C.2    84  GLU84       0.3649
     70  OE1       34.5920   32.9710   56.6790 O.co2  84  GLU84      -0.2457
     71  OE2       34.6250   30.7890   56.6080 O.co2  84  GLU84      -0.2457
     72  N         27.1000   39.4050   63.4190 N.3   113  ASN113     -0.1240
     73  CA        28.3390   39.8140   62.7510 C.3   113  ASN113      0.1653
     74  C         28.7100   41.2880   62.9570 C.2   113  ASN113      0.2266
     75  O         29.9110   41.6070   63.0330 O.2   113  ASN113     -0.2867
     76  CB        28.3270   39.4490   61.2480 C.3   113  ASN113      0.1155
     77  CG        28.4100   37.9620   61.0250 C.2   113  ASN113      0.2627
     78  OD1       29.3460   37.2920   61.4870 O.2   113  ASN113     -0.2716
     79  ND2       27.4040   37.4260   60.3790 N.am  113  ASN113     -0.0877
     80  N         30.1380   41.1980   66.3560 N.3   116  ARG116     -0.1245
     81  CA        31.5020   40.6850   66.3400 C.3   116  ARG116      0.1563
     82  C         32.5570   41.7240   65.7990 C.2   116  ARG116      0.2260
     83  O         33.6610   41.8200   66.3360 O.2   116  ARG116     -0.2867
     84  CB        31.5030   39.3860   65.5550 C.3   116  ARG116      0.0307
     85  CG        32.8650   38.8120   65.2490 C.3   116  ARG116      0.0489
     86  CD        32.6680   37.5770   64.3930 C.3   116  ARG116      0.2205
     87  NE        33.8880   36.8510   64.0470 N.pl3 116  ARG116     -0.0865
     88  CZ        33.9280   35.9530   63.0660 C.cat 116  ARG116      0.5346
     89  NH1       32.8330   35.6390   62.4130 N.pl3 116  ARG116      0.1354
     90  NH2       35.0280   35.3060   62.8030 N.pl3 116  ARG116      0.1354
     91  N         33.9640   39.7290   56.9910 N.3   168  ASN168     -0.1240
     92  CA        34.0890   38.3020   57.2420 C.3   168  ASN168      0.1653
     93  C         34.8940   37.6210   56.1640 C.2   168  ASN168      0.2266
     94  O         34.8110   37.9860   54.9400 O.2   168  ASN168     -0.2867
     95  CB        32.6900   37.6520   57.3280 C.3   168  ASN168      0.1155
     96  CG        31.8270   38.2180   58.4680 C.2   168  ASN168      0.2627
     97  OD1       31.3110   39.3460   58.4010 O.2   168  ASN168     -0.2716
     98  ND2       31.6760   37.4340   59.5130 N.am  168  ASN168     -0.0877
     99  N         34.7160   34.7690   54.3260 N.3   170  ASN170     -0.1240
    100  CA        34.0440   34.3240   53.1130 C.3   170  ASN170      0.1653
    101  C         33.8960   35.4380   52.1010 C.2   170  ASN170      0.2266
    102  O         34.0630   35.1710   50.9420 O.2   170  ASN170     -0.2867
    103  CB        32.6720   33.6550   53.3690 C.3   170  ASN170      0.1155
    104  CG        31.6270   34.6100   53.9170 C.2   170  ASN170      0.2627
    105  OD1       31.6950   35.0210   55.0800 O.2   170  ASN170     -0.2716
    106  ND2       30.6540   34.9690   53.0890 N.am  170  ASN170     -0.0877
    107  N         33.6660   31.9390   67.1670 N.3   194  ALA194     -0.1245
    108  CA        33.0660   31.9990   65.8340 C.3   194  ALA194      0.1562
    109  C         33.5180   30.8910   64.8940 C.2   194  ALA194      0.2260
    110  O         33.8840   31.1510   63.7180 O.2   194  ALA194     -0.2867
    111  CB        33.2800   33.3740   65.1790 C.3   194  ALA194      0.0290
    112  N         32.8570   27.7330   62.4100 N.3   196  ASN196     -0.1240
    113  CA        31.9000   27.3980   61.3730 C.3   196  ASN196      0.1653
    114  C         31.4210   25.9470   61.4320 C.2   196  ASN196      0.2266
    115  O         32.2100   25.0330   61.4850 O.2   196  ASN196     -0.2867
    116  CB        32.5310   27.6360   59.9910 C.3   196  ASN196      0.1155
    117  CG        32.6420   29.0910   59.6420 C.2   196  ASN196      0.2627
    118  OD1       31.8350   29.6140   58.8490 O.2   196  ASN196     -0.2716
    119  ND2       33.6740   29.7530   60.1930 N.am  196  ASN196     -0.0877
@<TRIPOS>BOND
     1   102   101    2
     2     3     4    2
     3     3     2    1
     4     1     2    1
     5   101   100    1
     6     2     5    1
     7     5     6    1
     8   106   104   am
     9   100   103    1
    10   100    99    1
    11   103   104    1
    12    11    12    1
    13   104   105    2
    14     7     6   ar
    15     7     9   ar
    16     6     8   ar
    17    94    93    2
    18    27    28    1
    19    27    24    1
    20    12    13    1
    21    12    15    1
    22     9    10   ar
    23    13    14    2
    24     8    10   ar
    25    17    19   ar
    26    17    16   ar
    27    19    21   ar
    28    28    30   ar
    29    28    29   ar
    30    30    32   ar
    31    29    31   ar
    32    24    23    1
    33    24    25    1
    34    93    92    1
    35    15    16    1
    36    16    18   ar
    37    21    22    1
    38    21    20   ar
    39    32    33   ar
    40    31    33   ar
    41    71    69   ar
    42    70    69   ar
    43    33    34    1
    44    69    68    1
    45    18    20   ar
    46    91    92    1
    47    26    25    2
    48    92    95    1
    49    25    35   am
    50    95    96    1
    51    68    67    1
    52    35    36    1
    53    97    96    2
    54    96    98   am
    55    67    64    1
    56    62    61    1
    57   118   117    2
    58    36    39    1
    59    36    37    1
    60    64    65    1
    61    64    63    1
    62   117   116    1
    63   117   119   am
    64    43    41   am
    65    61    59   ar
    66    61    60   ar
    67    39    40    1
    68   116   113    1
    69    59    57   ar
    70    60    58   ar
    71    79    77   am
    72    65    66    2
    73    41    40    1
    74    41    42    2
    75    37    38    2
    76    37    44   am
    77    77    76    1
    78    77    78    2
    79    57    56   ar
    80    76    73    1
    81    58    56   ar
    82   113   114    1
    83   113   112    1
    84   114   115    2
    85    44    45    1
    86    56    55    1
    87    50    48    1
    88    89    88    1
    89    73    74    1
    90    73    72    1
    91    90    88    1
    92    55    52    1
    93    45    48    1
    94    45    46    1
    95    74    75    2
    96    88    87    2
    97    48    49    1
    98   110   109    2
    99    47    46    2
   100    87    86    1
   101    52    53    1
   102    52    51    1
   103    54    53    2
   104    86    85    1
   105   109   108    1
   106   111   108    1
   107    85    84    1
   108    84    81    1
   109    82    83    2
   110    82    81    1
   111   108   107    1
   112    81    80    1
