@<TRIPOS>MOLECULE
tmp/3up9A05.pdb
 94 91 0 0 0
SMALL
GASTEIGER

@<TRIPOS>ATOM
      1  N         30.7890   30.2960   48.7540 N.3    11  PRO11      -0.2102
      2  CA        31.7660   29.6050   47.8580 C.3    11  PRO11       0.1504
      3  C         33.1350   29.2700   48.4510 C.2    11  PRO11       0.2576
      4  O         33.6710   28.2030   48.1550 O.2    11  PRO11      -0.2718
      5  CB        31.9360   30.5720   46.7120 C.3    11  PRO11       0.0282
      6  CG        30.7220   31.4130   46.7470 C.3    11  PRO11       0.0208
      7  CD        30.2200   31.4890   48.1400 C.3    11  PRO11       0.0893
      8  N         33.7240   30.1870   49.2260 N.am   12  SER12      -0.1953
      9  CA        35.0750   29.9560   49.7700 C.3    12  SER12       0.1924
     10  C         35.1090   30.3700   51.2190 C.2    12  SER12       0.2314
     11  O         34.7170   31.4710   51.5480 O.2    12  SER12      -0.2863
     12  CB        36.1400   30.7040   48.9710 C.3    12  SER12       0.2116
     13  OG        37.4070   30.2410   49.3470 O.3    12  SER12      -0.2180
     14  N         32.1930   25.8690   50.0470 N.3    15  ALA15      -0.1231
     15  CA        31.9570   25.0270   48.8670 C.3    15  ALA15       0.1694
     16  C         33.2290   24.3390   48.4130 C.2    15  ALA15       0.2591
     17  O         33.1700   23.2000   47.9930 O.2    15  ALA15      -0.2718
     18  CB        31.2630   25.7580   47.7130 C.3    15  ALA15       0.0304
     19  N         34.3840   24.9800   48.5090 N.am   16  LYS16      -0.1980
     20  CA        35.6470   24.2800   48.1530 C.3    16  LYS16       0.1596
     21  C         35.9280   23.0360   49.0410 C.2    16  LYS16       0.2287
     22  O         36.3190   21.9760   48.5590 O.2    16  LYS16      -0.2864
     23  CB        36.8410   25.2410   48.2060 C.3    16  LYS16       0.0298
     24  CG        36.7610   26.3700   47.2170 C.3    16  LYS16       0.0038
     25  CD        38.0690   27.1460   47.0710 C.3    16  LYS16       0.0206
     26  CE        38.1440   27.9950   45.7830 C.3    16  LYS16       0.1093
     27  NZ        38.9610   27.4760   44.6220 N.3    16  LYS16      -0.1314
     28  N         33.6960   20.3040   48.0890 N.3    19  THR19      -0.1218
     29  CA        33.9900   19.7770   46.7730 C.3    19  THR19       0.1862
     30  C         35.1740   18.7770   46.9500 C.2    19  THR19       0.2287
     31  O         35.1050   17.6710   46.4130 O.2    19  THR19      -0.2866
     32  CB        34.2440   20.9000   45.7570 C.3    19  THR19       0.1770
     33  OG1       33.0530   21.6900   45.6300 O.3    19  THR19      -0.2211
     34  CG2       34.6310   20.3580   44.3590 C.3    19  THR19       0.0375
     35  N         25.7140   26.8380   45.9820 N.3    37  GLU37      -0.1245
     36  CA        26.4940   27.9730   46.4640 C.3    37  GLU37       0.1567
     37  C         25.5600   29.1550   46.7510 C.2    37  GLU37       0.2260
     38  O         24.5300   29.3360   46.0720 O.2    37  GLU37      -0.2867
     39  CB        27.5900   28.3090   45.4490 C.3    37  GLU37       0.0388
     40  CG        28.6440   27.2280   45.4430 C.3    37  GLU37       0.1160
     41  CD        29.8600   27.5440   44.6140 C.2    37  GLU37       0.3649
     42  OE1       30.0680   28.7020   44.1630 O.co2  37  GLU37      -0.2457
     43  OE2       30.6190   26.5680   44.4260 O.co2  37  GLU37      -0.2457
     44  N         37.3190   36.5470   50.7890 N.3   173  GLN173     -0.1231
     45  CA        37.7300   35.5220   49.8290 C.3   173  GLN173      0.1698
     46  C         37.1620   35.8150   48.4480 C.2   173  GLN173      0.2592
     47  O         37.9000   35.8140   47.4740 O.2   173  GLN173     -0.2718
     48  CB        37.3070   34.1350   50.2770 C.3   173  GLN173      0.0381
     49  CG        38.0480   33.5190   51.4770 C.3   173  GLN173      0.0905
     50  CD        39.3340   32.8190   51.0920 C.2   173  GLN173      0.2608
     51  OE1       39.3110   31.7930   50.4000 O.2   173  GLN173     -0.2717
     52  NE2       40.4680   33.4060   51.4840 N.am  173  GLN173     -0.0878
     53  N         35.8530   36.0540   48.3720 N.am  174  GLU174     -0.1979
     54  CA        35.1950   36.4260   47.1340 C.3   174  GLU174      0.1602
     55  C         35.8900   37.6210   46.5200 C.2   174  GLU174      0.2287
     56  O         36.0520   37.6360   45.3380 O.2   174  GLU174     -0.2864
     57  CB        33.7290   36.7720   47.3520 C.3   174  GLU174      0.0415
     58  CG        32.7570   35.6020   47.3660 C.3   174  GLU174      0.1163
     59  CD        32.9120   34.7440   46.1480 C.2   174  GLU174      0.3649
     60  OE1       32.6320   35.2280   45.0190 O.co2 174  GLU174     -0.2457
     61  OE2       33.3870   33.6000   46.3380 O.co2 174  GLU174     -0.2457
     62  N         43.6180   19.2000   53.7250 N.3   225  TYR225     -0.1241
     63  CA        43.1360   20.0510   52.6380 C.3   225  TYR225      0.1605
     64  C         43.0810   21.5460   53.0530 C.2   225  TYR225      0.2264
     65  O         43.5580   22.4020   52.3150 O.2   225  TYR225     -0.2867
     66  CB        41.7660   19.5900   52.1050 C.3   225  TYR225      0.0534
     67  CG        41.2030   20.5430   51.0680 C.ar  225  TYR225     -0.0201
     68  CD1       41.5990   20.4530   49.7160 C.ar  225  TYR225     -0.0009
     69  CD2       40.2860   21.5590   51.4280 C.ar  225  TYR225     -0.0009
     70  CE1       41.1160   21.3380   48.7610 C.ar  225  TYR225      0.0417
     71  CE2       39.8000   22.4590   50.4750 C.ar  225  TYR225      0.0417
     72  CZ        40.2120   22.3140   49.1440 C.ar  225  TYR225      0.1957
     73  OH        39.8020   23.1700   48.2240 O.3   225  TYR225     -0.2866
     74  N         45.4310   24.3860   51.3770 N.3   229  THR229     -0.1203
     75  CA        44.7660   25.3570   50.5010 C.3   229  THR229      0.1994
     76  C         44.9030   26.8230   50.9940 C.2   229  THR229      0.2617
     77  O         45.1270   27.7430   50.2060 O.2   229  THR229     -0.2717
     78  CB        43.2940   24.9070   50.2810 C.3   229  THR229      0.1784
     79  OG1       43.3020   23.5180   49.8950 O.3   229  THR229     -0.2211
     80  CG2       42.5730   25.7480   49.2260 C.3   229  THR229      0.0376
     81  N         44.8070   27.0180   52.2990 N.am  230  TRP230     -0.1975
     82  CA        44.9440   28.3200   52.9680 C.3   230  TRP230      0.1640
     83  C         46.0810   28.3000   53.9210 C.2   230  TRP230      0.2290
     84  O         45.9450   27.7710   55.0070 O.2   230  TRP230     -0.2864
     85  CB        43.6740   28.6500   53.7400 C.3   230  TRP230      0.0576
     86  CG        42.5040   28.8400   52.8180 C.ar  230  TRP230      0.0006
     87  CD1       42.1570   29.9910   52.1120 C.ar  230  TRP230      0.0946
     88  CD2       41.4600   27.8390   52.4740 C.ar  230  TRP230      0.0152
     89  NE1       41.0470   29.7580   51.3570 N.ar  230  TRP230     -0.2442
     90  CE2       40.5910   28.4880   51.5140 C.ar  230  TRP230      0.0810
     91  CE3       41.2020   26.4860   52.8360 C.ar  230  TRP230      0.0012
     92  CZ2       39.4930   27.8240   50.9510 C.ar  230  TRP230      0.0191
     93  CZ3       40.1050   25.8160   52.2400 C.ar  230  TRP230      0.0001
     94  CH2       39.2650   26.4760   51.3420 C.ar  230  TRP230      0.0015
@<TRIPOS>BOND
     1    42    41   ar
     2    34    32    1
     3    43    41   ar
     4    41    40    1
     5    27    26    1
     6    60    59   ar
     7    56    55    2
     8    40    39    1
     9    39    36    1
    10    33    32    1
    11    32    29    1
    12    26    25    1
    13    35    36    1
    14    38    37    2
    15    59    61   ar
    16    59    58    1
    17    31    30    2
    18    36    37    1
    19    55    54    1
    20     5     6    1
    21     5     2    1
    22     6     7    1
    23    29    30    1
    24    29    28    1
    25    25    24    1
    26    54    57    1
    27    54    53    1
    28    24    23    1
    29    57    58    1
    30    47    46    2
    31    18    15    1
    32     2     3    1
    33     2     1    1
    34    17    16    2
    35     7     1    1
    36    20    23    1
    37    20    19    1
    38    20    21    1
    39     4     3    2
    40    73    72    1
    41    53    46   am
    42    16    19   am
    43    16    15    1
    44    46    45    1
    45     3     8   am
    46    22    21    2
    47    70    72   ar
    48    70    68   ar
    49    15    14    1
    50    12    13    1
    51    12     9    1
    52    72    71   ar
    53     8     9    1
    54    80    78    1
    55    68    67   ar
    56     9    10    1
    57    45    48    1
    58    45    44    1
    59    79    78    1
    60    77    76    2
    61    48    49    1
    62    78    75    1
    63    51    50    2
    64    71    69   ar
    65    75    76    1
    66    75    74    1
    67    92    94   ar
    68    92    90   ar
    69    76    81   am
    70    67    69   ar
    71    67    66    1
    72    50    49    1
    73    50    52   am
    74    10    11    2
    75    94    93   ar
    76    89    90   ar
    77    89    87   ar
    78    90    88   ar
    79    66    63    1
    80    87    86   ar
    81    93    91   ar
    82    81    82    1
    83    65    64    2
    84    88    86   ar
    85    88    91   ar
    86    63    64    1
    87    63    62    1
    88    86    85    1
    89    82    85    1
    90    82    83    1
    91    83    84    2
