@<TRIPOS>MOLECULE
tmp/3upbA01.pdb
 139 131 0 0 0
SMALL
GASTEIGER

@<TRIPOS>ATOM
      1  N         -3.5800   18.9060  -12.5420 N.3    18  ASP18      -0.1239
      2  CA        -4.5480   17.8910  -12.0390 C.3    18  ASP18       0.1674
      3  C         -5.9640   18.5120  -12.2030 C.2    18  ASP18       0.2266
      4  O         -6.4720   19.2430  -11.3500 O.2    18  ASP18      -0.2867
      5  CB        -4.2330   17.5900  -10.6120 C.3    18  ASP18       0.1410
      6  CG        -4.9080   16.3320  -10.0910 C.2    18  ASP18       0.3668
      7  OD1       -5.2520   15.4220  -10.8900 O.co2  18  ASP18      -0.2456
      8  OD2       -4.9760   16.2530   -8.8360 O.co2  18  ASP18      -0.2456
      9  N         -3.3940   15.2670  -15.5040 N.3    34  THR34      -0.1203
     10  CA        -4.0620   14.1320  -14.9430 C.3    34  THR34       0.1994
     11  C         -5.5040   14.4350  -14.7020 C.2    34  THR34       0.2619
     12  O         -5.8750   15.5550  -14.3380 O.2    34  THR34      -0.2717
     13  CB        -3.4730   13.6380  -13.6130 C.3    34  THR34       0.1784
     14  OG1       -3.3840   14.7090  -12.6730 O.3    34  THR34      -0.2211
     15  CG2       -2.0990   13.0580  -13.7470 C.3    34  THR34       0.0376
     16  N         -6.3150   13.3980  -14.9740 N.am   35  THR35      -0.1938
     17  CA        -7.7270   13.4280  -14.6120 C.3    35  THR35       0.2028
     18  C         -7.9520   12.2850  -13.6080 C.2    35  THR35       0.2642
     19  O         -7.0890   11.4100  -13.4350 O.2    35  THR35      -0.2714
     20  CB        -8.6500   13.3610  -15.7780 C.3    35  THR35       0.1808
     21  OG1       -8.6280   12.0770  -16.4550 O.3    35  THR35      -0.2208
     22  CG2       -8.2970   14.4930  -16.8230 C.3    35  THR35       0.0379
     23  N         -9.1200   12.2610  -13.0050 N.am   36  ASN36      -0.1971
     24  CA        -9.6030   11.1270  -12.2020 C.3    36  ASN36       0.1688
     25  C        -11.1300   11.1230  -12.3360 C.2    36  ASN36       0.2292
     26  O        -11.7040   12.0620  -12.9340 O.2    36  ASN36      -0.2864
     27  CB        -9.0950   11.1420  -10.7700 C.3    36  ASN36       0.1181
     28  CG        -9.6730   12.2050   -9.8870 C.2    36  ASN36       0.2629
     29  OD1      -10.8420   12.5910  -10.0860 O.2    36  ASN36      -0.2716
     30  ND2       -8.9360   12.5990   -8.8800 N.am   36  ASN36      -0.0877
     31  N        -13.5050   11.8240  -10.3600 N.3    38  SER38      -0.1202
     32  CA       -14.1440   12.9810   -9.6960 C.3    38  SER38       0.2020
     33  C        -13.9640   14.2280  -10.4990 C.2    38  SER38       0.2618
     34  O        -14.8690   15.0310  -10.6280 O.2    38  SER38      -0.2717
     35  CB       -13.6490   13.1500   -8.2890 C.3    38  SER38       0.2103
     36  OG       -13.9320   11.9760   -7.4890 O.3    38  SER38      -0.2182
     37  N        -12.7490   14.4060  -11.0450 N.am   39  LEU39      -0.1979
     38  CA       -12.4680   15.5540  -11.8860 C.3    39  LEU39       0.1596
     39  C        -13.2270   15.4850  -13.1720 C.2    39  LEU39       0.2287
     40  O        -13.6930   16.5100  -13.6680 O.2    39  LEU39      -0.2864
     41  CB       -10.9670   15.6730  -12.1090 C.3    39  LEU39       0.0297
     42  CG       -10.1050   15.9660  -10.8770 C.3    39  LEU39       0.0022
     43  CD1       -8.5830   15.7630  -11.1730 C.3    39  LEU39       0.0001
     44  CD2      -10.3620   17.3560  -10.3700 C.3    39  LEU39       0.0001
     45  N         -4.8200    5.2700  -15.7440 N.3   135  LYS135     -0.1245
     46  CA        -4.7870    5.3610  -14.3020 C.3   135  LYS135      0.1561
     47  C         -5.5910    4.2110  -13.7100 C.2   135  LYS135      0.2260
     48  O         -6.7460    3.9020  -14.1220 O.2   135  LYS135     -0.2867
     49  CB        -5.3520    6.7140  -13.7830 C.3   135  LYS135      0.0271
     50  CG        -4.3210    7.6520  -13.4220 C.3   135  LYS135      0.0035
     51  CD        -4.8500    9.0260  -13.0020 C.3   135  LYS135      0.0206
     52  CE        -5.0600    9.1440  -11.6380 C.3   135  LYS135      0.1093
     53  NZ        -5.1670   10.6290  -11.3160 N.3   135  LYS135     -0.1314
     54  N         -2.4420    4.6810   -9.1270 N.3   159  THR159     -0.1218
     55  CA        -2.9520    5.7120   -8.2510 C.3   159  THR159      0.1862
     56  C         -3.4410    5.2110   -6.9260 C.2   159  THR159      0.2287
     57  O         -3.4100    4.0000   -6.6690 O.2   159  THR159     -0.2866
     58  CB        -3.9820    6.5480   -9.0140 C.3   159  THR159      0.1770
     59  OG1       -4.2460    7.7740   -8.3080 O.3   159  THR159     -0.2211
     60  CG2       -5.2410    5.7850   -9.2680 C.3   159  THR159      0.0375
     61  N          1.5880    7.4210   -8.4730 N.3   179  SER179     -0.1217
     62  CA         0.9990    8.5810   -7.8710 C.3   179  SER179      0.1889
     63  C          0.7690    8.4010   -6.3930 C.2   179  SER179      0.2288
     64  O         -0.3450    8.1880   -5.9750 O.2   179  SER179     -0.2866
     65  CB        -0.2710    8.9980   -8.5910 C.3   179  SER179      0.2089
     66  OG        -0.0780    9.3180   -9.9440 O.3   179  SER179     -0.2183
     67  N         -0.0290    9.5530   -2.8890 N.3   181  PHE181     -0.1241
     68  CA        -0.8410   10.6570   -2.4410 C.3   181  PHE181      0.1605
     69  C         -0.1550   11.3340   -1.2340 C.2   181  PHE181      0.2264
     70  O          0.3730   10.6510   -0.3060 O.2   181  PHE181     -0.2867
     71  CB        -2.2700   10.2410   -2.1210 C.3   181  PHE181      0.0534
     72  CG        -3.2030   10.0440   -3.2960 C.ar  181  PHE181     -0.0203
     73  CD1       -4.5140   10.3060   -3.1940 C.ar  181  PHE181     -0.0042
     74  CD2       -2.7290    9.6180   -4.5270 C.ar  181  PHE181     -0.0042
     75  CE1       -5.3800   10.1620   -4.2290 C.ar  181  PHE181     -0.0003
     76  CE2       -3.5600    9.4920   -5.6080 C.ar  181  PHE181     -0.0003
     77  CZ        -4.9420    9.6740   -5.4550 C.ar  181  PHE181     -0.0000
     78  N         -4.3750   13.3230    1.0810 N.3   184  ARG184     -0.1245
     79  CA        -5.3280   12.4560    1.7650 C.3   184  ARG184      0.1563
     80  C         -4.7080   11.8330    2.9780 C.2   184  ARG184      0.2260
     81  O         -5.3840   11.4840    3.9480 O.2   184  ARG184     -0.2867
     82  CB        -5.8690   11.4040    0.8230 C.3   184  ARG184      0.0307
     83  CG        -6.6660   11.9670   -0.3400 C.3   184  ARG184      0.0489
     84  CD        -7.5350   11.0180   -1.0680 C.3   184  ARG184      0.2205
     85  NE        -8.1010   11.5680   -2.3030 N.pl3 184  ARG184     -0.0865
     86  CZ        -8.9710   10.9580   -3.0700 C.cat 184  ARG184      0.5346
     87  NH1       -9.4170    9.7750   -2.7640 N.pl3 184  ARG184      0.1354
     88  NH2       -9.4170   11.5880   -4.1500 N.pl3 184  ARG184      0.1354
     89  N          0.8800   13.3900   -5.8400 N.3   229  ALA229     -0.1231
     90  CA        -0.4650   13.8140   -6.1220 C.3   229  ALA229      0.1694
     91  C         -1.1950   14.0920   -4.8650 C.2   229  ALA229      0.2593
     92  O         -0.7910   13.5970   -3.8240 O.2   229  ALA229     -0.2718
     93  CB        -1.2010   12.7300   -6.9120 C.3   229  ALA229      0.0304
     94  N         -2.2990   14.8020   -4.9810 N.am  230  SER230     -0.1938
     95  CA        -3.2300   15.1270   -3.8680 C.3   230  SER230      0.2055
     96  C         -2.5990   16.1470   -2.9270 C.2   230  SER230      0.2643
     97  O         -1.6600   15.8500   -2.2020 O.2   230  SER230     -0.2714
     98  CB        -3.5720   13.8460   -3.0460 C.3   230  SER230      0.2130
     99  OG        -4.5270   14.1700   -2.0060 O.3   230  SER230     -0.2179
    100  N         -2.9210   17.4060   -3.1020 N.am  231  PHE231     -0.1959
    101  CA        -2.3430   18.4360   -2.2650 C.3   231  PHE231      0.1771
    102  C         -3.3790   19.3260   -1.6200 C.2   231  PHE231      0.2619
    103  O         -4.4770   19.5520   -2.1230 O.2   231  PHE231     -0.2715
    104  CB        -1.3360   19.2730   -3.0540 C.3   231  PHE231      0.0574
    105  CG        -0.1740   18.4920   -3.5220 C.ar  231  PHE231     -0.0200
    106  CD1        0.8420   18.2270   -2.6710 C.ar  231  PHE231     -0.0042
    107  CD2       -0.0940   18.0050   -4.8100 C.ar  231  PHE231     -0.0042
    108  CE1        1.9250   17.4980   -3.0150 C.ar  231  PHE231     -0.0003
    109  CE2        1.0170   17.2810   -5.1940 C.ar  231  PHE231     -0.0003
    110  CZ         2.0250   17.0150   -4.3010 C.ar  231  PHE231     -0.0000
    111  N         -3.0410   19.8030   -0.4140 N.am  232  ARG232     -0.1977
    112  CA        -3.9420   20.6400    0.4110 C.3   232  ARG232      0.1597
    113  C         -3.4980   22.0990    0.5300 C.2   232  ARG232      0.2287
    114  O         -4.3340   22.9330    0.7610 O.2   232  ARG232     -0.2864
    115  CB        -4.0940   20.0420    1.7950 C.3   232  ARG232      0.0334
    116  CG        -4.6690   18.6620    1.7870 C.3   232  ARG232      0.0492
    117  CD        -6.0730   18.6000    1.1990 C.3   232  ARG232      0.2205
    118  NE        -6.6150   17.2410    0.9120 N.pl3 232  ARG232     -0.0865
    119  CZ        -6.6750   16.6490   -0.2860 C.cat 232  ARG232      0.5346
    120  NH1       -6.3010   17.2400   -1.4320 N.pl3 232  ARG232      0.1354
    121  NH2       -7.2680   15.4650   -0.3900 N.pl3 232  ARG232      0.1354
    122  N          1.6900   16.4550   -9.6500 N.3   247  THR247     -0.1218
    123  CA         0.4580   16.8410  -10.2870 C.3   247  THR247      0.1862
    124  C         -0.3520   17.7320   -9.3290 C.2   247  THR247      0.2287
    125  O         -0.5460   17.3750   -8.1390 O.2   247  THR247     -0.2866
    126  CB        -0.3510   15.7030  -10.8530 C.3   247  THR247      0.1770
    127  OG1       -1.4440   16.2840  -11.5680 O.3   247  THR247     -0.2211
    128  CG2       -0.8550   14.7500   -9.7890 C.3   247  THR247      0.0375
    129  N        -14.6970    7.3880   -6.0540 N.3   296  PHE296     -0.1241
    130  CA       -14.6740    7.4490   -7.4980 C.3   296  PHE296      0.1605
    131  C        -15.8520    6.7000   -8.1330 C.2   296  PHE296      0.2264
    132  O        -16.4260    7.1540   -9.1210 O.2   296  PHE296     -0.2867
    133  CB       -13.3540    6.8920   -8.0700 C.3   296  PHE296      0.0534
    134  CG       -12.1300    7.7560   -7.8560 C.ar  296  PHE296     -0.0203
    135  CD1      -12.2330    9.1320   -7.8190 C.ar  296  PHE296     -0.0042
    136  CD2      -10.8820    7.2100   -7.7970 C.ar  296  PHE296     -0.0042
    137  CE1      -11.1130    9.9120   -7.6790 C.ar  296  PHE296     -0.0003
    138  CE2       -9.7690    8.0050   -7.6270 C.ar  296  PHE296     -0.0003
    139  CZ        -9.8930    9.3600   -7.5680 C.ar  296  PHE296     -0.0000
@<TRIPOS>BOND
     1    22    20    1
     2    21    20    1
     3    20    17    1
     4    45    46    1
     5     9    10    1
     6    16    11   am
     7    16    17    1
     8    10    11    1
     9    10    13    1
    10    11    12    2
    11    17    18    1
    12    46    49    1
    13    46    47    1
    14    48    47    2
    15    49    50    1
    16    15    13    1
    17    40    39    2
    18    13    14    1
    19    18    19    2
    20    18    23   am
    21    50    51    1
    22    39    38    1
    23    23    24    1
    24    51    52    1
    25    26    25    2
    26     1     2    1
    27    25    24    1
    28     3     2    1
    29     3     4    2
    30    24    27    1
    31    41    38    1
    32    41    42    1
    33     2     5    1
    34    38    37    1
    35    52    53    1
    36   127   126    1
    37    43    42    1
    38    37    33   am
    39     7     6   ar
    40    42    44    1
    41   126   123    1
    42   126   128    1
    43    27    28    1
    44    34    33    2
    45     5     6    1
    46    33    32    1
    47    31    32    1
    48   123   122    1
    49   123   124    1
    50     6     8   ar
    51    29    28    2
    52    66    65    1
    53    28    30   am
    54    32    35    1
    55   124   125    2
    56    60    58    1
    57    54    55    1
    58   132   131    2
    59    58    59    1
    60    58    55    1
    61    65    62    1
    62    61    62    1
    63    35    36    1
    64    55    56    1
    65   131   130    1
    66   133   134    1
    67   133   130    1
    68    62    63    1
    69   134   135   ar
    70   134   136   ar
    71   135   137   ar
    72   136   138   ar
    73   137   139   ar
    74   138   139   ar
    75   130   129    1
    76    56    57    2
    77    93    90    1
    78    63    64    2
    79    90    89    1
    80    90    91    1
    81    76    77   ar
    82    76    74   ar
    83    77    75   ar
    84   109   107   ar
    85   109   110   ar
    86    94    91   am
    87    94    95    1
    88    91    92    2
    89   107   105   ar
    90    74    72   ar
    91   110   108   ar
    92    75    73   ar
    93    88    86    1
    94    95    98    1
    95    95    96    1
    96   105   104    1
    97   105   106   ar
    98    72    73   ar
    99    72    71    1
   100   100    96   am
   101   100   101    1
   102    86    87    1
   103    86    85    2
   104   104   101    1
   105    98    99    1
   106   108   106   ar
   107    96    97    2
   108    67    68    1
   109    68    71    1
   110    68    69    1
   111    85    84    1
   112   101   102    1
   113   103   102    2
   114   102   111   am
   115   120   119    1
   116    69    70    2
   117    84    83    1
   118   111   112    1
   119   121   119    1
   120    83    82    1
   121   119   118    2
   122   112   113    1
   123   112   115    1
   124   113   114    2
   125    82    79    1
   126   118   117    1
   127    78    79    1
   128   117   116    1
   129    79    80    1
   130   116   115    1
   131    80    81    2
