@<TRIPOS>MOLECULE
tmp/3upcB01.pdb
 99 99 0 0 0
SMALL
GASTEIGER

@<TRIPOS>ATOM
      1  N         -7.5540  -36.2980   -1.4490 N.3    33  SER33      -0.1217
      2  CA        -7.4620  -34.9620   -2.0130 C.3    33  SER33       0.1889
      3  C         -8.2170  -34.8600   -3.3080 C.2    33  SER33       0.2288
      4  O         -8.4260  -35.8530   -3.9890 O.2    33  SER33      -0.2866
      5  CB        -6.0060  -34.6160   -2.3020 C.3    33  SER33       0.2089
      6  OG        -5.2320  -34.4730   -1.1120 O.3    33  SER33      -0.2183
      7  N         -7.5990  -32.7700   -6.8510 N.3    35  VAL35      -0.1245
      8  CA        -6.6230  -31.9630   -7.5640 C.3    35  VAL35       0.1561
      9  C         -7.2030  -31.6690   -8.9470 C.2    35  VAL35       0.2260
     10  O         -8.1360  -32.3590   -9.3920 O.2    35  VAL35      -0.2867
     11  CB        -5.2770  -32.7000   -7.6930 C.3    35  VAL35       0.0252
     12  CG1       -4.7270  -33.0770   -6.3350 C.3    35  VAL35       0.0019
     13  CG2       -5.4410  -33.9530   -8.5180 C.3    35  VAL35       0.0019
     14  N         -3.4110  -28.6160   -6.6210 N.3    45  TRP45      -0.1241
     15  CA        -4.1320  -29.1840   -5.4940 C.3    45  TRP45       0.1605
     16  C         -5.2530  -28.2480   -5.0720 C.2    45  TRP45       0.2264
     17  O         -5.0630  -27.0310   -4.9630 O.2    45  TRP45      -0.2867
     18  CB        -3.1410  -29.4490   -4.3540 C.3    45  TRP45       0.0550
     19  CG        -3.7990  -29.7390   -3.0530 C.ar   45  TRP45       0.0003
     20  CD1       -4.3300  -30.9440   -2.6280 C.ar   45  TRP45       0.0946
     21  CD2       -4.0680  -28.7960   -1.9690 C.ar   45  TRP45       0.0152
     22  NE1       -4.8800  -30.8220   -1.3750 N.ar   45  TRP45      -0.2442
     23  CE2       -4.7670  -29.5530   -0.9320 C.ar   45  TRP45       0.0810
     24  CE3       -3.8030  -27.4650   -1.7600 C.ar   45  TRP45       0.0012
     25  CZ2       -5.1800  -28.9690    0.2480 C.ar   45  TRP45       0.0191
     26  CZ3       -4.2200  -26.8870   -0.5620 C.ar   45  TRP45       0.0001
     27  CH2       -4.8950  -27.6220    0.4150 C.ar   45  TRP45       0.0015
     28  N         -8.4280  -31.1130    0.5200 N.3    48  ALA48      -0.1245
     29  CA        -8.0830  -32.3990    1.1220 C.3    48  ALA48       0.1562
     30  C         -8.9090  -32.6500    2.3650 C.2    48  ALA48       0.2260
     31  O         -9.3500  -31.7050    2.9980 O.2    48  ALA48      -0.2867
     32  CB        -6.6100  -32.4420    1.4650 C.3    48  ALA48       0.0290
     33  N         -9.0400  -29.1620    4.3780 N.3    57  TYR57      -0.1241
     34  CA        -8.0140  -28.2650    3.9050 C.3    57  TYR57       0.1605
     35  C         -8.3490  -27.7840    2.5020 C.2    57  TYR57       0.2264
     36  O         -8.7410  -28.5780    1.6640 O.2    57  TYR57      -0.2867
     37  CB        -6.6910  -28.9910    3.8540 C.3    57  TYR57       0.0534
     38  CG        -6.3280  -29.7310    5.1060 C.ar   57  TYR57      -0.0201
     39  CD1       -5.5910  -29.1160    6.1110 C.ar   57  TYR57      -0.0009
     40  CD2       -6.6860  -31.0570    5.2780 C.ar   57  TYR57      -0.0009
     41  CE1       -5.2350  -29.8000    7.2940 C.ar   57  TYR57       0.0417
     42  CE2       -6.3340  -31.7590    6.4350 C.ar   57  TYR57       0.0417
     43  CZ        -5.6080  -31.1250    7.4420 C.ar   57  TYR57       0.1957
     44  OH        -5.2560  -31.8190    8.5820 O.3    57  TYR57      -0.2866
     45  N         -4.1180  -38.5900   -0.8110 N.3    97  SER97      -0.1202
     46  CA        -3.2190  -37.4720   -0.4960 C.3    97  SER97       0.2020
     47  C         -1.7620  -37.8880   -0.3190 C.2    97  SER97       0.2618
     48  O         -0.8850  -37.1950   -0.7930 O.2    97  SER97      -0.2717
     49  CB        -3.6780  -36.7610    0.7940 C.3    97  SER97       0.2103
     50  OG        -5.0200  -36.2800    0.7190 O.3    97  SER97      -0.2182
     51  N         -1.5020  -39.0120    0.3470 N.am   98  TYR98      -0.1975
     52  CA        -0.1170  -39.4310    0.6510 C.3    98  TYR98       0.1639
     53  C          0.2600  -40.7880    0.0830 C.2    98  TYR98       0.2290
     54  O          1.1410  -41.4460    0.6060 O.2    98  TYR98      -0.2864
     55  CB         0.0900  -39.4710    2.1640 C.3    98  TYR98       0.0560
     56  CG        -0.2410  -38.1480    2.8130 C.ar   98  TYR98      -0.0198
     57  CD1        0.5240  -37.0220    2.5550 C.ar   98  TYR98      -0.0009
     58  CD2       -1.3300  -38.0220    3.6680 C.ar   98  TYR98      -0.0009
     59  CE1        0.2200  -35.7990    3.1340 C.ar   98  TYR98       0.0417
     60  CE2       -1.6510  -36.8010    4.2550 C.ar   98  TYR98       0.0417
     61  CZ        -0.8810  -35.6920    3.9860 C.ar   98  TYR98       0.1957
     62  OH        -1.2300  -34.4830    4.5720 O.3    98  TYR98      -0.2866
     63  N          4.3030  -40.1120   -2.4670 N.3   101  PHE101     -0.1241
     64  CA         4.6450  -38.6620   -2.4150 C.3   101  PHE101      0.1605
     65  C          4.0450  -37.7230   -1.3480 C.2   101  PHE101      0.2264
     66  O          2.8360  -37.6310   -1.1670 O.2   101  PHE101     -0.2867
     67  CB         4.8560  -38.1280   -3.8200 C.3   101  PHE101      0.0534
     68  CG         4.3600  -36.7700   -4.1210 C.ar  101  PHE101     -0.0203
     69  CD1        3.0340  -36.5510   -4.3880 C.ar  101  PHE101     -0.0042
     70  CD2        5.2660  -35.7810   -4.4390 C.ar  101  PHE101     -0.0042
     71  CE1        2.6010  -35.3130   -4.8190 C.ar  101  PHE101     -0.0003
     72  CE2        4.8490  -34.5390   -4.8820 C.ar  101  PHE101     -0.0003
     73  CZ         3.5210  -34.2950   -5.0610 C.ar  101  PHE101     -0.0000
     74  N          4.0660  -34.0020   -0.9130 N.3   103  TYR103     -0.1227
     75  CA         4.2910  -32.7400   -1.5760 C.3   103  TYR103      0.1736
     76  C          4.9420  -31.6890   -0.6750 C.2   103  TYR103      0.2595
     77  O          5.8330  -30.9580   -1.1070 O.2   103  TYR103     -0.2718
     78  CB         2.9610  -32.2370   -2.0850 C.3   103  TYR103      0.0548
     79  CG         2.9950  -30.8710   -2.6810 C.ar  103  TYR103     -0.0200
     80  CD1        3.7100  -30.6180   -3.8400 C.ar  103  TYR103     -0.0009
     81  CD2        2.2890  -29.8270   -2.1000 C.ar  103  TYR103     -0.0009
     82  CE1        3.7420  -29.3570   -4.3980 C.ar  103  TYR103      0.0417
     83  CE2        2.3110  -28.5650   -2.6570 C.ar  103  TYR103      0.0417
     84  CZ         3.0380  -28.3360   -3.8120 C.ar  103  TYR103      0.1957
     85  OH         3.0470  -27.0700   -4.3650 O.3   103  TYR103     -0.2866
     86  N          4.5140  -31.6240    0.5740 N.am  104  TRP104     -0.1976
     87  CA         4.9300  -30.5360    1.4730 C.3   104  TRP104      0.1640
     88  C          6.3630  -30.6150    1.9490 C.2   104  TRP104      0.2290
     89  O          6.9880  -29.5700    2.2130 O.2   104  TRP104     -0.2864
     90  CB         4.0000  -30.4720    2.6920 C.3   104  TRP104      0.0576
     91  CG         2.6290  -30.0700    2.2940 C.ar  104  TRP104      0.0006
     92  CD1        1.4830  -30.8520    2.2790 C.ar  104  TRP104      0.0946
     93  CD2        2.2250  -28.7840    1.7540 C.ar  104  TRP104      0.0152
     94  NE1        0.4230  -30.1490    1.7890 N.ar  104  TRP104     -0.2442
     95  CE2        0.7980  -28.8960    1.4590 C.ar  104  TRP104      0.0810
     96  CE3        2.8730  -27.5860    1.5100 C.ar  104  TRP104      0.0012
     97  CZ2        0.0750  -27.8440    0.9350 C.ar  104  TRP104      0.0191
     98  CZ3        2.1340  -26.5260    0.9830 C.ar  104  TRP104      0.0001
     99  CH2        0.7650  -26.6540    0.7060 C.ar  104  TRP104      0.0015
@<TRIPOS>BOND
     1    10     9    2
     2     9     8    1
     3    13    11    1
     4    11     8    1
     5    11    12    1
     6     8     7    1
     7    14    15    1
     8    15    16    1
     9    15    18    1
    10    16    17    2
    11    73    72   ar
    12    73    71   ar
    13    72    70   ar
    14    71    69   ar
    15    70    68   ar
    16    82    80   ar
    17    82    84   ar
    18    69    68   ar
    19    85    84    1
    20    18    19    1
    21    68    67    1
    22     4     3    2
    23    80    79   ar
    24    67    64    1
    25    84    83   ar
    26     3     2    1
    27    19    20   ar
    28    19    21   ar
    29    79    81   ar
    30    79    78    1
    31    83    81   ar
    32    20    22   ar
    33    63    64    1
    34    64    65    1
    35     5     2    1
    36     5     6    1
    37    78    75    1
    38     2     1    1
    39    21    24   ar
    40    21    23   ar
    41    24    26   ar
    42    75    74    1
    43    75    76    1
    44    22    23   ar
    45    65    66    2
    46    77    76    2
    47    23    25   ar
    48    45    46    1
    49    48    47    2
    50    76    86   am
    51    26    27   ar
    52    46    47    1
    53    46    49    1
    54    47    51   am
    55    53    54    2
    56    53    52    1
    57    25    27   ar
    58    51    52    1
    59    28    29    1
    60    86    87    1
    61    52    55    1
    62    99    97   ar
    63    99    98   ar
    64    50    49    1
    65    97    95   ar
    66    98    96   ar
    67    29    32    1
    68    29    30    1
    69    95    93   ar
    70    95    94   ar
    71    87    88    1
    72    87    90    1
    73    96    93   ar
    74    36    35    2
    75    93    91   ar
    76    94    92   ar
    77    88    89    2
    78    55    56    1
    79    92    91   ar
    80    91    90    1
    81    30    31    2
    82    35    34    1
    83    57    56   ar
    84    57    59   ar
    85    56    58   ar
    86    59    61   ar
    87    58    60   ar
    88    37    34    1
    89    37    38    1
    90    34    33    1
    91    61    60   ar
    92    61    62    1
    93    38    40   ar
    94    38    39   ar
    95    40    42   ar
    96    39    41   ar
    97    42    43   ar
    98    41    43   ar
    99    43    44    1
