@<TRIPOS>MOLECULE
tmp/3upcC01.pdb
 107 106 0 0 0
SMALL
GASTEIGER

@<TRIPOS>ATOM
      1  N          4.2760  -28.1300   17.3820 N.3    31  ASP31      -0.1239
      2  CA         4.5040  -27.9320   15.9530 C.3    31  ASP31       0.1674
      3  C          4.8620  -26.4440   15.7670 C.2    31  ASP31       0.2266
      4  O          4.1160  -25.5710   16.1980 O.2    31  ASP31      -0.2867
      5  CB         3.2040  -28.3070   15.2320 C.3    31  ASP31       0.1410
      6  CG         3.3970  -28.8280   13.8130 C.2    31  ASP31       0.3668
      7  OD1        3.1420  -30.0470   13.5990 O.co2  31  ASP31      -0.2456
      8  OD2        3.7320  -28.0120   12.9090 O.co2  31  ASP31      -0.2456
      9  N          6.4570  -23.0750   13.3380 N.3    33  SER33      -0.1217
     10  CA         6.5270  -22.4920   12.0010 C.3    33  SER33       0.1889
     11  C          7.5100  -21.3330   11.9520 C.2    33  SER33       0.2288
     12  O          7.7880  -20.7110   12.9590 O.2    33  SER33      -0.2866
     13  CB         5.1570  -21.9560   11.5790 C.3    33  SER33       0.2089
     14  OG         4.1900  -22.9910   11.4260 O.3    33  SER33      -0.2183
     15  N          7.6020  -17.7300    9.8900 N.3    35  VAL35      -0.1245
     16  CA         6.7940  -16.8600    9.0310 C.3    35  VAL35       0.1561
     17  C          7.5770  -15.5920    8.7790 C.2    35  VAL35       0.2260
     18  O          8.5210  -15.2730    9.5060 O.2    35  VAL35      -0.2867
     19  CB         5.4320  -16.5350    9.6670 C.3    35  VAL35       0.0252
     20  CG1        4.6580  -17.8300    9.9420 C.3    35  VAL35       0.0019
     21  CG2        5.6180  -15.7170   10.9350 C.3    35  VAL35       0.0019
     22  N          3.6540  -17.3010    5.4780 N.3    45  TRP45      -0.1241
     23  CA         4.1460  -18.5150    6.0990 C.3    45  TRP45       0.1605
     24  C          5.2300  -19.0810    5.2330 C.2    45  TRP45       0.2264
     25  O          5.0680  -19.1520    4.0200 O.2    45  TRP45      -0.2867
     26  CB         2.9730  -19.4900    6.2650 C.3    45  TRP45       0.0550
     27  CG         3.4020  -20.8740    6.5920 C.ar   45  TRP45       0.0003
     28  CD1        3.7640  -21.3830    7.8410 C.ar   45  TRP45       0.0946
     29  CD2        3.5730  -21.9790    5.6510 C.ar   45  TRP45       0.0152
     30  NE1        4.1350  -22.6970    7.7360 N.ar   45  TRP45      -0.2442
     31  CE2        4.0480  -23.1150    6.4410 C.ar   45  TRP45       0.0810
     32  CE3        3.3630  -22.1410    4.2980 C.ar   45  TRP45       0.0012
     33  CZ2        4.3130  -24.3360    5.8680 C.ar   45  TRP45       0.0191
     34  CZ3        3.6270  -23.3860    3.7350 C.ar   45  TRP45       0.0001
     35  CH2        4.0950  -24.4520    4.5030 C.ar   45  TRP45       0.0015
     36  N          7.3210  -25.1130    8.2290 N.3    48  ALA48      -0.1245
     37  CA         6.8370  -25.6750    9.4940 C.3    48  ALA48       0.1562
     38  C          7.4510  -27.0450    9.7630 C.2    48  ALA48       0.2260
     39  O          7.8910  -27.7370    8.8370 O.2    48  ALA48      -0.2867
     40  CB         5.3120  -25.7910    9.4910 C.3    48  ALA48       0.0290
     41  N          7.4290  -29.0500    6.2660 N.3    57  TYR57      -0.1241
     42  CA         6.5630  -28.4140    5.3010 C.3    57  TYR57       0.1605
     43  C          7.2030  -27.1200    4.8240 C.2    57  TYR57       0.2264
     44  O          7.7810  -26.3760    5.6210 O.2    57  TYR57      -0.2867
     45  CB         5.2350  -28.0480    5.9490 C.3    57  TYR57       0.0534
     46  CG         4.5380  -29.1600    6.6640 C.ar   57  TYR57      -0.0201
     47  CD1        3.4750  -29.8340    6.0670 C.ar   57  TYR57      -0.0009
     48  CD2        4.9120  -29.5210    7.9620 C.ar   57  TYR57      -0.0009
     49  CE1        2.8400  -30.8270    6.7110 C.ar   57  TYR57       0.0417
     50  CE2        4.2740  -30.5340    8.6210 C.ar   57  TYR57       0.0417
     51  CZ         3.2400  -31.1860    7.9870 C.ar   57  TYR57       0.1957
     52  OH         2.5780  -32.2080    8.6290 O.3    57  TYR57      -0.2866
     53  N          2.8060  -23.1650   15.4820 N.3    97  SER97      -0.1202
     54  CA         1.9460  -23.3430   14.3160 C.3    97  SER97       0.2020
     55  C          0.4830  -23.2440   14.6710 C.2    97  SER97       0.2618
     56  O         -0.2740  -22.5990   13.9640 O.2    97  SER97      -0.2717
     57  CB         2.2360  -24.6830   13.6250 C.3    97  SER97       0.2103
     58  OG         3.6080  -24.8320   13.2570 O.3    97  SER97      -0.2182
     59  N          0.0840  -23.8710   15.7720 N.am   98  TYR98      -0.1975
     60  CA        -1.3390  -23.9740   16.1260 C.3    98  TYR98       0.1639
     61  C         -1.6020  -23.3160   17.4820 C.2    98  TYR98       0.2290
     62  O         -2.6260  -23.5430   18.1130 O.2    98  TYR98      -0.2864
     63  CB        -1.8190  -25.4550   16.1210 C.3    98  TYR98       0.0560
     64  CG        -1.5770  -26.1700   14.8120 C.ar   98  TYR98      -0.0198
     65  CD1       -2.2590  -25.8010   13.6460 C.ar   98  TYR98      -0.0009
     66  CD2       -0.6260  -27.1830   14.7190 C.ar   98  TYR98      -0.0009
     67  CE1       -1.9980  -26.4350   12.4210 C.ar   98  TYR98       0.0417
     68  CE2       -0.3680  -27.8240   13.5070 C.ar   98  TYR98       0.0417
     69  CZ        -1.0590  -27.4420   12.3630 C.ar   98  TYR98       0.1957
     70  OH        -0.8090  -28.0620   11.1640 O.3    98  TYR98      -0.2866
     71  N         -4.7120  -19.1240   16.4180 N.3   101  PHE101     -0.1241
     72  CA        -5.4210  -20.1840   15.7290 C.3   101  PHE101      0.1605
     73  C         -4.9600  -21.4660   15.0260 C.2   101  PHE101      0.2264
     74  O         -3.7930  -21.8450   15.0370 O.2   101  PHE101     -0.2867
     75  CB        -6.1290  -19.3680   14.6320 C.3   101  PHE101      0.0534
     76  CG        -5.2270  -18.9040   13.5200 C.ar  101  PHE101     -0.0203
     77  CD1       -3.8560  -18.9470   13.6150 C.ar  101  PHE101     -0.0042
     78  CD2       -5.7830  -18.4200   12.3640 C.ar  101  PHE101     -0.0042
     79  CE1       -3.0610  -18.5280   12.5540 C.ar  101  PHE101     -0.0003
     80  CE2       -5.0200  -18.0090   11.3370 C.ar  101  PHE101     -0.0003
     81  CZ        -3.6390  -18.0620   11.4270 C.ar  101  PHE101     -0.0000
     82  N         -5.2410  -22.3420   11.2850 N.3   103  TYR103     -0.1227
     83  CA        -5.4250  -21.7490    9.9680 C.3   103  TYR103      0.1736
     84  C         -6.2590  -22.6060    9.0230 C.2   103  TYR103      0.2595
     85  O         -7.2040  -22.1360    8.3820 O.2   103  TYR103     -0.2718
     86  CB        -4.0540  -21.4960    9.3650 C.3   103  TYR103      0.0548
     87  CG        -4.0350  -21.0070    7.9540 C.ar  103  TYR103     -0.0200
     88  CD1       -4.3180  -19.6850    7.6660 C.ar  103  TYR103     -0.0009
     89  CD2       -3.6970  -21.8480    6.9110 C.ar  103  TYR103     -0.0009
     90  CE1       -4.2950  -19.2130    6.3770 C.ar  103  TYR103      0.0417
     91  CE2       -3.6630  -21.3790    5.6100 C.ar  103  TYR103      0.0417
     92  CZ        -3.9630  -20.0500    5.3540 C.ar  103  TYR103      0.1957
     93  OH        -3.9550  -19.5550    4.0730 O.3   103  TYR103     -0.2866
     94  N         -5.8890  -23.8640    8.9210 N.am  104  TRP104     -0.1976
     95  CA        -6.5050  -24.7430    7.9520 C.3   104  TRP104      0.1640
     96  C         -7.9190  -24.9530    8.3410 C.2   104  TRP104      0.2290
     97  O         -8.8090  -24.9640    7.4870 O.2   104  TRP104     -0.2864
     98  CB        -5.7700  -26.0660    7.8890 C.3   104  TRP104      0.0576
     99  CG        -4.3910  -25.9050    7.3190 C.ar  104  TRP104      0.0006
    100  CD1       -3.1830  -25.9590    8.0000 C.ar  104  TRP104      0.0946
    101  CD2       -4.0350  -25.5990    5.9320 C.ar  104  TRP104      0.0152
    102  NE1       -2.1460  -25.7310    7.1470 N.ar  104  TRP104     -0.2442
    103  CE2       -2.5920  -25.4960    5.8970 C.ar  104  TRP104      0.0810
    104  CE3       -4.7450  -25.4050    4.7730 C.ar  104  TRP104      0.0012
    105  CZ2       -1.9020  -25.2250    4.7270 C.ar  104  TRP104      0.0191
    106  CZ3       -4.0480  -25.1130    3.6010 C.ar  104  TRP104      0.0001
    107  CH2       -2.6540  -25.0370    3.5790 C.ar  104  TRP104      0.0015
@<TRIPOS>BOND
     1   107   106   ar
     2   107   105   ar
     3   106   104   ar
     4    34    32   ar
     5    34    35   ar
     6    25    24    2
     7    93    92    1
     8    32    29   ar
     9    35    33   ar
    10   105   103   ar
    11   104   101   ar
    12    43    42    1
    13    43    44    2
    14    24    23    1
    15    42    45    1
    16    42    41    1
    17    92    91   ar
    18    92    90   ar
    19    22    23    1
    20    91    89   ar
    21    29    31   ar
    22    29    27   ar
    23    33    31   ar
    24   103   101   ar
    25   103   102   ar
    26   101    99   ar
    27    45    46    1
    28    47    46   ar
    29    47    49   ar
    30    23    26    1
    31    26    27    1
    32    90    88   ar
    33    31    30   ar
    34    27    28   ar
    35    46    48   ar
    36    49    51   ar
    37    89    87   ar
    38   102   100   ar
    39    99    98    1
    40    99   100   ar
    41    97    96    2
    42    88    87   ar
    43    30    28   ar
    44    98    95    1
    45    95    96    1
    46    95    94    1
    47    87    86    1
    48    48    50   ar
    49    51    50   ar
    50    51    52    1
    51    36    37    1
    52    85    84    2
    53    17    16    1
    54    17    18    2
    55    39    38    2
    56    94    84   am
    57    84    83    1
    58    16    19    1
    59    16    15    1
    60    86    83    1
    61    40    37    1
    62    37    38    1
    63    19    20    1
    64    19    21    1
    65    83    82    1
    66    70    69    1
    67    80    81   ar
    68    80    78   ar
    69    14    13    1
    70    81    79   ar
    71    13    10    1
    72    11    10    1
    73    11    12    2
    74    10     9    1
    75    69    67   ar
    76    69    68   ar
    77    78    76   ar
    78    67    65   ar
    79    79    77   ar
    80     8     6   ar
    81    58    57    1
    82    68    66   ar
    83    76    77   ar
    84    76    75    1
    85     7     6   ar
    86    57    54    1
    87    65    64   ar
    88     6     5    1
    89    56    55    2
    90    54    55    1
    91    54    53    1
    92    75    72    1
    93    55    59   am
    94    66    64   ar
    95    64    63    1
    96    73    74    2
    97    73    72    1
    98     5     2    1
    99    72    71    1
   100     3     2    1
   101     3     4    2
   102    59    60    1
   103     2     1    1
   104    63    60    1
   105    60    61    1
   106    61    62    2
