@<TRIPOS>MOLECULE
tmp/3upcI00.pdb
 134 132 0 0 0
SMALL
GASTEIGER

@<TRIPOS>ATOM
      1  N         -2.9460  -54.5660  -26.8610 N.3    31  ASP31      -0.1239
      2  CA        -3.1670  -53.1940  -26.4540 C.3    31  ASP31       0.1674
      3  C         -3.5040  -52.4030  -27.7190 C.2    31  ASP31       0.2266
      4  O         -2.7450  -52.4250  -28.6830 O.2    31  ASP31      -0.2867
      5  CB        -1.8710  -52.6270  -25.8500 C.3    31  ASP31       0.1410
      6  CG        -1.9230  -52.4200  -24.3660 C.2    31  ASP31       0.3668
      7  OD1       -1.2700  -53.2040  -23.6400 O.co2  31  ASP31      -0.2456
      8  OD2       -2.5580  -51.4290  -23.9370 O.co2  31  ASP31      -0.2456
      9  N         -4.8860  -48.6720  -29.6520 N.3    33  SER33      -0.1217
     10  CA        -4.9480  -47.2010  -29.5670 C.3    33  SER33       0.1889
     11  C         -5.8770  -46.6110  -30.6110 C.2    33  SER33       0.2288
     12  O         -6.1110  -47.2090  -31.6440 O.2    33  SER33      -0.2866
     13  CB        -3.5660  -46.5890  -29.7870 C.3    33  SER33       0.2089
     14  OG        -2.6770  -46.9350  -28.7420 O.3    33  SER33      -0.2183
     15  N         -5.7880  -43.1210  -32.8690 N.3    35  VAL35      -0.1245
     16  CA        -4.9380  -41.9800  -33.2360 C.3    35  VAL35       0.1561
     17  C         -5.6750  -41.1870  -34.2930 C.2    35  VAL35       0.2260
     18  O         -6.5560  -41.7170  -34.9600 O.2    35  VAL35      -0.2867
     19  CB        -3.5310  -42.4260  -33.7730 C.3    35  VAL35       0.0252
     20  CG1       -2.8090  -43.2680  -32.7440 C.3    35  VAL35       0.0019
     21  CG2       -3.6560  -43.1850  -35.0820 C.3    35  VAL35       0.0019
     22  N          0.0740  -37.1690  -37.2050 N.3    43  LEU43      -0.1245
     23  CA        -0.6760  -38.1400  -36.4320 C.3    43  LEU43       0.1561
     24  C         -0.5400  -37.8350  -34.9530 C.2    43  LEU43       0.2260
     25  O          0.5760  -37.6800  -34.4430 O.2    43  LEU43      -0.2867
     26  CB        -0.1940  -39.5650  -36.6880 C.3    43  LEU43       0.0270
     27  CG        -0.8700  -40.3580  -37.7950 C.3    43  LEU43       0.0019
     28  CD1       -0.5270  -41.8300  -37.6460 C.3    43  LEU43       0.0001
     29  CD2       -2.3620  -40.1890  -37.7430 C.3    43  LEU43       0.0001
     30  N         -1.8490  -39.0670  -31.0960 N.3    45  TRP45      -0.1241
     31  CA        -2.4070  -40.1510  -30.3040 C.3    45  TRP45       0.1605
     32  C         -3.5280  -39.6330  -29.4280 C.2    45  TRP45       0.2264
     33  O         -3.3860  -38.6110  -28.7620 O.2    45  TRP45      -0.2867
     34  CB        -1.2980  -40.7750  -29.4740 C.3    45  TRP45       0.0550
     35  CG        -1.8050  -41.6790  -28.4100 C.ar   45  TRP45       0.0003
     36  CD1       -2.2040  -43.0030  -28.5420 C.ar   45  TRP45       0.0946
     37  CD2       -2.0110  -41.3440  -27.0020 C.ar   45  TRP45       0.0152
     38  NE1       -2.6230  -43.5000  -27.3350 N.ar   45  TRP45      -0.2442
     39  CE2       -2.5390  -42.5500  -26.3710 C.ar   45  TRP45       0.0810
     40  CE3       -1.8140  -40.2070  -26.2300 C.ar   45  TRP45       0.0012
     41  CZ2       -2.8480  -42.5930  -25.0260 C.ar   45  TRP45       0.0191
     42  CZ3       -2.1320  -40.2620  -24.8700 C.ar   45  TRP45       0.0001
     43  CH2       -2.6330  -41.4280  -24.2850 C.ar   45  TRP45       0.0015
     44  N         -5.8900  -44.9960  -25.5450 N.3    48  ALA48      -0.1245
     45  CA        -5.3930  -46.3770  -25.5950 C.3    48  ALA48       0.1562
     46  C         -6.0370  -47.2440  -24.5320 C.2    48  ALA48       0.2260
     47  O         -6.5070  -46.7470  -23.5180 O.2    48  ALA48      -0.2867
     48  CB        -3.8810  -46.4060  -25.4450 C.3    48  ALA48       0.0290
     49  N         -6.1910  -45.0210  -21.1660 N.3    57  TYR57      -0.1241
     50  CA        -5.3100  -43.8880  -21.2400 C.3    57  TYR57       0.1605
     51  C         -5.8820  -42.8770  -22.2140 C.2    57  TYR57       0.2264
     52  O         -6.3770  -43.2470  -23.2750 O.2    57  TYR57      -0.2867
     53  CB        -3.9340  -44.3240  -21.7470 C.3    57  TYR57       0.0534
     54  CG        -3.3830  -45.5570  -21.0950 C.ar   57  TYR57      -0.0201
     55  CD1       -2.4490  -45.4630  -20.0670 C.ar   57  TYR57      -0.0009
     56  CD2       -3.7930  -46.8270  -21.5100 C.ar   57  TYR57      -0.0009
     57  CE1       -1.9350  -46.6130  -19.4530 C.ar   57  TYR57       0.0417
     58  CE2       -3.2890  -47.9780  -20.9100 C.ar   57  TYR57       0.0417
     59  CZ        -2.3620  -47.8660  -19.8790 C.ar   57  TYR57       0.1957
     60  OH        -1.8690  -49.0000  -19.2810 O.3    57  TYR57      -0.2866
     61  N         -5.4150  -48.6290  -34.0810 N.3    95  ALA95      -0.1231
     62  CA        -4.1010  -49.2160  -34.3230 C.3    95  ALA95       0.1694
     63  C         -3.6560  -50.0480  -33.1270 C.2    95  ALA95       0.2592
     64  O         -4.1070  -49.8300  -31.9980 O.2    95  ALA95      -0.2718
     65  CB        -3.1020  -48.1250  -34.6020 C.3    95  ALA95       0.0304
     66  N         -2.8050  -51.0310  -33.3840 N.am   96  LYS96      -0.1966
     67  CA        -2.1520  -51.7570  -32.3120 C.3    96  LYS96       0.1728
     68  C         -1.1520  -50.8070  -31.6830 C.2    96  LYS96       0.2617
     69  O         -0.3130  -50.2290  -32.3760 O.2    96  LYS96      -0.2715
     70  CB        -1.4150  -52.9700  -32.8450 C.3    96  LYS96       0.0311
     71  CG        -2.2860  -54.0090  -33.5330 C.3    96  LYS96       0.0038
     72  CD        -1.4160  -55.1990  -33.9310 C.3    96  LYS96       0.0206
     73  CE        -2.1520  -56.2090  -34.7860 C.3    96  LYS96       0.1093
     74  NZ        -1.2280  -57.2940  -35.2150 N.3    96  LYS96      -0.1314
     75  N         -1.2460  -50.6420  -30.3690 N.am   97  SER97      -0.1936
     76  CA        -0.3980  -49.6960  -29.6510 C.3    97  SER97       0.2055
     77  C          1.1000  -49.9850  -29.8420 C.2    97  SER97       0.2643
     78  O          1.8920  -49.0680  -30.0800 O.2    97  SER97      -0.2714
     79  CB        -0.7690  -49.6760  -28.1570 C.3    97  SER97       0.2130
     80  OG        -2.1460  -49.3600  -27.9630 O.3    97  SER97      -0.2179
     81  N          1.4840  -51.2550  -29.7480 N.am   98  TYR98      -0.1973
     82  CA         2.9070  -51.6270  -29.7490 C.3    98  TYR98       0.1639
     83  C          3.2740  -52.5050  -30.9510 C.2    98  TYR98       0.2290
     84  O          4.2950  -53.1720  -30.9510 O.2    98  TYR98      -0.2864
     85  CB         3.2890  -52.3120  -28.4110 C.3    98  TYR98       0.0560
     86  CG         2.9770  -51.4680  -27.1920 C.ar   98  TYR98      -0.0198
     87  CD1        3.6600  -50.2730  -26.9550 C.ar   98  TYR98      -0.0009
     88  CD2        1.9850  -51.8440  -26.2920 C.ar   98  TYR98      -0.0009
     89  CE1        3.3640  -49.4730  -25.8480 C.ar   98  TYR98       0.0417
     90  CE2        1.6850  -51.0550  -25.1770 C.ar   98  TYR98       0.0417
     91  CZ         2.3770  -49.8710  -24.9640 C.ar   98  TYR98       0.1957
     92  OH         2.0850  -49.0870  -23.8720 O.3    98  TYR98      -0.2866
     93  N          3.9140  -51.1680  -33.9280 N.3   100  ALA100     -0.1231
     94  CA         4.9730  -50.3620  -34.5480 C.3   100  ALA100      0.1694
     95  C          6.3470  -50.8570  -34.0360 C.2   100  ALA100      0.2592
     96  O          6.9980  -51.5600  -34.7950 O.2   100  ALA100     -0.2718
     97  CB         4.7360  -48.9530  -34.2650 C.3   100  ALA100      0.0304
     98  N          6.8740  -50.5170  -32.8440 N.am  101  PHE101     -0.1976
     99  CA         7.1830  -49.1810  -32.3060 C.3   101  PHE101      0.1639
    100  C          6.4930  -48.6730  -31.0100 C.2   101  PHE101      0.2290
    101  O          5.2670  -48.7240  -30.8750 O.2   101  PHE101     -0.2864
    102  CB         7.2770  -48.1480  -33.4300 C.3   101  PHE101      0.0560
    103  CG         6.7670  -46.7930  -33.0820 C.ar  101  PHE101     -0.0200
    104  CD1        5.4470  -46.4340  -33.3520 C.ar  101  PHE101     -0.0042
    105  CD2        7.6140  -45.8520  -32.5630 C.ar  101  PHE101     -0.0042
    106  CE1        4.9860  -45.1790  -33.0880 C.ar  101  PHE101     -0.0003
    107  CE2        7.1580  -44.5910  -32.2940 C.ar  101  PHE101     -0.0003
    108  CZ         5.8350  -44.2480  -32.5570 C.ar  101  PHE101     -0.0000
    109  N          6.1090  -45.4430  -28.6410 N.3   103  TYR103     -0.1227
    110  CA         6.1750  -43.9900  -28.5320 C.3   103  TYR103      0.1736
    111  C          6.7920  -43.4560  -27.2450 C.2   103  TYR103      0.2595
    112  O          7.3470  -42.3500  -27.2370 O.2   103  TYR103     -0.2718
    113  CB         4.7630  -43.4570  -28.6350 C.3   103  TYR103      0.0548
    114  CG         4.6080  -41.9730  -28.6380 C.ar  103  TYR103     -0.0200
    115  CD1        5.1790  -41.2040  -29.6220 C.ar  103  TYR103     -0.0009
    116  CD2        3.8340  -41.3410  -27.6810 C.ar  103  TYR103     -0.0009
    117  CE1        5.0050  -39.8230  -29.6470 C.ar  103  TYR103      0.0417
    118  CE2        3.6450  -39.9630  -27.6950 C.ar  103  TYR103      0.0417
    119  CZ         4.2290  -39.2080  -28.6830 C.ar  103  TYR103      0.1957
    120  OH         4.0290  -37.8470  -28.6960 O.3   103  TYR103     -0.2866
    121  N          6.6860  -44.2240  -26.1620 N.am  104  TRP104     -0.1976
    122  CA         7.0250  -43.7150  -24.8260 C.3   104  TRP104      0.1640
    123  C          8.4650  -43.8370  -24.4650 C.2   104  TRP104      0.2290
    124  O          9.0330  -42.9280  -23.8120 O.2   104  TRP104     -0.2864
    125  CB         6.2350  -44.4530  -23.7720 C.3   104  TRP104      0.0576
    126  CG         4.7770  -44.2320  -23.9210 C.ar  104  TRP104      0.0006
    127  CD1        3.8090  -45.1630  -24.2740 C.ar  104  TRP104      0.0946
    128  CD2        4.0670  -42.9650  -23.7640 C.ar  104  TRP104      0.0152
    129  NE1        2.5740  -44.5700  -24.3290 N.ar  104  TRP104     -0.2442
    130  CE2        2.6590  -43.2530  -24.0380 C.ar  104  TRP104      0.0810
    131  CE3        4.4430  -41.6730  -23.4450 C.ar  104  TRP104      0.0012
    132  CZ2        1.6860  -42.2740  -23.9790 C.ar  104  TRP104      0.0191
    133  CZ3        3.4560  -40.6840  -23.3960 C.ar  104  TRP104      0.0001
    134  CH2        2.1100  -40.9800  -23.6500 C.ar  104  TRP104      0.0015
@<TRIPOS>BOND
     1    27    29    1
     2    27    28    1
     3    27    26    1
     4    22    23    1
     5    26    23    1
     6    23    24    1
     7    74    73    1
     8    21    19    1
     9    18    17    2
    10    24    25    2
    11    96    95    2
    12    73    72    1
    13    65    62    1
    14    94    97    1
    15    94    95    1
    16    94    93    1
    17    62    61    1
    18    62    63    1
    19    17    16    1
    20    95    98   am
    21    72    71    1
    22    19    16    1
    23    19    20    1
    24    71    70    1
    25   102   103    1
    26   102    99    1
    27    66    63   am
    28    66    67    1
    29   104   106   ar
    30   104   103   ar
    31    16    15    1
    32    63    64    2
    33   106   108   ar
    34   103   105   ar
    35    70    67    1
    36    98    99    1
    37   105   107   ar
    38   108   107   ar
    39    69    68    2
    40    67    68    1
    41    99   100    1
    42    68    75   am
    43    12    11    2
    44    30    31    1
    45   100   101    2
    46    84    83    2
    47    83    82    1
    48    11    10    1
    49    75    76    1
    50    31    34    1
    51    31    32    1
    52    78    77    2
    53    77    81   am
    54    77    76    1
    55    13    10    1
    56    13    14    1
    57    82    81    1
    58    82    85    1
    59     9    10    1
    60    76    79    1
    61   117   115   ar
    62   117   119   ar
    63   115   114   ar
    64    34    35    1
    65    32    33    2
    66   120   119    1
    67     4     3    2
    68   119   118   ar
    69   109   110    1
    70   114   113    1
    71   114   116   ar
    72   113   110    1
    73    36    35   ar
    74    36    38   ar
    75   110   111    1
    76    85    86    1
    77    35    37   ar
    78    79    80    1
    79     3     2    1
    80   118   116   ar
    81    38    39   ar
    82   111   112    2
    83   111   121   am
    84    86    87   ar
    85    86    88   ar
    86    37    39   ar
    87    37    40   ar
    88    87    89   ar
    89     1     2    1
    90     2     5    1
    91    39    41   ar
    92    88    90   ar
    93    40    42   ar
    94   121   122    1
    95     5     6    1
    96    89    91   ar
    97    45    44    1
    98    45    48    1
    99    45    46    1
   100    90    91   ar
   101    41    43   ar
   102    91    92    1
   103    42    43   ar
   104   122   123    1
   105   122   125    1
   106    46    47    2
   107   123   124    2
   108     6     8   ar
   109     6     7   ar
   110   129   127   ar
   111   129   130   ar
   112   127   126   ar
   113   130   132   ar
   114   130   128   ar
   115   132   134   ar
   116   126   125    1
   117   126   128   ar
   118   128   131   ar
   119   134   133   ar
   120   131   133   ar
   121    52    51    2
   122    51    50    1
   123    53    50    1
   124    53    54    1
   125    56    54   ar
   126    56    58   ar
   127    50    49    1
   128    54    55   ar
   129    58    59   ar
   130    55    57   ar
   131    59    57   ar
   132    59    60    1
