@<TRIPOS>MOLECULE
tmp/3upcA00.pdb
 143 142 0 0 0
SMALL
GASTEIGER

@<TRIPOS>ATOM
      1  N          6.2640  -49.0480   -9.7010 N.3    31  ASP31      -0.1239
      2  CA         6.4520  -48.1510  -10.8350 C.3    31  ASP31       0.1674
      3  C          6.6240  -46.7290  -10.2850 C.2    31  ASP31       0.2266
      4  O          5.7630  -46.2310   -9.5590 O.2    31  ASP31      -0.2867
      5  CB         5.2270  -48.2290  -11.7750 C.3    31  ASP31       0.1410
      6  CG         5.4610  -47.5910  -13.1940 C.2    31  ASP31       0.3668
      7  OD1        5.3010  -48.3410  -14.1900 O.co2  31  ASP31      -0.2456
      8  OD2        5.7490  -46.3620  -13.3370 O.co2  31  ASP31      -0.2456
      9  N          7.8110  -42.4800  -10.7820 N.3    33  SER33      -0.1217
     10  CA         7.7930  -41.3430  -11.6800 C.3    33  SER33       0.1889
     11  C          8.6030  -40.1930  -11.1180 C.2    33  SER33       0.2288
     12  O          8.8150  -40.1010   -9.9270 O.2    33  SER33      -0.2866
     13  CB         6.3670  -40.8570  -11.8880 C.3    33  SER33       0.2089
     14  OG         5.6160  -41.8050  -12.6150 O.3    33  SER33      -0.2183
     15  N          8.2260  -36.0410  -11.2470 N.3    35  VAL35      -0.1245
     16  CA         7.2830  -34.9660  -11.6400 C.3    35  VAL35       0.1561
     17  C          7.9180  -33.6620  -11.2320 C.2    35  VAL35       0.2260
     18  O          8.8510  -33.6580  -10.4220 O.2    35  VAL35      -0.2867
     19  CB         5.8800  -35.1140  -10.9950 C.3    35  VAL35       0.0252
     20  CG1        5.2650  -36.4440  -11.3710 C.3    35  VAL35       0.0019
     21  CG2        5.9810  -34.9890   -9.5160 C.3    35  VAL35       0.0019
     22  N          1.8590  -29.1090  -11.2360 N.3    43  LEU43      -0.1231
     23  CA         2.7020  -30.2950  -11.3280 C.3    43  LEU43       0.1693
     24  C          2.6120  -30.8880  -12.7170 C.2    43  LEU43       0.2592
     25  O          1.5070  -31.1110  -13.2290 O.2    43  LEU43      -0.2718
     26  CB         2.2850  -31.3540  -10.3130 C.3    43  LEU43       0.0284
     27  CG         2.9010  -31.2950   -8.9250 C.3    43  LEU43       0.0019
     28  CD1        2.6630  -32.6040   -8.2290 C.3    43  LEU43       0.0001
     29  CD2        4.3680  -31.0400   -9.0080 C.3    43  LEU43       0.0001
     30  N          3.7800  -31.1590  -13.2950 N.am   44  GLU44      -0.1966
     31  CA         3.9170  -31.6900  -14.6360 C.3    44  GLU44       0.1733
     32  C          4.6960  -32.9950  -14.5250 C.2    44  GLU44       0.2616
     33  O          5.7370  -33.0610  -13.8920 O.2    44  GLU44      -0.2715
     34  CB         4.6640  -30.6770  -15.5100 C.3    44  GLU44       0.0429
     35  CG         4.9030  -31.0850  -16.9890 C.3    44  GLU44       0.1163
     36  CD         5.9790  -30.2430  -17.7170 C.2    44  GLU44       0.3649
     37  OE1        6.7360  -29.4850  -17.0570 O.co2  44  GLU44      -0.2457
     38  OE2        6.0810  -30.3630  -18.9600 O.co2  44  GLU44      -0.2457
     39  N          4.1760  -34.0410  -15.1400 N.am   45  TRP45      -0.1974
     40  CA         4.8300  -35.3280  -15.1560 C.3    45  TRP45       0.1640
     41  C          5.9680  -35.3270  -16.1510 C.2    45  TRP45       0.2290
     42  O          5.8140  -34.8790  -17.2830 O.2    45  TRP45      -0.2864
     43  CB         3.8020  -36.3900  -15.5000 C.3    45  TRP45       0.0576
     44  CG         4.4130  -37.7150  -15.8360 C.ar   45  TRP45       0.0006
     45  CD1        4.8740  -38.6950  -14.9510 C.ar   45  TRP45       0.0946
     46  CD2        4.6790  -38.2420  -17.1770 C.ar   45  TRP45       0.0152
     47  NE1        5.3810  -39.7590  -15.6420 N.ar   45  TRP45      -0.2442
     48  CE2        5.2900  -39.5500  -16.9860 C.ar   45  TRP45       0.0810
     49  CE3        4.4610  -37.7840  -18.4510 C.ar   45  TRP45       0.0012
     50  CZ2        5.6660  -40.3370  -18.0450 C.ar   45  TRP45       0.0191
     51  CZ3        4.8410  -38.5880  -19.5150 C.ar   45  TRP45       0.0001
     52  CH2        5.4290  -39.8340  -19.3150 C.ar   45  TRP45       0.0015
     53  N          8.8070  -41.7880  -16.1940 N.3    48  ALA48      -0.1245
     54  CA         8.3900  -42.9150  -15.3440 C.3    48  ALA48       0.1562
     55  C          9.1360  -44.1730  -15.7180 C.2    48  ALA48       0.2260
     56  O          9.6400  -44.2900  -16.8370 O.2    48  ALA48      -0.2867
     57  CB         6.8900  -43.1440  -15.4380 C.3    48  ALA48       0.0290
     58  N          9.3930  -44.2820  -19.7600 N.3    57  TYR57      -0.1241
     59  CA         8.4190  -43.3900  -20.3570 C.3    57  TYR57       0.1605
     60  C          8.8330  -41.9460  -20.1320 C.2    57  TYR57       0.2264
     61  O          9.2190  -41.5870  -19.0270 O.2    57  TYR57      -0.2867
     62  CB         7.0620  -43.6180  -19.6930 C.3    57  TYR57       0.0534
     63  CG         6.6380  -45.0640  -19.6050 C.ar   57  TYR57      -0.0201
     64  CD1        5.8610  -45.6280  -20.5990 C.ar   57  TYR57      -0.0009
     65  CD2        6.9870  -45.8610  -18.5230 C.ar   57  TYR57      -0.0009
     66  CE1        5.4300  -46.9590  -20.5360 C.ar   57  TYR57       0.0417
     67  CE2        6.5710  -47.2070  -18.4450 C.ar   57  TYR57       0.0417
     68  CZ         5.7810  -47.7460  -19.4600 C.ar   57  TYR57       0.1957
     69  OH         5.3480  -49.0610  -19.4550 O.3    57  TYR57      -0.2866
     70  N          7.9960  -39.8570   -7.1550 N.3    95  ALA95      -0.1231
     71  CA         6.7190  -40.2970   -6.6230 C.3    95  ALA95       0.1694
     72  C          6.3900  -41.6700   -7.1630 C.2    95  ALA95       0.2592
     73  O          6.8790  -42.0520   -8.2120 O.2    95  ALA95      -0.2718
     74  CB         5.6620  -39.3350   -6.9970 C.3    95  ALA95       0.0304
     75  N          5.5940  -42.4210   -6.4100 N.am   96  LYS96      -0.1966
     76  CA         5.0340  -43.6760   -6.8660 C.3    96  LYS96       0.1728
     77  C          4.0470  -43.3190   -7.9450 C.2    96  LYS96       0.2617
     78  O          3.1850  -42.4950   -7.7290 O.2    96  LYS96      -0.2715
     79  CB         4.2950  -44.3940   -5.7280 C.3    96  LYS96       0.0311
     80  CG         5.1540  -44.7940   -4.5400 C.3    96  LYS96       0.0038
     81  CD         4.3250  -45.6000   -3.5640 C.3    96  LYS96       0.0206
     82  CE         5.0510  -45.8940   -2.2780 C.3    96  LYS96       0.1093
     83  NZ         4.1350  -46.6270   -1.3540 N.3    96  LYS96      -0.1314
     84  N          4.1860  -43.9350   -9.1070 N.am   97  SER97      -0.1936
     85  CA         3.3300  -43.6400  -10.2670 C.3    97  SER97       0.2055
     86  C          1.8430  -43.9070  -10.0060 C.2    97  SER97       0.2643
     87  O          1.0130  -43.0920  -10.3720 O.2    97  SER97      -0.2714
     88  CB         3.7850  -44.4500  -11.4920 C.3    97  SER97       0.2130
     89  OG         5.1670  -44.2380  -11.7970 O.3    97  SER97      -0.2179
     90  N          1.5150  -45.0170   -9.3440 N.am   98  TYR98      -0.1973
     91  CA         0.1120  -45.4050   -9.1510 C.3    98  TYR98       0.1639
     92  C         -0.3000  -45.4940   -7.6890 C.2    98  TYR98       0.2290
     93  O         -1.3710  -46.0010   -7.3700 O.2    98  TYR98      -0.2864
     94  CB        -0.1460  -46.7320   -9.8360 C.3    98  TYR98       0.0560
     95  CG         0.1970  -46.6990  -11.3100 C.ar   98  TYR98      -0.0198
     96  CD1       -0.5370  -45.9160  -12.2010 C.ar   98  TYR98      -0.0009
     97  CD2        1.2530  -47.4460  -11.8110 C.ar   98  TYR98      -0.0009
     98  CE1       -0.2200  -45.8850  -13.5550 C.ar   98  TYR98       0.0417
     99  CE2        1.5770  -47.4210  -13.1590 C.ar   98  TYR98       0.0417
    100  CZ         0.8480  -46.6410  -14.0270 C.ar   98  TYR98       0.1957
    101  OH         1.1920  -46.6300  -15.3660 O.3    98  TYR98      -0.2866
    102  N         -1.4070  -43.1470   -5.9020 N.3   100  ALA100     -0.1231
    103  CA        -2.3240  -42.1280   -5.4350 C.3   100  ALA100      0.1694
    104  C         -3.7460  -41.8880   -5.9910 C.2   100  ALA100      0.2592
    105  O         -4.7010  -42.2130   -5.2990 O.2   100  ALA100     -0.2718
    106  CB        -1.6050  -40.8040   -5.3580 C.3   100  ALA100      0.0304
    107  N         -3.9680  -41.3830   -7.1930 N.am  101  PHE101     -0.1976
    108  CA        -4.4490  -42.0640   -8.4140 C.3   101  PHE101      0.1639
    109  C         -3.7330  -42.7680   -9.5610 C.2   101  PHE101      0.2290
    110  O         -2.5310  -42.9550   -9.5630 O.2   101  PHE101     -0.2864
    111  CB        -5.2400  -40.9450   -9.1560 C.3   101  PHE101      0.0560
    112  CG        -4.3850  -39.7750   -9.6410 C.ar  101  PHE101     -0.0200
    113  CD1       -4.9810  -38.7030  -10.2280 C.ar  101  PHE101     -0.0042
    114  CD2       -3.0210  -39.7490   -9.5090 C.ar  101  PHE101     -0.0042
    115  CE1       -4.2460  -37.6220  -10.6830 C.ar  101  PHE101     -0.0003
    116  CE2       -2.2830  -38.6670   -9.9530 C.ar  101  PHE101     -0.0003
    117  CZ        -2.8940  -37.6070  -10.5440 C.ar  101  PHE101     -0.0000
    118  N         -3.6600  -41.2930  -13.0550 N.3   103  TYR103     -0.1227
    119  CA        -3.8240  -40.1150  -13.9090 C.3   103  TYR103      0.1736
    120  C         -4.3590  -40.3580  -15.3210 C.2   103  TYR103      0.2595
    121  O         -5.1310  -39.5640  -15.8240 O.2   103  TYR103     -0.2718
    122  CB        -2.4660  -39.4530  -14.0430 C.3   103  TYR103      0.0548
    123  CG        -2.3930  -38.2960  -14.9890 C.ar  103  TYR103     -0.0200
    124  CD1       -2.7080  -37.0130  -14.5600 C.ar  103  TYR103     -0.0009
    125  CD2       -1.9500  -38.4660  -16.2900 C.ar  103  TYR103     -0.0009
    126  CE1       -2.6120  -35.9300  -15.4030 C.ar  103  TYR103      0.0417
    127  CE2       -1.8370  -37.3750  -17.1450 C.ar  103  TYR103      0.0417
    128  CZ        -2.1770  -36.1090  -16.6890 C.ar  103  TYR103      0.1957
    129  OH        -2.1020  -35.0170  -17.5160 O.3   103  TYR103     -0.2866
    130  N         -3.9170  -41.4200  -15.9790 N.am  104  TRP104     -0.1976
    131  CA        -4.2190  -41.5730  -17.4040 C.3   104  TRP104      0.1640
    132  C         -5.6420  -41.9040  -17.6750 C.2   104  TRP104      0.2290
    133  O         -6.1900  -41.4070  -18.6660 O.2   104  TRP104     -0.2864
    134  CB        -3.3040  -42.5900  -18.0710 C.3   104  TRP104      0.0576
    135  CG        -1.9080  -42.0860  -18.0950 C.ar  104  TRP104      0.0006
    136  CD1       -0.8350  -42.5390  -17.3480 C.ar  104  TRP104      0.0946
    137  CD2       -1.4000  -40.9480  -18.8450 C.ar  104  TRP104      0.0152
    138  NE1        0.2790  -41.7930  -17.6040 N.ar  104  TRP104     -0.2442
    139  CE2        0.0120  -40.8230  -18.4880 C.ar  104  TRP104      0.0810
    140  CE3       -1.9430  -40.0620  -19.7610 C.ar  104  TRP104      0.0012
    141  CZ2        0.8280  -39.8520  -19.0410 C.ar  104  TRP104      0.0191
    142  CZ3       -1.1150  -39.0730  -20.3070 C.ar  104  TRP104      0.0001
    143  CH2        0.2400  -38.9760  -19.9540 C.ar  104  TRP104      0.0015
@<TRIPOS>BOND
     1    64    66   ar
     2    64    63   ar
     3    66    68   ar
     4    59    60    1
     5    59    58    1
     6    59    62    1
     7   142   143   ar
     8   142   140   ar
     9    60    61    2
    10   143   141   ar
    11   140   137   ar
    12    62    63    1
    13    63    65   ar
    14    51    52   ar
    15    51    49   ar
    16    68    69    1
    17    68    67   ar
    18    52    50   ar
    19   141   139   ar
    20    38    36   ar
    21   137   139   ar
    22   137   135   ar
    23   133   132    2
    24    65    67   ar
    25   139   138   ar
    26    49    46   ar
    27   135   134    1
    28   135   136   ar
    29   134   131    1
    30    50    48   ar
    31    36    37   ar
    32    36    35    1
    33   132   131    1
    34   138   136   ar
    35   129   128    1
    36   131   130    1
    37    42    41    2
    38    46    48   ar
    39    46    44   ar
    40   127   128   ar
    41   127   125   ar
    42    35    34    1
    43    48    47   ar
    44    56    55    2
    45   128   126   ar
    46   125   123   ar
    47    53    54    1
    48    41    40    1
    49   130   120   am
    50    44    43    1
    51    44    45   ar
    52   121   120    2
    53    55    54    1
    54    47    45   ar
    55    34    31    1
    56    43    40    1
    57    57    54    1
    58   126   124   ar
    59   101   100    1
    60   120   119    1
    61    40    39    1
    62    39    32   am
    63   123   124   ar
    64   123   122    1
    65    31    32    1
    66    31    30    1
    67    32    33    2
    68     7     6   ar
    69   122   119    1
    70   100    98   ar
    71   100    99   ar
    72   119   118    1
    73    98    96   ar
    74     8     6   ar
    75    30    24   am
    76    25    24    2
    77     6     5    1
    78    99    97   ar
    79    24    23    1
    80    14    13    1
    81    96    95   ar
    82    13    10    1
    83    97    95   ar
    84    89    88    1
    85     5     2    1
    86    10    11    1
    87    10     9    1
    88    16    15    1
    89    16    17    1
    90    16    19    1
    91    88    85    1
    92    20    19    1
    93    23    22    1
    94    23    26    1
    95    95    94    1
    96    17    18    2
    97    11    12    2
    98    19    21    1
    99     2     3    1
   100     2     1    1
   101   115   117   ar
   102   115   113   ar
   103   117   116   ar
   104    87    86    2
   105    26    27    1
   106     3     4    2
   107    85    86    1
   108    85    84    1
   109   113   112   ar
   110    86    90   am
   111   116   114   ar
   112    94    91    1
   113   112   114   ar
   114   112   111    1
   115   110   109    2
   116   109   108    1
   117    90    91    1
   118   111   108    1
   119    91    92    1
   120    84    77   am
   121    29    27    1
   122    27    28    1
   123   108   107    1
   124    73    72    2
   125    77    78    2
   126    77    76    1
   127    92    93    2
   128   107   104   am
   129    72    71    1
   130    72    75   am
   131    70    71    1
   132    74    71    1
   133    76    75    1
   134    76    79    1
   135   104   103    1
   136   104   105    2
   137   102   103    1
   138    79    80    1
   139   103   106    1
   140    80    81    1
   141    81    82    1
   142    82    83    1
