@<TRIPOS>MOLECULE
tmp/3upeA00.pdb
 198 198 0 0 0
SMALL
GASTEIGER

@<TRIPOS>ATOM
      1  N         20.5870   21.4670   44.2430 N.3    40  HIS40      -0.1241
      2  CA        21.0130   22.8110   44.6080 C.3    40  HIS40       0.1621
      3  C         20.0330   23.4890   45.5700 C.2    40  HIS40       0.2264
      4  O         20.3290   24.5580   46.1100 O.2    40  HIS40      -0.2867
      5  CB        21.3410   23.6600   43.3610 C.3    40  HIS40       0.0745
      6  CG        20.1590   24.2980   42.7000 C.ar   40  HIS40       0.0817
      7  ND1       19.5370   23.7410   41.6060 N.ar   40  HIS40      -0.2268
      8  CD2       19.5140   25.4660   42.9530 C.ar   40  HIS40       0.1154
      9  CE1       18.5400   24.5280   41.2210 C.ar   40  HIS40       0.1986
     10  NE2       18.5080   25.5830   42.0190 N.ar   40  HIS40      -0.2212
     11  N         29.5290   22.4680   40.8930 N.3    79  GLU79      -0.1231
     12  CA        30.2210   23.3960   39.9710 C.3    79  GLU79       0.1699
     13  C         29.6130   23.3340   38.5650 C.2    79  GLU79       0.2593
     14  O         29.4920   24.3550   37.8980 O.2    79  GLU79      -0.2718
     15  CB        31.7280   23.1000   39.9060 C.3    79  GLU79       0.0402
     16  CG        32.5110   23.6670   41.0950 C.3    79  GLU79       0.1161
     17  CD        33.8860   23.0530   41.2600 C.2    79  GLU79       0.3649
     18  OE1       34.3760   22.3910   40.3190 O.co2  79  GLU79      -0.2457
     19  OE2       34.4800   23.2430   42.3400 O.co2  79  GLU79      -0.2457
     20  N         29.2180   22.1420   38.1280 N.am   80  THR80      -0.1939
     21  CA        28.6790   21.9520   36.7630 C.3    80  THR80       0.2028
     22  C         27.1770   21.7550   36.7210 C.2    80  THR80       0.2642
     23  O         26.5460   21.8420   35.6400 O.2    80  THR80      -0.2714
     24  CB        29.3010   20.7190   36.0830 C.3    80  THR80       0.1808
     25  OG1       28.8550   19.5300   36.7590 O.3    80  THR80      -0.2208
     26  CG2       30.8170   20.7690   36.1240 C.3    80  THR80       0.0379
     27  N         26.6380   21.4150   37.8860 N.am   81  TYR81      -0.1973
     28  CA        25.2340   21.1850   38.0800 C.3    81  TYR81       0.1639
     29  C         24.8080   19.8040   37.5610 C.2    81  TYR81       0.2290
     30  O         23.6280   19.4880   37.5330 O.2    81  TYR81      -0.2864
     31  CB        24.3900   22.3400   37.4770 C.3    81  TYR81       0.0560
     32  CG        24.7880   23.7490   37.9420 C.ar   81  TYR81      -0.0198
     33  CD1       25.5790   23.9720   39.0900 C.ar   81  TYR81      -0.0009
     34  CD2       24.3360   24.8440   37.2570 C.ar   81  TYR81      -0.0009
     35  CE1       25.8880   25.2880   39.5070 C.ar   81  TYR81       0.0417
     36  CE2       24.6340   26.1420   37.6570 C.ar   81  TYR81       0.0417
     37  CZ        25.4130   26.3650   38.7560 C.ar   81  TYR81       0.1957
     38  OH        25.6670   27.6760   39.0960 O.3    81  TYR81      -0.2866
     39  N         10.6630   34.1870   40.5240 N.3   123  ASN123     -0.1240
     40  CA        10.6590   35.5460   39.9650 C.3   123  ASN123      0.1653
     41  C          9.9270   35.5700   38.6320 C.2   123  ASN123      0.2266
     42  O         10.1140   34.6700   37.7860 O.2   123  ASN123     -0.2867
     43  CB        12.1190   36.0160   39.8330 C.3   123  ASN123      0.1155
     44  CG        12.2660   37.4940   39.4880 C.2   123  ASN123      0.2627
     45  OD1       11.2880   38.2390   39.3060 O.2   123  ASN123     -0.2716
     46  ND2       13.5280   37.9260   39.3960 N.am  123  ASN123     -0.0877
     47  N         28.2530   27.3450   28.9590 N.3   154  PHE154     -0.1227
     48  CA        28.4760   26.5110   30.1370 C.3   154  PHE154      0.1736
     49  C         28.3130   25.0340   29.8500 C.2   154  PHE154      0.2595
     50  O         27.7640   24.6520   28.8110 O.2   154  PHE154     -0.2718
     51  CB        27.5650   26.9960   31.2860 C.3   154  PHE154      0.0547
     52  CG        27.8010   28.4440   31.6130 C.ar  154  PHE154     -0.0202
     53  CD1       27.0550   29.4550   31.0020 C.ar  154  PHE154     -0.0042
     54  CD2       28.8440   28.8020   32.4530 C.ar  154  PHE154     -0.0042
     55  CE1       27.3200   30.8010   31.2680 C.ar  154  PHE154     -0.0003
     56  CE2       29.1210   30.1510   32.7290 C.ar  154  PHE154     -0.0003
     57  CZ        28.3670   31.1510   32.1400 C.ar  154  PHE154     -0.0000
     58  N         28.7980   24.2030   30.7740 N.am  155  ILE155     -0.1980
     59  CA        28.7660   22.7560   30.6200 C.3   155  ILE155      0.1595
     60  C         27.3420   22.2090   30.5440 C.2   155  ILE155      0.2287
     61  O         26.4730   22.5640   31.3640 O.2   155  ILE155     -0.2864
     62  CB        29.4990   22.0550   31.7800 C.3   155  ILE155      0.0276
     63  CG1       31.0180   22.2020   31.5950 C.3   155  ILE155      0.0022
     64  CG2       29.1490   20.5790   31.8170 C.3   155  ILE155      0.0022
     65  CD1       31.8220   22.1330   32.9370 C.3   155  ILE155      0.0001
     66  N         10.2570   31.7550   30.5000 N.3   171  ASP171     -0.1225
     67  CA        11.2920   30.8850   31.1040 C.3   171  ASP171      0.1805
     68  C         10.9090   30.6510   32.5390 C.2   171  ASP171      0.2598
     69  O         10.0850   31.3920   33.1050 O.2   171  ASP171     -0.2718
     70  CB        12.6430   31.6320   31.0520 C.3   171  ASP171      0.1424
     71  CG        13.8750   30.7160   31.2020 C.2   171  ASP171      0.3668
     72  OD1       14.9920   31.2600   31.0790 O.co2 171  ASP171     -0.2456
     73  OD2       13.7870   29.4930   31.4380 O.co2 171  ASP171     -0.2456
     74  N         11.5440   29.6470   33.1580 N.am  172  ALA172     -0.1966
     75  CA        11.5370   29.5290   34.6120 C.3   172  ALA172      0.1728
     76  C         12.5920   30.5120   35.1700 C.2   172  ALA172      0.2616
     77  O         13.3150   31.1710   34.4040 O.2   172  ALA172     -0.2715
     78  CB        11.8830   28.0670   35.0290 C.3   172  ALA172      0.0334
     79  N         12.6860   30.6270   36.4950 N.am  173  CYS173     -0.1954
     80  CA        13.6120   31.5920   37.0860 C.3   173  CYS173      0.1843
     81  C         13.9770   31.2240   38.5040 C.2   173  CYS173      0.2625
     82  O         13.5370   30.1920   39.0250 O.2   173  CYS173     -0.2714
     83  CB        13.0040   33.0090   37.0470 C.3   173  CYS173      0.0997
     84  SG        14.1900   34.3850   37.1170 S.3   173  CYS173     -0.0797
     85  N         14.8090   32.0600   39.1320 N.am  174  GLN174     -0.1977
     86  CA        15.1920   31.8630   40.5360 C.3   174  GLN174      0.1601
     87  C         13.9220   31.7370   41.3650 C.2   174  GLN174      0.2287
     88  O         12.9620   32.4820   41.1330 O.2   174  GLN174     -0.2864
     89  CB        16.0150   33.0580   41.0230 C.3   174  GLN174      0.0394
     90  CG        15.3360   34.3870   40.7360 C.3   174  GLN174      0.0908
     91  CD        16.1530   35.6130   41.1440 C.2   174  GLN174      0.2608
     92  OE1       15.8330   36.7440   40.7570 O.2   174  GLN174     -0.2717
     93  NE2       17.2290   35.3880   41.8940 N.am  174  GLN174     -0.0878
     94  N         13.4610   26.8830   41.0550 N.3   177  SER177     -0.1217
     95  CA        14.4230   25.7770   41.3340 C.3   177  SER177      0.1889
     96  C         13.8080   24.5900   42.0390 C.2   177  SER177      0.2288
     97  O         13.0940   24.7690   43.0210 O.2   177  SER177     -0.2866
     98  CB        15.5300   26.3210   42.2540 C.3   177  SER177      0.2089
     99  OG        16.3370   27.2310   41.5570 O.3   177  SER177     -0.2183
    100  N         13.6080   21.9370   37.5930 N.3   191  VAL191     -0.1231
    101  CA        14.1640   23.2510   37.2800 C.3   191  VAL191      0.1692
    102  C         15.5680   23.3020   37.8950 C.2   191  VAL191      0.2593
    103  O         15.7150   23.1890   39.1160 O.2   191  VAL191     -0.2718
    104  CB        13.2980   24.3970   37.9100 C.3   191  VAL191      0.0266
    105  CG1       13.9560   25.7610   37.6420 C.3   191  VAL191      0.0020
    106  CG2       11.8100   24.3270   37.3350 C.3   191  VAL191      0.0020
    107  N         16.5880   23.4600   37.0450 N.am  192  SER192     -0.1938
    108  CA        17.9850   23.3600   37.5090 C.3   192  SER192      0.2055
    109  C         18.7870   24.6680   37.3930 C.2   192  SER192      0.2643
    110  O         19.2620   25.2230   38.4010 O.2   192  SER192     -0.2714
    111  CB        18.6790   22.1900   36.7520 C.3   192  SER192      0.2130
    112  OG        20.0260   22.0530   37.1950 O.3   192  SER192     -0.2179
    113  N         18.9370   25.1840   36.1740 N.am  193  TRP193     -0.1959
    114  CA        19.7220   26.3860   36.0060 C.3   193  TRP193      0.1771
    115  C         19.3810   27.1980   34.7900 C.2   193  TRP193      0.2620
    116  O         18.6310   26.7630   33.9190 O.2   193  TRP193     -0.2715
    117  CB        21.2380   26.0920   36.0540 C.3   193  TRP193      0.0590
    118  CG        21.8030   25.2370   34.9430 C.ar  193  TRP193      0.0006
    119  CD1       21.8850   23.8820   34.9260 C.ar  193  TRP193      0.0946
    120  CD2       22.4410   25.7020   33.7390 C.ar  193  TRP193      0.0152
    121  NE1       22.5230   23.4590   33.7800 N.ar  193  TRP193     -0.2442
    122  CE2       22.8550   24.5550   33.0240 C.ar  193  TRP193      0.0810
    123  CE3       22.6700   26.9740   33.1830 C.ar  193  TRP193      0.0012
    124  CZ2       23.5190   24.6360   31.7920 C.ar  193  TRP193      0.0191
    125  CZ3       23.3250   27.0650   31.9440 C.ar  193  TRP193      0.0001
    126  CH2       23.7220   25.8920   31.2580 C.ar  193  TRP193      0.0015
    127  N         19.9640   28.3880   34.7370 N.am  194  GLY194     -0.1940
    128  CA        19.8830   29.2260   33.5300 C.3   194  GLY194      0.2014
    129  C         20.7120   30.4850   33.6880 C.2   194  GLY194      0.2640
    130  O         20.9530   30.9580   34.8030 O.2   194  GLY194     -0.2714
    131  N         21.1680   31.0370   32.5640 N.am  195  SER195     -0.1935
    132  CA        21.9160   32.2930   32.6010 C.3   195  SER195      0.2055
    133  C         20.9430   33.4610   32.6060 C.2   195  SER195      0.2644
    134  O         20.4570   33.8790   31.5570 O.2   195  SER195     -0.2714
    135  CB        22.8740   32.3780   31.4080 C.3   195  SER195      0.2130
    136  OG        23.9090   31.4350   31.6060 O.3   195  SER195     -0.2179
    137  N         20.6560   33.9900   33.7950 N.am  196  GLY196     -0.1939
    138  CA        19.5410   34.9190   33.9490 C.3   196  GLY196      0.2014
    139  C         18.2230   34.1890   33.7080 C.2   196  GLY196      0.2639
    140  O         18.1540   32.9630   33.8330 O.2   196  GLY196     -0.2714
    141  N         17.1790   34.9340   33.3490 N.am  197  CYS197     -0.1967
    142  CA        15.8950   34.3180   33.0110 C.3   197  CYS197      0.1712
    143  C         15.2950   35.0150   31.8210 C.2   197  CYS197      0.2296
    144  O         15.2790   36.2390   31.7720 O.2   197  CYS197     -0.2864
    145  CB        14.9110   34.4320   34.1730 C.3   197  CYS197      0.0983
    146  SG        15.6350   33.9020   35.7490 S.3   197  CYS197     -0.0798
    147  N         16.1800   35.4790   28.9240 N.3   199  GLN199     -0.1245
    148  CA        17.0620   36.2530   28.0430 C.3   199  GLN199      0.1566
    149  C         17.2360   35.5630   26.6950 C.2   199  GLN199      0.2260
    150  O         17.1320   34.3440   26.5930 O.2   199  GLN199     -0.2867
    151  CB        18.4190   36.5000   28.7180 C.3   199  GLN199      0.0367
    152  CG        18.3050   37.3500   29.9740 C.3   199  GLN199      0.0905
    153  CD        19.6380   37.6290   30.6240 C.2   199  GLN199      0.2608
    154  OE1       20.6560   37.7660   29.9480 O.2   199  GLN199     -0.2717
    155  NE2       19.6390   37.7330   31.9430 N.am  199  GLN199     -0.0878
    156  N         19.4790   32.1480   25.9260 N.3   202  LYS202     -0.1231
    157  CA        19.8260   31.6280   27.2280 C.3   202  LYS202      0.1678
    158  C         18.5960   30.8760   27.7810 C.2   202  LYS202      0.2434
    159  O         17.9370   31.3710   28.7040 O.2   202  LYS202     -0.2733
    160  CB        20.2470   32.7810   28.1610 C.3   202  LYS202      0.0284
    161  CG        21.6430   33.3980   27.7880 C.3   202  LYS202      0.0035
    162  CD        21.9580   34.6770   28.5770 C.3   202  LYS202      0.0206
    163  CE        23.4530   35.0630   28.4960 C.3   202  LYS202      0.1093
    164  NZ        23.8470   35.2910   27.0710 N.3   202  LYS202     -0.1314
    165  N         18.2790   29.6950   27.2050 N.am  203  PRO203     -0.2718
    166  CA        17.1040   28.9510   27.6440 C.3   203  PRO203      0.1535
    167  C         17.2780   28.3380   29.0430 C.2   203  PRO203      0.2599
    168  O         18.3860   28.2970   29.5870 O.2   203  PRO203     -0.2715
    169  CB        16.9690   27.8360   26.5790 C.3   203  PRO203      0.0310
    170  CG        18.4000   27.5960   26.0890 C.3   203  PRO203      0.0237
    171  CD        19.1130   28.9400   26.2300 C.3   203  PRO203      0.0939
    172  N         16.1630   27.8820   29.6120 N.am  204  GLY204     -0.1941
    173  CA        16.1940   27.1590   30.8800 C.3   204  GLY204      0.2014
    174  C         16.7880   25.7700   30.7260 C.2   204  GLY204      0.2639
    175  O         16.5400   25.0780   29.7310 O.2   204  GLY204     -0.2714
    176  N         17.5700   25.3590   31.7330 N.am  205  PHE205     -0.1959
    177  CA        18.1040   23.9940   31.8270 C.3   205  PHE205      0.1771
    178  C         17.5280   23.2110   32.9840 C.2   205  PHE205      0.2619
    179  O         17.2680   23.7820   34.0450 O.2   205  PHE205     -0.2715
    180  CB        19.6340   24.0340   31.9160 C.3   205  PHE205      0.0574
    181  CG        20.2860   24.3690   30.5710 C.ar  205  PHE205     -0.0200
    182  CD1       20.4190   25.6860   30.1550 C.ar  205  PHE205     -0.0042
    183  CD2       20.7140   23.3470   29.7330 C.ar  205  PHE205     -0.0042
    184  CE1       20.9790   25.9880   28.9090 C.ar  205  PHE205     -0.0003
    185  CE2       21.2550   23.6370   28.5050 C.ar  205  PHE205     -0.0003
    186  CZ        21.3910   24.9480   28.0820 C.ar  205  PHE205     -0.0000
    187  N         17.3350   21.9100   32.7480 N.am  206  TYR206     -0.1974
    188  CA        16.4800   21.0560   33.5640 C.3   206  TYR206      0.1639
    189  C         17.1740   19.7330   33.7720 C.2   206  TYR206      0.2290
    190  O         17.7820   19.1860   32.8360 O.2   206  TYR206     -0.2864
    191  CB        15.1220   20.8360   32.8380 C.3   206  TYR206      0.0560
    192  CG        14.4080   22.1550   32.6930 C.ar  206  TYR206     -0.0198
    193  CD1       13.6590   22.6910   33.7660 C.ar  206  TYR206     -0.0009
    194  CD2       14.5090   22.9040   31.5230 C.ar  206  TYR206     -0.0009
    195  CE1       13.0340   23.9400   33.6560 C.ar  206  TYR206      0.0417
    196  CE2       13.8910   24.1670   31.4130 C.ar  206  TYR206      0.0417
    197  CZ        13.1620   24.6690   32.4860 C.ar  206  TYR206      0.1957
    198  OH        12.5420   25.8930   32.3750 O.3   206  TYR206     -0.2866
@<TRIPOS>BOND
     1   156   157    1
     2   170   171    1
     3   170   169    1
     4   171   165    1
     5   169   166    1
     6   150   149    2
     7   149   148    1
     8   164   163    1
     9   165   166    1
    10   165   158   am
    11   157   158    1
    12   157   160    1
    13   166   167    1
    14   158   159    2
    15   161   160    1
    16   161   162    1
    17   148   151    1
    18   148   147    1
    19   186   185   ar
    20   186   184   ar
    21   163   162    1
    22   185   183   ar
    23   151   152    1
    24    50    49    2
    25   184   182   ar
    26    47    48    1
    27   167   168    2
    28   167   172   am
    29   172   173    1
    30   175   174    2
    31   183   181   ar
    32    49    48    1
    33    49    58   am
    34   154   153    2
    35   152   153    1
    36    48    51    1
    37   182   181   ar
    38    66    67    1
    39    60    59    1
    40    60    61    2
    41   181   180    1
    42    59    58    1
    43    59    62    1
    44   153   155   am
    45   174   173    1
    46   174   176   am
    47    53    55   ar
    48    53    52   ar
    49    70    67    1
    50    70    71    1
    51    72    71   ar
    52    67    68    1
    53    71    73   ar
    54   126   124   ar
    55   126   125   ar
    56    55    57   ar
    57    51    52    1
    58   135   136    1
    59   135   132    1
    60   196   194   ar
    61   196   197   ar
    62   194   192   ar
    63   134   133    2
    64    63    62    1
    65    63    65    1
    66    52    54   ar
    67   176   177    1
    68   144   143    2
    69    62    64    1
    70   124   122   ar
    71   143   142    1
    72   177   180    1
    73   177   178    1
    74   125   123   ar
    75    57    56   ar
    76   198   197    1
    77    54    56   ar
    78   197   195   ar
    79    68    69    2
    80    68    74   am
    81   131   132    1
    82   131   129   am
    83   132   133    1
    84   133   137   am
    85   192   191    1
    86   192   193   ar
    87   187   178   am
    88   187   188    1
    89   190   189    2
    90   191   188    1
    91   178   179    2
    92   142   141    1
    93   142   145    1
    94   122   120   ar
    95   122   121   ar
    96    74    75    1
    97   123   120   ar
    98   141   139   am
    99   128   129    1
   100   128   127    1
   101   188   189    1
   102   195   193   ar
   103   129   130    2
   104   139   140    2
   105   139   138    1
   106   120   118   ar
   107   121   119   ar
   108   137   138    1
   109   116   115    2
   110   145   146    1
   111    77    76    2
   112    75    78    1
   113    75    76    1
   114   127   115   am
   115   115   114    1
   116   119   118   ar
   117   118   117    1
   118    76    79   am
   119    23    22    2
   120   146    84    1
   121   114   117    1
   122   114   113    1
   123    24    26    1
   124    24    25    1
   125    24    21    1
   126   113   109   am
   127    79    80    1
   128    22    21    1
   129    22    27   am
   130   111   112    1
   131   111   108    1
   132    21    20    1
   133   107   108    1
   134   107   102   am
   135    83    80    1
   136    83    84    1
   137    80    81    1
   138    34    36   ar
   139    34    32   ar
   140   101   100    1
   141   101   102    1
   142   101   104    1
   143   106   104    1
   144   109   108    1
   145   109   110    2
   146    31    32    1
   147    31    28    1
   148    30    29    2
   149    29    28    1
   150   105   104    1
   151    36    37   ar
   152    42    41    2
   153    27    28    1
   154   102   103    2
   155    14    13    2
   156    32    33   ar
   157    20    13   am
   158    81    82    2
   159    81    85   am
   160    13    12    1
   161    41    40    1
   162    37    38    1
   163    37    35   ar
   164    33    35   ar
   165    85    86    1
   166    45    44    2
   167    46    44   am
   168    44    43    1
   169    43    40    1
   170    15    12    1
   171    15    16    1
   172    40    39    1
   173    12    11    1
   174    18    17   ar
   175    86    89    1
   176    86    87    1
   177    90    89    1
   178    90    91    1
   179    92    91    2
   180    94    95    1
   181    16    17    1
   182    88    87    2
   183    91    93   am
   184     9     7   ar
   185     9    10   ar
   186    17    19   ar
   187    95    96    1
   188    95    98    1
   189    99    98    1
   190     7     6   ar
   191    10     8   ar
   192    96    97    2
   193     6     8   ar
   194     6     5    1
   195     5     2    1
   196     1     2    1
   197     2     3    1
   198     3     4    2
