@<TRIPOS>MOLECULE
tmp/3upfC00.pdb
 213 202 0 0 0
SMALL
GASTEIGER

@<TRIPOS>ATOM
      1  N         11.2010    3.5880   33.8030 N.3    38  TRP38      -0.1241
      2  CA         9.9130    2.9620   33.9550 C.3    38  TRP38       0.1605
      3  C         10.0300    1.6260   34.6580 C.2    38  TRP38       0.2264
      4  O         11.0700    0.9650   34.5730 O.2    38  TRP38      -0.2867
      5  CB         9.2700    2.7670   32.5860 C.3    38  TRP38       0.0550
      6  CG         8.8390    4.0570   31.9400 C.ar   38  TRP38       0.0003
      7  CD1        9.4900    5.2590   31.9860 C.ar   38  TRP38       0.0946
      8  CD2        7.6850    4.2610   31.1210 C.ar   38  TRP38       0.0152
      9  NE1        8.8080    6.1940   31.2630 N.ar   38  TRP38      -0.2442
     10  CE2        7.6980    5.6120   30.7140 C.ar   38  TRP38       0.0810
     11  CE3        6.6390    3.4330   30.6870 C.ar   38  TRP38       0.0012
     12  CZ2        6.7040    6.1590   29.9020 C.ar   38  TRP38       0.0191
     13  CZ3        5.6560    3.9740   29.8770 C.ar   38  TRP38       0.0001
     14  CH2        5.6980    5.3260   29.4930 C.ar   38  TRP38       0.0015
     15  N        -10.4380    4.4370   42.8990 N.3    61  ASP61      -0.1225
     16  CA       -10.0690    5.6880   42.2450 C.3    61  ASP61       0.1805
     17  C        -10.3880    5.6320   40.7460 C.2    61  ASP61       0.2597
     18  O        -11.0160    6.5590   40.1980 O.2    61  ASP61      -0.2718
     19  CB        -8.5890    6.0090   42.4860 C.3    61  ASP61       0.1424
     20  CG        -8.2820    6.3470   43.9500 C.2    61  ASP61       0.3668
     21  OD1       -9.2120    6.6770   44.7350 O.co2  61  ASP61      -0.2456
     22  OD2       -7.0960    6.2840   44.3190 O.co2  61  ASP61      -0.2456
     23  N         -9.9890    4.5290   40.1060 N.am   62  GLN62      -0.1979
     24  CA       -10.2990    4.2510   38.7060 C.3    62  GLN62       0.1601
     25  C        -11.7790    4.3690   38.3420 C.2    62  GLN62       0.2287
     26  O        -12.1100    4.7230   37.2110 O.2    62  GLN62      -0.2864
     27  CB        -9.7830    2.8680   38.3010 C.3    62  GLN62       0.0394
     28  CG        -8.2540    2.7770   38.1520 C.3    62  GLN62       0.0908
     29  CD        -7.7070    3.7200   37.1010 C.2    62  GLN62       0.2608
     30  OE1       -7.1160    4.7280   37.4360 O.2    62  GLN62      -0.2717
     31  NE2       -7.9230    3.4030   35.8200 N.am   62  GLN62      -0.0878
     32  N        -14.0810    6.3870   39.7240 N.3    64  LYS64      -0.1231
     33  CA       -14.6990    7.6840   39.9950 C.3    64  LYS64       0.1678
     34  C        -15.2870    8.3300   38.7610 C.2    64  LYS64       0.2434
     35  O        -16.4440    8.7680   38.8030 O.2    64  LYS64      -0.2733
     36  CB       -13.7420    8.6320   40.7020 C.3    64  LYS64       0.0284
     37  CG       -13.6430    8.3100   42.1630 C.3    64  LYS64       0.0035
     38  CD       -12.4690    8.9900   42.8280 C.3    64  LYS64       0.0206
     39  CE       -12.2470    8.3980   44.2220 C.3    64  LYS64       0.1093
     40  NZ       -11.6360    9.3990   45.1330 N.3    64  LYS64      -0.1314
     41  N        -14.5240    8.3640   37.6450 N.am   65  PRO65      -0.2729
     42  CA       -15.0430    9.0970   36.4980 C.3    65  PRO65       0.1401
     43  C        -16.3450    8.5410   35.9180 C.2    65  PRO65       0.2269
     44  O        -17.0380    9.2640   35.2010 O.2    65  PRO65      -0.2865
     45  CB       -13.8910    9.0400   35.4890 C.3    65  PRO65       0.0296
     46  CG       -13.0320    7.9370   35.9170 C.3    65  PRO65       0.0237
     47  CD       -13.1620    7.8530   37.3910 C.3    65  PRO65       0.0939
     48  N        -19.2090   10.5990   37.3490 N.3    68  GLU68      -0.1245
     49  CA       -19.2790   11.9510   36.8370 C.3    68  GLU68       0.1567
     50  C        -20.4830   12.0670   35.9320 C.2    68  GLU68       0.2260
     51  O        -20.7890   11.1210   35.1910 O.2    68  GLU68      -0.2867
     52  CB       -18.0420   12.2920   36.0200 C.3    68  GLU68       0.0388
     53  CG       -16.8390   12.6360   36.8540 C.3    68  GLU68       0.1160
     54  CD       -17.1960   13.4700   38.0730 C.2    68  GLU68       0.3649
     55  OE1      -17.7090   14.6010   37.9130 O.co2  68  GLU68      -0.2457
     56  OE2      -16.9650   12.9840   39.1990 O.co2  68  GLU68      -0.2457
     57  N          1.6370   -3.3810   33.5830 N.3   164  GLU164     -0.1231
     58  CA         2.3600   -2.7570   32.4980 C.3   164  GLU164      0.1699
     59  C          3.3690   -1.7820   33.0460 C.2   164  GLU164      0.2592
     60  O          3.2160   -1.2870   34.1600 O.2   164  GLU164     -0.2718
     61  CB         1.3980   -2.0020   31.6090 C.3   164  GLU164      0.0402
     62  CG         0.9670   -0.7100   32.1970 C.3   164  GLU164      0.1161
     63  CD        -0.1750   -0.0810   31.4470 C.2   164  GLU164      0.3649
     64  OE1       -0.0920   -0.0020   30.1960 O.co2 164  GLU164     -0.2457
     65  OE2       -1.1500    0.3430   32.1170 O.co2 164  GLU164     -0.2457
     66  N          4.4000   -1.5140   32.2530 N.am  165  LEU165     -0.1966
     67  CA         5.4460   -0.5840   32.6190 C.3   165  LEU165      0.1728
     68  C          4.8630    0.8080   32.5950 C.2   165  LEU165      0.2616
     69  O          4.1430    1.1820   31.6650 O.2   165  LEU165     -0.2715
     70  CB         6.6000   -0.6930   31.6300 C.3   165  LEU165      0.0311
     71  CG         7.7740   -1.6390   31.9150 C.3   165  LEU165      0.0022
     72  CD1        7.4320   -2.7780   32.8550 C.3   165  LEU165      0.0001
     73  CD2        8.3400   -2.1570   30.6140 C.3   165  LEU165      0.0001
     74  N          5.1530    1.5740   33.6350 N.am  166  VAL166     -0.1963
     75  CA         4.6090    2.9140   33.7510 C.3   166  VAL166      0.1727
     76  C          5.7430    3.8670   34.0600 C.2   166  VAL166      0.2616
     77  O          6.8250    3.4350   34.4400 O.2   166  VAL166     -0.2715
     78  CB         3.5380    2.9970   34.8600 C.3   166  VAL166      0.0290
     79  CG1        2.3810    2.0800   34.5430 C.3   166  VAL166      0.0023
     80  CG2        4.1270    2.6510   36.2260 C.3   166  VAL166      0.0023
     81  N          5.4930    5.1630   33.9010 N.am  167  LYS167     -0.1977
     82  CA         6.4370    6.1680   34.3530 C.3   167  LYS167      0.1596
     83  C          6.5480    6.0950   35.8890 C.2   167  LYS167      0.2287
     84  O          5.5550    5.8040   36.5680 O.2   167  LYS167     -0.2864
     85  CB         6.0180    7.5580   33.8710 C.3   167  LYS167      0.0298
     86  CG         4.9430    8.2350   34.7160 C.3   167  LYS167      0.0038
     87  CD         4.7320    9.6770   34.2670 C.3   167  LYS167      0.0206
     88  CE         3.4580   10.2510   34.8510 C.3   167  LYS167      0.1093
     89  NZ         3.1590   11.5630   34.2440 N.3   167  LYS167     -0.1314
     90  N          3.8690    7.2560   38.7280 N.3   170  LYS170     -0.1245
     91  CA         2.6730    6.4670   38.9750 C.3   170  LYS170      0.1561
     92  C          2.8680    5.4140   40.0490 C.2   170  LYS170      0.2260
     93  O          1.9090    4.7370   40.4150 O.2   170  LYS170     -0.2867
     94  CB         2.1980    5.8060   37.6890 C.3   170  LYS170      0.0271
     95  CG         0.9680    6.4370   37.1260 C.3   170  LYS170      0.0035
     96  CD         1.0340    6.5050   35.6360 C.3   170  LYS170      0.0206
     97  CE         0.0460    7.5460   35.1320 C.3   170  LYS170      0.1093
     98  NZ         0.4550    8.9550   35.4620 N.3   170  LYS170     -0.1314
     99  N          1.7620    9.8600   43.1110 N.3   174  LYS174     -0.1231
    100  CA         0.3530    9.5170   43.1700 C.3   174  LYS174      0.1693
    101  C          0.0770    8.2490   42.3550 C.2   174  LYS174      0.2592
    102  O          0.1430    8.2520   41.1170 O.2   174  LYS174     -0.2718
    103  CB        -0.5140   10.6970   42.7040 C.3   174  LYS174      0.0285
    104  CG        -2.0190   10.3930   42.5740 C.3   174  LYS174      0.0035
    105  CD        -2.6610    9.9450   43.9030 C.3   174  LYS174      0.0206
    106  CE        -4.1850    9.7810   43.7620 C.3   174  LYS174      0.1093
    107  NZ        -4.8620    9.2120   44.9730 N.3   174  LYS174     -0.1314
    108  N         -0.2460    7.1750   43.0720 N.am  175  ILE175     -0.1966
    109  CA        -0.3880    5.8430   42.4920 C.3   175  ILE175      0.1727
    110  C         -1.6380    5.7140   41.6320 C.2   175  ILE175      0.2616
    111  O         -2.7460    6.0660   42.0540 O.2   175  ILE175     -0.2715
    112  CB        -0.3860    4.7400   43.5720 C.3   175  ILE175      0.0290
    113  CG1        0.9340    4.7570   44.3530 C.3   175  ILE175      0.0022
    114  CG2       -0.6020    3.3740   42.9430 C.3   175  ILE175      0.0023
    115  CD1        0.9860    3.7470   45.4680 C.3   175  ILE175      0.0001
    116  N         -1.4360    5.2180   40.4150 N.am  176  LYS176     -0.1963
    117  CA        -2.5150    4.9360   39.4890 C.3   176  LYS176      0.1728
    118  C         -2.1870    3.6640   38.7180 C.2   176  LYS176      0.2616
    119  O         -1.0180    3.3860   38.4480 O.2   176  LYS176     -0.2715
    120  CB        -2.7100    6.1070   38.5260 C.3   176  LYS176      0.0311
    121  CG        -2.8620    7.4490   39.2370 C.3   176  LYS176      0.0038
    122  CD        -3.1400    8.5550   38.2680 C.3   176  LYS176      0.0206
    123  CE        -3.0510    9.9050   38.9370 C.3   176  LYS176      0.1093
    124  NZ        -3.3030   10.9380   37.9050 N.3   176  LYS176     -0.1314
    125  N         -3.2240    2.8990   38.3770 N.am  177  LYS177     -0.1963
    126  CA        -3.0920    1.6750   37.6120 C.3   177  LYS177      0.1728
    127  C         -4.3760    1.5020   36.7970 C.2   177  LYS177      0.2616
    128  O         -5.4640    1.6230   37.3380 O.2   177  LYS177     -0.2715
    129  CB        -2.8980    0.4980   38.5740 C.3   177  LYS177      0.0311
    130  CG        -2.2180   -0.7090   37.9730 C.3   177  LYS177      0.0038
    131  CD        -1.7190   -1.6600   39.0370 C.3   177  LYS177      0.0206
    132  CE        -1.3070   -3.0070   38.4140 C.3   177  LYS177      0.1093
    133  NZ        -1.0510   -4.0660   39.4260 N.3   177  LYS177     -0.1314
    134  N         -4.2570    1.2160   35.5040 N.am  178  ARG178     -0.1977
    135  CA        -5.4340    1.1990   34.6200 C.3   178  ARG178      0.1597
    136  C         -6.4490    0.0900   34.8840 C.2   178  ARG178      0.2287
    137  O         -6.0950   -1.0800   35.0780 O.2   178  ARG178     -0.2864
    138  CB        -5.0190    1.2390   33.1390 C.3   178  ARG178      0.0334
    139  CG        -4.3370    2.5780   32.7690 C.3   178  ARG178      0.0492
    140  CD        -4.2530    2.8290   31.2750 C.3   178  ARG178      0.2205
    141  NE        -3.1460    2.1300   30.6220 N.pl3 178  ARG178     -0.0865
    142  CZ        -3.0150    2.0220   29.3000 C.cat 178  ARG178      0.5346
    143  NH1       -3.9300    2.5610   28.5010 N.pl3 178  ARG178      0.1354
    144  NH2       -1.9790    1.3760   28.7700 N.pl3 178  ARG178      0.1354
    145  N         -7.5840   12.2780   27.6430 N.3   240  THR240     -0.1203
    146  CA        -7.4340   11.6610   28.9520 C.3   240  THR240      0.1994
    147  C         -8.7320   10.9470   29.2340 C.2   240  THR240      0.2617
    148  O         -9.8000   11.4470   28.8620 O.2   240  THR240     -0.2717
    149  CB        -7.2110   12.7270   30.0500 C.3   240  THR240      0.1784
    150  OG1       -5.9820   13.4130   29.7970 O.3   240  THR240     -0.2211
    151  CG2       -7.1360   12.0920   31.4240 C.3   240  THR240      0.0376
    152  N         -8.6380    9.7820   29.8720 N.am  241  ARG241     -0.1979
    153  CA        -9.8090    9.0710   30.3940 C.3   241  ARG241      0.1597
    154  C        -10.9220    8.8970   29.3610 C.2   241  ARG241      0.2287
    155  O        -12.1120    9.0650   29.6690 O.2   241  ARG241     -0.2864
    156  CB       -10.3370    9.7600   31.6560 C.3   241  ARG241      0.0334
    157  CG        -9.4920    9.4540   32.8770 C.3   241  ARG241      0.0492
    158  CD       -10.0510   10.0290   34.1530 C.3   241  ARG241      0.2205
    159  NE        -9.6460   11.4140   34.3350 N.pl3 241  ARG241     -0.0865
    160  CZ       -10.4960   12.4290   34.4780 C.cat 241  ARG241      0.5346
    161  NH1      -11.8150   12.2130   34.4700 N.pl3 241  ARG241      0.1354
    162  NH2      -10.0240   13.6630   34.6390 N.pl3 241  ARG241      0.1354
    163  N        -13.8980    6.2100   30.1700 N.3   244  SER244     -0.1217
    164  CA       -14.8140    6.5750   31.2530 C.3   244  SER244      0.1889
    165  C        -15.6590    7.8060   30.9330 C.2   244  SER244      0.2288
    166  O        -16.6990    8.0200   31.5540 O.2   244  SER244     -0.2866
    167  CB       -14.0720    6.7530   32.5840 C.3   244  SER244      0.2089
    168  OG       -13.0380    7.7150   32.4920 O.3   244  SER244     -0.2183
    169  N          0.5810   20.1230   27.7810 N.3   368  LYS368     -0.1245
    170  CA        -0.2820   19.8940   28.9620 C.3   368  LYS368      0.1561
    171  C         -0.8530   21.1830   29.5580 C.2   368  LYS368      0.2260
    172  O         -1.5660   21.1570   30.5670 O.2   368  LYS368     -0.2867
    173  CB         0.4140   19.0220   30.0330 C.3   368  LYS368      0.0271
    174  CG         1.0470   17.7070   29.5050 C.3   368  LYS368      0.0035
    175  CD         0.0970   16.5030   29.5510 C.3   368  LYS368      0.0206
    176  CE         0.5980   15.3480   28.6710 C.3   368  LYS368      0.1093
    177  NZ         0.2850   15.5540   27.2110 N.3   368  LYS368     -0.1314
    178  N          1.6930    4.1170   19.3480 N.3   386  ARG386     -0.1245
    179  CA         2.9380    4.1700   20.1380 C.3   386  ARG386      0.1563
    180  C          4.2380    4.4040   19.3540 C.2   386  ARG386      0.2260
    181  O          5.3340    4.3560   19.9300 O.2   386  ARG386     -0.2867
    182  CB         3.0660    2.9380   21.0500 C.3   386  ARG386      0.0307
    183  CG         2.0760    2.9350   22.2130 C.3   386  ARG386      0.0489
    184  CD         1.7510    1.5210   22.7130 C.3   386  ARG386      0.2205
    185  NE         0.4610    1.0490   22.2030 N.pl3 386  ARG386     -0.0865
    186  CZ         0.3130    0.2450   21.1490 C.cat 386  ARG386      0.5346
    187  NH1        1.3790   -0.1980   20.4830 N.pl3 386  ARG386      0.1354
    188  NH2       -0.9080   -0.1200   20.7580 N.pl3 386  ARG386      0.1354
    189  N         10.0060    4.9410   19.4920 N.3   401  ASP401     -0.1239
    190  CA        10.9230    5.9180   20.0620 C.3   401  ASP401      0.1674
    191  C         12.0080    5.2900   20.9290 C.2   401  ASP401      0.2266
    192  O         11.8490    4.1750   21.4280 O.2   401  ASP401     -0.2867
    193  CB        10.1670    7.0150   20.8250 C.3   401  ASP401      0.1410
    194  CG         9.4300    6.4870   22.0450 C.2   401  ASP401      0.3668
    195  OD1        9.6870    7.0070   23.1510 O.co2 401  ASP401     -0.2456
    196  OD2        8.6030    5.5610   21.9000 O.co2 401  ASP401     -0.2456
    197  N         11.3970    3.7520   24.4790 N.3   404  SER404     -0.1217
    198  CA        10.7250    2.4580   24.5040 C.3   404  SER404      0.1889
    199  C         11.6610    1.3410   24.0710 C.2   404  SER404      0.2288
    200  O         11.5960    0.2460   24.6160 O.2   404  SER404     -0.2866
    201  CB         9.4810    2.4640   23.6290 C.3   404  SER404      0.2089
    202  OG         8.8630    3.7380   23.6510 O.3   404  SER404     -0.2183
    203  N         13.4720    0.6580   27.2060 N.3   407  ARG407     -0.1245
    204  CA        12.6230   -0.0600   28.1640 C.3   407  ARG407      0.1563
    205  C         12.5920   -1.5520   27.8970 C.2   407  ARG407      0.2260
    206  O         12.8660   -2.3400   28.7850 O.2   407  ARG407     -0.2867
    207  CB        11.1970    0.4820   28.1380 C.3   407  ARG407      0.0307
    208  CG        10.9140    1.5750   29.1370 C.3   407  ARG407      0.0489
    209  CD         9.4700    1.9880   29.0080 C.3   407  ARG407      0.2205
    210  NE         9.2840    3.0590   28.0350 N.pl3 407  ARG407     -0.0865
    211  CZ         8.2630    3.1190   27.1860 C.cat 407  ARG407      0.5346
    212  NH1        7.3450    2.1560   27.1660 N.pl3 407  ARG407      0.1354
    213  NH2        8.1660    4.1360   26.3420 N.pl3 407  ARG407      0.1354
@<TRIPOS>BOND
     1   178   179    1
     2   180   181    2
     3   180   179    1
     4   189   190    1
     5   190   193    1
     6   190   191    1
     7   179   182    1
     8   187   186    1
     9   188   186    1
    10   193   194    1
    11   191   192    2
    12   182   183    1
    13   186   185    2
    14   196   194   ar
    15   194   195   ar
    16   185   184    1
    17   183   184    1
    18   201   202    1
    19   201   198    1
    20   199   198    1
    21   199   200    2
    22   197   198    1
    23   213   211    1
    24   212   211    1
    25   211   210    2
    26   203   204    1
    27   177   176    1
    28   145   146    1
    29   169   170    1
    30   205   204    1
    31   205   206    2
    32   210   209    1
    33   207   204    1
    34   207   208    1
    35   143   142    1
    36   176   175    1
    37   144   142    1
    38   148   147    2
    39   146   147    1
    40   146   149    1
    41   170   171    1
    42   170   173    1
    43   209   208    1
    44   147   152   am
    45   142   141    2
    46   154   155    2
    47   154   153    1
    48    14    13   ar
    49    14    12   ar
    50   174   175    1
    51   174   173    1
    52   171   172    2
    53   150   149    1
    54   152   153    1
    55    13    11   ar
    56    12    10   ar
    57   149   151    1
    58   163   164    1
    59    64    63   ar
    60   153   156    1
    61    73    71    1
    62   141   140    1
    63    11     8   ar
    64    10     8   ar
    65    10     9   ar
    66   165   164    1
    67   165   166    2
    68     8     6   ar
    69   164   167    1
    70     9     7   ar
    71   140   139    1
    72    63    65   ar
    73    63    62    1
    74    61    62    1
    75    61    58    1
    76    70    71    1
    77    70    67    1
    78   156   157    1
    79    69    68    2
    80    71    72    1
    81     6     7   ar
    82     6     5    1
    83    66    67    1
    84    66    59   am
    85   168   167    1
    86    58    59    1
    87    58    57    1
    88     5     2    1
    89    68    67    1
    90    68    74   am
    91   139   138    1
    92   157   158    1
    93    59    60    2
    94   138   135    1
    95    74    75    1
    96    75    76    1
    97    75    78    1
    98     1     2    1
    99    85    82    1
   100    85    86    1
   101    81    76   am
   102    81    82    1
   103     2     3    1
   104    76    77    2
   105   158   159    1
   106    89    88    1
   107    87    86    1
   108    87    88    1
   109   159   160    2
   110    82    83    1
   111   161   160    1
   112   160   162    1
   113    79    78    1
   114     4     3    2
   115   135   136    1
   116   135   134    1
   117    78    80    1
   118   136   137    2
   119    97    98    1
   120    97    96    1
   121    51    50    2
   122    44    43    2
   123    45    46    1
   124    45    42    1
   125   134   127   am
   126    96    95    1
   127    31    29   am
   128    83    84    2
   129    46    47    1
   130    43    42    1
   131    50    49    1
   132    52    49    1
   133    52    53    1
   134    42    41    1
   135   127   128    2
   136   127   126    1
   137    49    48    1
   138    53    54    1
   139    29    30    2
   140    29    28    1
   141    95    94    1
   142    26    25    2
   143    47    41    1
   144   126   125    1
   145   126   129    1
   146    41    34   am
   147    94    91    1
   148   124   123    1
   149    55    54   ar
   150   130   129    1
   151   130   131    1
   152    54    56   ar
   153    28    27    1
   154   122   123    1
   155   122   121    1
   156    27    24    1
   157    25    24    1
   158   125   118   am
   159   132   131    1
   160   132   133    1
   161   119   118    2
   162   120   121    1
   163   120   117    1
   164    24    23    1
   165   118   117    1
   166    90    91    1
   167    34    35    2
   168    34    33    1
   169    91    92    1
   170   117   116    1
   171    32    33    1
   172    33    36    1
   173    92    93    2
   174    23    17   am
   175    18    17    2
   176   116   110   am
   177    36    37    1
   178    17    16    1
   179   102   101    2
   180   110   111    2
   181   110   109    1
   182    37    38    1
   183    16    19    1
   184    16    15    1
   185   101   108   am
   186   101   100    1
   187    19    20    1
   188   109   108    1
   189   109   112    1
   190   104   103    1
   191   104   105    1
   192   103   100    1
   193    38    39    1
   194   114   112    1
   195    99   100    1
   196   112   113    1
   197   106   105    1
   198   106   107    1
   199    20    22   ar
   200    20    21   ar
   201    39    40    1
   202   113   115    1
