@<TRIPOS>MOLECULE
tmp/3upfA00.pdb
 205 195 0 0 0
SMALL
GASTEIGER

@<TRIPOS>ATOM
      1  N          7.4370  -69.8610   33.1240 N.3    41  TRP41      -0.1241
      2  CA         7.1600  -68.5230   33.6560 C.3    41  TRP41       0.1605
      3  C          5.6860  -68.1240   33.6540 C.2    41  TRP41       0.2264
      4  O          4.9090  -68.5350   32.7980 O.2    41  TRP41      -0.2867
      5  CB         7.9390  -67.4710   32.8710 C.3    41  TRP41       0.0550
      6  CG         9.4390  -67.6280   32.8930 C.ar   41  TRP41       0.0003
      7  CD1       10.1530  -68.7970   32.9140 C.ar   41  TRP41       0.0946
      8  CD2       10.4010  -66.5710   32.8530 C.ar   41  TRP41       0.0152
      9  NE1       11.4960  -68.5270   32.9070 N.ar   41  TRP41      -0.2442
     10  CE2       11.6780  -67.1700   32.8650 C.ar   41  TRP41       0.0810
     11  CE3       10.3070  -65.1740   32.8120 C.ar   41  TRP41       0.0012
     12  CZ2       12.8560  -66.4220   32.8410 C.ar   41  TRP41       0.0191
     13  CZ3       11.4770  -64.4300   32.7800 C.ar   41  TRP41       0.0001
     14  CH2       12.7370  -65.0580   32.7980 C.ar   41  TRP41       0.0015
     15  N          9.1150  -55.4600   51.5950 N.3    64  ASP64      -0.1225
     16  CA        10.3220  -56.2560   51.3450 C.3    64  ASP64       0.1805
     17  C         11.2550  -55.5950   50.3360 C.2    64  ASP64       0.2597
     18  O         12.4690  -55.5420   50.5280 O.2    64  ASP64      -0.2718
     19  CB         9.9410  -57.6430   50.8110 C.3    64  ASP64       0.1424
     20  CG         9.4960  -58.6060   51.9020 C.2    64  ASP64       0.3668
     21  OD1        9.2120  -58.1680   53.0460 O.co2  64  ASP64      -0.2456
     22  OD2        9.4280  -59.8200   51.6000 O.co2  64  ASP64      -0.2456
     23  N         10.6730  -55.0960   49.2560 N.am   65  GLN65      -0.1979
     24  CA        11.4260  -54.4200   48.2020 C.3    65  GLN65       0.1601
     25  C         12.1180  -53.1290   48.6650 C.2    65  GLN65       0.2287
     26  O         13.1390  -52.7470   48.0970 O.2    65  GLN65      -0.2864
     27  CB        10.5040  -54.1330   47.0140 C.3    65  GLN65       0.0394
     28  CG        10.0060  -55.3860   46.3060 C.3    65  GLN65       0.0908
     29  CD        11.1020  -56.0760   45.5240 C.2    65  GLN65       0.2608
     30  OE1       11.4600  -57.2120   45.8190 O.2    65  GLN65      -0.2717
     31  NE2       11.6590  -55.3740   44.5250 N.am   65  GLN65      -0.0878
     32  N         13.4030  -52.7180   51.7240 N.3    67  LYS67      -0.1231
     33  CA        14.3800  -53.0290   52.7600 C.3    67  LYS67       0.1678
     34  C         15.7940  -52.5670   52.3950 C.2    67  LYS67       0.2434
     35  O         16.4010  -51.8360   53.1870 O.2    67  LYS67      -0.2733
     36  CB        14.3400  -54.5090   53.1640 C.3    67  LYS67       0.0284
     37  CG        13.2960  -54.8270   54.2520 C.3    67  LYS67       0.0035
     38  CD        12.9730  -56.3250   54.3290 C.3    67  LYS67       0.0206
     39  CE        11.9250  -56.6270   55.4110 C.3    67  LYS67       0.1093
     40  NZ        10.5570  -56.1360   55.0610 N.3    67  LYS67      -0.1314
     41  N         16.3030  -52.9330   51.1840 N.am   68  PRO68      -0.2729
     42  CA        17.6880  -52.5550   50.8650 C.3    68  PRO68       0.1401
     43  C         17.8890  -51.0600   50.6900 C.2    68  PRO68       0.2269
     44  O         19.0250  -50.6190   50.5170 O.2    68  PRO68      -0.2865
     45  CB        17.9750  -53.3000   49.5610 C.3    68  PRO68       0.0296
     46  CG        16.6600  -53.5840   48.9710 C.3    68  PRO68       0.0237
     47  CD        15.6830  -53.7080   50.0910 C.3    68  PRO68       0.0939
     48  N         19.4960  -50.0410   53.8200 N.3    71  GLU71      -0.1245
     49  CA        20.8040  -50.6830   53.9750 C.3    71  GLU71       0.1567
     50  C         21.9200  -49.6340   53.9100 C.2    71  GLU71       0.2260
     51  O         21.7740  -48.6360   53.2230 O.2    71  GLU71      -0.2867
     52  CB        20.9890  -51.7550   52.8890 C.3    71  GLU71       0.0388
     53  CG        21.5940  -53.0540   53.3660 C.3    71  GLU71       0.1160
     54  CD        20.9920  -53.5300   54.7000 C.2    71  GLU71       0.3649
     55  OE1       21.7780  -53.8400   55.6360 O.co2  71  GLU71      -0.2457
     56  OE2       19.7370  -53.5820   54.8160 O.co2  71  GLU71      -0.2457
     57  N          4.7710  -58.4570   35.5730 N.3   167  GLU167     -0.1231
     58  CA         5.6230  -59.0610   34.5540 C.3   167  GLU167      0.1699
     59  C          5.7190  -60.5640   34.7200 C.2   167  GLU167      0.2592
     60  O          5.3510  -61.1020   35.7580 O.2   167  GLU167     -0.2718
     61  CB         7.0310  -58.4460   34.5910 C.3   167  GLU167      0.0402
     62  CG         7.9770  -59.0190   35.6450 C.3   167  GLU167      0.1161
     63  CD         9.1850  -58.1260   35.8840 C.2   167  GLU167      0.3649
     64  OE1        9.8340  -57.7240   34.8980 O.co2 167  GLU167     -0.2457
     65  OE2        9.5040  -57.8290   37.0590 O.co2 167  GLU167     -0.2457
     66  N          6.2290  -61.2340   33.6910 N.am  168  LEU168     -0.1966
     67  CA         6.5060  -62.6690   33.7270 C.3   168  LEU168      0.1728
     68  C          7.7680  -62.9620   34.5420 C.2   168  LEU168      0.2616
     69  O          8.8290  -62.3760   34.2960 O.2   168  LEU168     -0.2715
     70  CB         6.6830  -63.1960   32.2920 C.3   168  LEU168      0.0311
     71  CG         5.4720  -63.6390   31.4500 C.3   168  LEU168      0.0022
     72  CD1        4.1550  -62.9760   31.8750 C.3   168  LEU168      0.0001
     73  CD2        5.7230  -63.4440   29.9600 C.3   168  LEU168      0.0001
     74  N          7.6610  -63.8680   35.5080 N.am  169  VAL169     -0.1963
     75  CA         8.8060  -64.2030   36.3640 C.3   169  VAL169      0.1727
     76  C          9.0520  -65.7000   36.4110 C.2   169  VAL169      0.2616
     77  O          8.1480  -66.4820   36.1110 O.2   169  VAL169     -0.2715
     78  CB         8.6430  -63.6680   37.8120 C.3   169  VAL169      0.0290
     79  CG1        8.5840  -62.1520   37.8180 C.3   169  VAL169      0.0023
     80  CG2        7.4200  -64.2670   38.5030 C.3   169  VAL169      0.0023
     81  N         10.2680  -66.0980   36.7880 N.am  170  LYS170     -0.1977
     82  CA        10.5490  -67.5150   37.0070 C.3   170  LYS170      0.1596
     83  C          9.6810  -68.0530   38.1710 C.2   170  LYS170      0.2287
     84  O          9.5080  -67.3690   39.1940 O.2   170  LYS170     -0.2864
     85  CB        12.0590  -67.7980   37.1780 C.3   170  LYS170      0.0298
     86  CG        12.7630  -67.1390   38.3660 C.3   170  LYS170      0.0038
     87  CD        13.8970  -68.0370   38.9030 C.3   170  LYS170      0.0206
     88  CE        14.7190  -67.3480   40.0050 C.3   170  LYS170      0.1093
     89  NZ        15.6550  -68.2770   40.7190 N.3   170  LYS170     -0.1314
     90  N          9.5870  -67.3670   42.0460 N.3   173  LYS173     -0.1245
     91  CA         9.1910  -66.0630   42.5910 C.3   173  LYS173      0.1561
     92  C          7.6930  -65.9650   42.8650 C.2   173  LYS173      0.2260
     93  O          7.2330  -64.9980   43.4680 O.2   173  LYS173     -0.2867
     94  CB         9.6720  -64.9200   41.6930 C.3   173  LYS173      0.0271
     95  CG        11.1110  -64.5350   41.9650 C.3   173  LYS173      0.0035
     96  CD        11.7130  -63.7270   40.8400 C.3   173  LYS173      0.0206
     97  CE        13.1300  -63.2600   41.2000 C.3   173  LYS173      0.1093
     98  NZ        14.1520  -64.3570   41.2840 N.3   173  LYS173     -0.1314
     99  N         10.0500  -68.2010   47.4610 N.3   177  LYS177     -0.1231
    100  CA        10.1320  -66.8920   48.1210 C.3   177  LYS177      0.1693
    101  C          9.5830  -65.8310   47.1650 C.2   177  LYS177      0.2592
    102  O         10.2130  -65.4830   46.1510 O.2   177  LYS177     -0.2718
    103  CB        11.5760  -66.5840   48.5700 C.3   177  LYS177      0.0285
    104  CG        11.8670  -65.1560   49.1350 C.3   177  LYS177      0.0035
    105  CD        11.2320  -64.8600   50.5120 C.3   177  LYS177      0.0206
    106  CE         9.9270  -64.0450   50.3800 C.3   177  LYS177      0.1093
    107  NZ         9.3800  -63.5220   51.6740 N.3   177  LYS177     -0.1314
    108  N          8.3860  -65.3520   47.4940 N.am  178  ILE178     -0.1966
    109  CA         7.6520  -64.4050   46.6630 C.3   178  ILE178      0.1727
    110  C          8.3640  -63.0470   46.5400 C.2   178  ILE178      0.2616
    111  O          8.8450  -62.4920   47.5270 O.2   178  ILE178     -0.2715
    112  CB         6.1930  -64.2560   47.1710 C.3   178  ILE178      0.0290
    113  CG1        5.3760  -65.4820   46.7420 C.3   178  ILE178      0.0022
    114  CG2        5.5490  -62.9510   46.6660 C.3   178  ILE178      0.0023
    115  CD1        3.9410  -65.4920   47.2290 C.3   178  ILE178      0.0001
    116  N          8.4330  -62.5400   45.3120 N.am  179  LYS179     -0.1963
    117  CA         9.0360  -61.2370   45.0060 C.3   179  LYS179      0.1728
    118  C          8.3170  -60.5790   43.8290 C.2   179  LYS179      0.2616
    119  O          7.6980  -61.2670   43.0040 O.2   179  LYS179     -0.2715
    120  CB        10.5220  -61.3870   44.6580 C.3   179  LYS179      0.0311
    121  CG        11.4360  -61.5920   45.8430 C.3   179  LYS179      0.0038
    122  CD        12.8020  -62.0400   45.3760 C.3   179  LYS179      0.0206
    123  CE        13.5640  -62.7480   46.4830 C.3   179  LYS179      0.1093
    124  NZ        14.9970  -62.8990   46.1060 N.3   179  LYS179     -0.1314
    125  N          8.4190  -59.2510   43.7540 N.am  180  LYS180     -0.1963
    126  CA         7.8080  -58.4720   42.6900 C.3   180  LYS180      0.1728
    127  C          8.5030  -57.1150   42.6470 C.2   180  LYS180      0.2616
    128  O          8.5530  -56.4300   43.6620 O.2   180  LYS180     -0.2715
    129  CB         6.3150  -58.3040   42.9670 C.3   180  LYS180      0.0311
    130  CG         5.4630  -58.0130   41.7490 C.3   180  LYS180      0.0038
    131  CD         3.9940  -58.1300   42.1060 C.3   180  LYS180      0.0206
    132  CE         3.1160  -57.6500   40.9820 C.3   180  LYS180      0.1093
    133  NZ         1.6940  -57.9650   41.2430 N.3   180  LYS180     -0.1314
    134  N          9.0370  -56.7270   41.4840 N.am  181  ARG181     -0.1977
    135  CA         9.8400  -55.5130   41.3890 C.3   181  ARG181      0.1597
    136  C          9.0570  -54.2530   41.6930 C.2   181  ARG181      0.2287
    137  O          7.9700  -54.0410   41.1770 O.2   181  ARG181     -0.2864
    138  CB        10.5480  -55.3930   40.0360 C.3   181  ARG181      0.0334
    139  CG        11.7060  -56.3850   39.8500 C.3   181  ARG181      0.0492
    140  CD        12.8720  -55.8460   39.0050 C.3   181  ARG181      0.2205
    141  NE        12.4990  -55.4700   37.6440 N.pl3 181  ARG181     -0.0865
    142  CZ        12.2590  -56.3360   36.6660 C.cat 181  ARG181      0.5346
    143  NH1       12.3330  -57.6390   36.8970 N.pl3 181  ARG181      0.1354
    144  NH2       11.9280  -55.9010   35.4600 N.pl3 181  ARG181      0.1354
    145  N         22.8820  -57.3730   40.6770 N.3   243  THR243     -0.1203
    146  CA        21.6740  -57.6270   41.4470 C.3   243  THR243      0.1994
    147  C         21.3030  -56.3180   42.1710 C.2   243  THR243      0.2617
    148  O         22.1810  -55.6260   42.6970 O.2   243  THR243     -0.2717
    149  CB        21.9530  -58.7620   42.4670 C.3   243  THR243      0.1784
    150  OG1       22.2070  -59.9860   41.7640 O.3   243  THR243     -0.2211
    151  CG2       20.7870  -58.9780   43.4240 C.3   243  THR243      0.0376
    152  N         20.0150  -55.9780   42.1910 N.am  244  ARG244     -0.1979
    153  CA        19.5010  -54.7890   42.9150 C.3   244  ARG244      0.1597
    154  C         20.3460  -53.5430   42.6590 C.2   244  ARG244      0.2287
    155  O         20.9120  -52.9510   43.5820 O.2   244  ARG244     -0.2864
    156  CB        19.4070  -55.0500   44.4280 C.3   244  ARG244      0.0334
    157  CG        18.4360  -56.1500   44.8560 C.3   244  ARG244      0.0492
    158  CD        18.2070  -56.1910   46.3780 C.3   244  ARG244      0.2205
    159  NE        19.3190  -56.7970   47.1110 N.pl3 244  ARG244     -0.0865
    160  CZ        19.5120  -58.1080   47.2460 C.cat 244  ARG244      0.5346
    161  NH1       18.6640  -58.9770   46.6940 N.pl3 244  ARG244      0.1354
    162  NH2       20.5640  -58.5490   47.9300 N.pl3 244  ARG244      0.1354
    163  N         18.7390  -50.0590   44.0790 N.3   247  SER247     -0.1217
    164  CA        18.6690  -49.9220   45.5260 C.3   247  SER247      0.1889
    165  C         20.0570  -49.7510   46.1440 C.2   247  SER247      0.2288
    166  O         20.1820  -49.0980   47.1680 O.2   247  SER247     -0.2866
    167  CB        17.8800  -51.0690   46.1710 C.3   247  SER247      0.2089
    168  OG        18.4060  -52.3250   45.8070 O.3   247  SER247     -0.2183
    169  N         26.7910  -68.1900   39.2310 N.3   372  LYS372     -0.1245
    170  CA        26.2260  -67.8030   40.5520 C.3   372  LYS372      0.1561
    171  C         27.0460  -68.2500   41.7700 C.2   372  LYS372      0.2260
    172  O         26.7050  -67.9050   42.9040 O.2   372  LYS372     -0.2867
    173  CB        24.7440  -68.1810   40.7160 C.3   372  LYS372      0.0271
    174  CG        23.8080  -67.5380   39.6970 C.3   372  LYS372      0.0035
    175  CD        22.3440  -67.8310   40.0140 C.3   372  LYS372      0.0206
    176  CE        21.5230  -68.1140   38.7500 C.3   372  LYS372      0.1093
    177  NZ        21.5980  -67.0400   37.7290 N.3   372  LYS372     -0.1314
    178  N         18.4010  -57.9090   26.7790 N.3   389  ARG389     -0.1245
    179  CA        17.5650  -59.1210   26.7920 C.3   389  ARG389      0.1563
    180  C         17.8310  -60.0440   25.5790 C.2   389  ARG389      0.2260
    181  O         17.1730  -61.0840   25.4050 O.2   389  ARG389     -0.2867
    182  CB        16.0630  -58.7570   26.9290 C.3   389  ARG389      0.0307
    183  CG        15.7600  -57.5660   27.8860 C.3   389  ARG389      0.0489
    184  CD        14.2690  -57.2700   28.0780 C.3   389  ARG389      0.2205
    185  NE        13.5690  -56.8710   26.8500 N.pl3 389  ARG389     -0.0865
    186  CZ        12.7420  -57.6610   26.1590 C.cat 389  ARG389      0.5346
    187  NH1       12.5060  -58.9090   26.5600 N.pl3 389  ARG389      0.1354
    188  NH2       12.1470  -57.2060   25.0580 N.pl3 389  ARG389      0.1354
    189  N         12.7530  -67.0130   25.4930 N.3   407  SER407     -0.1217
    190  CA        11.9700  -65.7760   25.4420 C.3   407  SER407      0.1889
    191  C         10.9730  -65.8250   24.3080 C.2   407  SER407      0.2288
    192  O          9.9090  -65.2220   24.3780 O.2   407  SER407     -0.2866
    193  CB        12.8710  -64.5610   25.2580 C.3   407  SER407      0.2089
    194  OG        13.8300  -64.4770   26.2960 O.3   407  SER407     -0.2183
    195  N          8.2530  -68.3710   25.5470 N.3   410  ARG410     -0.1245
    196  CA         7.5090  -67.5930   26.5460 C.3   410  ARG410      0.1563
    197  C          6.5380  -66.5450   25.9460 C.2   410  ARG410      0.2260
    198  O          5.4580  -66.3070   26.4940 O.2   410  ARG410     -0.2867
    199  CB         8.5030  -66.8940   27.4680 C.3   410  ARG410      0.0307
    200  CG         7.9570  -66.4240   28.8060 C.3   410  ARG410      0.0489
    201  CD         9.0640  -65.7290   29.5810 C.3   410  ARG410      0.2205
    202  NE        10.2530  -66.5670   29.6040 N.pl3 410  ARG410     -0.0865
    203  CZ        11.5020  -66.1240   29.5110 C.cat 410  ARG410      0.5346
    204  NH1       11.7580  -64.8220   29.3910 N.pl3 410  ARG410      0.1354
    205  NH2       12.5000  -66.9970   29.5340 N.pl3 410  ARG410      0.1354
@<TRIPOS>BOND
     1   191   192    2
     2   191   190    1
     3   188   186    1
     4   193   190    1
     5   193   194    1
     6   181   180    2
     7   190   189    1
     8   195   196    1
     9   180   179    1
    10   197   198    2
    11   197   196    1
    12   186   187    1
    13   186   185    2
    14   196   199    1
    15   178   179    1
    16   179   182    1
    17   185   184    1
    18   182   183    1
    19   199   200    1
    20   183   184    1
    21   200   201    1
    22   204   203    1
    23   203   205    1
    24   203   202    2
    25   201   202    1
    26    73    71    1
    27    71    72    1
    28    71    70    1
    29    70    67    1
    30    13    14   ar
    31    13    11   ar
    32     4     3    2
    33    14    12   ar
    34    11     8   ar
    35    12    10   ar
    36     8    10   ar
    37     8     6   ar
    38    10     9   ar
    39     5     6    1
    40     5     2    1
    41     6     7   ar
    42     9     7   ar
    43     1     2    1
    44     3     2    1
    45    66    67    1
    46    66    59   am
    47    67    68    1
    48    69    68    2
    49    68    74   am
    50    58    61    1
    51    58    59    1
    52    58    57    1
    53    61    62    1
    54    59    60    2
    55    64    63   ar
    56   144   142    1
    57    74    75    1
    58    62    63    1
    59    63    65   ar
    60    77    76    2
    61    75    76    1
    62    75    78    1
    63    76    81   am
    64   142   143    1
    65   142   141    2
    66    81    82    1
    67    82    85    1
    68    82    83    1
    69    85    86    1
    70   141   140    1
    71   177   176    1
    72    78    79    1
    73    78    80    1
    74    83    84    2
    75    86    87    1
    76   176   175    1
    77    87    88    1
    78   140   139    1
    79   169   170    1
    80   174   175    1
    81   174   173    1
    82   139   138    1
    83    88    89    1
    84   138   135    1
    85   170   173    1
    86   170   171    1
    87   145   146    1
    88    96    97    1
    89    96    95    1
    90   132   133    1
    91   132   131    1
    92   137   136    2
    93    97    98    1
    94   135   134    1
    95   135   136    1
    96   146   147    1
    97   146   149    1
    98   134   127   am
    99    94    95    1
   100    94    91    1
   101   130   131    1
   102   130   129    1
   103   150   149    1
   104   171   172    2
   105    90    91    1
   106   147   152   am
   107   147   148    2
   108   152   153    1
   109   149   151    1
   110    91    92    1
   111   127   126    1
   112   127   128    2
   113   154   153    1
   114   154   155    2
   115   126   129    1
   116   126   125    1
   117    92    93    2
   118   153   156    1
   119   119   118    2
   120   125   118   am
   121   118   117    1
   122   163   164    1
   123   156   157    1
   124    31    29   am
   125   120   117    1
   126   120   121    1
   127   157   158    1
   128   117   116    1
   129   116   110   am
   130   122   121    1
   131   122   123    1
   132    29    30    2
   133    29    28    1
   134   164   165    1
   135   164   167    1
   136   168   167    1
   137   124   123    1
   138   165   166    2
   139   102   101    2
   140    28    27    1
   141   158   159    1
   142   110   109    1
   143   110   111    2
   144   109   112    1
   145   109   108    1
   146   114   112    1
   147   161   160    1
   148   113   112    1
   149   113   115    1
   150    27    24    1
   151   159   160    2
   152   101   108   am
   153   101   100    1
   154   160   162    1
   155    99   100    1
   156    26    25    2
   157   100   103    1
   158    24    25    1
   159    24    23    1
   160   103   104    1
   161    46    45    1
   162    46    47    1
   163   104   105    1
   164    23    17   am
   165    45    42    1
   166    47    41    1
   167    17    18    2
   168    17    16    1
   169   106   105    1
   170   106   107    1
   171    44    43    2
   172    43    42    1
   173    19    16    1
   174    19    20    1
   175    42    41    1
   176    41    34   am
   177    16    15    1
   178    22    20   ar
   179    32    33    1
   180    20    21   ar
   181    34    33    1
   182    34    35    2
   183    33    36    1
   184    52    53    1
   185    52    49    1
   186    36    37    1
   187    51    50    2
   188    53    54    1
   189    48    49    1
   190    50    49    1
   191    37    38    1
   192    38    39    1
   193    54    56   ar
   194    54    55   ar
   195    40    39    1
