@<TRIPOS>MOLECULE
tmp/3upfB00.pdb
 197 186 0 0 0
SMALL
GASTEIGER

@<TRIPOS>ATOM
      1  N         49.7290  -30.7070   -9.1110 N.3    41  TRP41      -0.1241
      2  CA        48.8830  -31.3530  -10.1120 C.3    41  TRP41       0.1605
      3  C         48.1740  -30.3940  -11.0830 C.2    41  TRP41       0.2264
      4  O         47.6670  -29.3240  -10.6960 O.2    41  TRP41      -0.2867
      5  CB        47.8450  -32.2250   -9.4250 C.3    41  TRP41       0.0550
      6  CG        48.4200  -33.4170   -8.7270 C.ar   41  TRP41       0.0003
      7  CD1       49.6040  -33.4830   -8.0390 C.ar   41  TRP41       0.0946
      8  CD2       47.8220  -34.7200   -8.6180 C.ar   41  TRP41       0.0152
      9  NE1       49.7840  -34.7470   -7.5320 N.ar   41  TRP41      -0.2442
     10  CE2       48.7060  -35.5240   -7.8700 C.ar   41  TRP41       0.0810
     11  CE3       46.6250  -35.2870   -9.0880 C.ar   41  TRP41       0.0012
     12  CZ2       48.4320  -36.8630   -7.5770 C.ar   41  TRP41       0.0191
     13  CZ3       46.3580  -36.6240   -8.8000 C.ar   41  TRP41       0.0001
     14  CH2       47.2560  -37.3890   -8.0510 C.ar   41  TRP41       0.0015
     15  N         49.1390  -45.9480  -27.0230 N.3    64  ASP64      -0.1225
     16  CA        49.8370  -46.3860  -25.8230 C.3    64  ASP64       0.1805
     17  C         48.8960  -47.0140  -24.8060 C.2    64  ASP64       0.2597
     18  O         49.2460  -48.0330  -24.2000 O.2    64  ASP64      -0.2718
     19  CB        50.6060  -45.2350  -25.1840 C.3    64  ASP64       0.1424
     20  CG        51.6260  -44.6270  -26.1120 C.2    64  ASP64       0.3668
     21  OD1       51.8160  -45.1610  -27.2310 O.co2  64  ASP64      -0.2456
     22  OD2       52.2250  -43.5940  -25.7250 O.co2  64  ASP64      -0.2456
     23  N         47.7140  -46.4120  -24.6360 N.am   65  GLN65      -0.1979
     24  CA        46.6690  -46.9210  -23.7370 C.3    65  GLN65       0.1601
     25  C         46.0940  -48.2630  -24.1720 C.2    65  GLN65       0.2287
     26  O         45.6300  -49.0330  -23.3380 O.2    65  GLN65      -0.2864
     27  CB        45.5100  -45.9300  -23.6240 C.3    65  GLN65       0.0394
     28  CG        45.7990  -44.6860  -22.8170 C.3    65  GLN65       0.0908
     29  CD        46.2030  -45.0050  -21.3910 C.2    65  GLN65       0.2608
     30  OE1       47.3790  -44.9150  -21.0420 O.2    65  GLN65      -0.2717
     31  NE2       45.2330  -45.3980  -20.5640 N.am   65  GLN65      -0.0878
     32  N         47.7710  -50.6980  -25.6780 N.3    67  LYS67      -0.1231
     33  CA        48.8120  -51.7410  -25.6540 C.3    67  LYS67       0.1678
     34  C         48.4650  -53.0020  -24.8350 C.2    67  LYS67       0.2434
     35  O         48.4680  -54.0970  -25.3870 O.2    67  LYS67      -0.2733
     36  CB        50.1590  -51.1690  -25.2010 C.3    67  LYS67       0.0284
     37  CG        50.9710  -50.5310  -26.3000 C.3    67  LYS67       0.0035
     38  CD        52.3080  -50.0320  -25.7570 C.3    67  LYS67       0.0206
     39  CE        53.4640  -50.3450  -26.7160 C.3    67  LYS67       0.1093
     40  NZ        53.3020  -49.7050  -28.0660 N.3    67  LYS67      -0.1314
     41  N         48.1460  -52.8530  -23.5320 N.am   68  PRO68      -0.2729
     42  CA        47.8910  -54.0340  -22.6850 C.3    68  PRO68       0.1401
     43  C         46.6690  -54.8990  -23.0420 C.2    68  PRO68       0.2269
     44  O         46.5510  -56.0150  -22.5440 O.2    68  PRO68      -0.2865
     45  CB        47.7370  -53.4360  -21.2800 C.3    68  PRO68       0.0296
     46  CG        47.3920  -52.0120  -21.5110 C.3    68  PRO68       0.0237
     47  CD        48.1470  -51.6140  -22.7330 C.3    68  PRO68       0.0939
     48  N         48.3450  -57.8600  -25.1160 N.3    71  GLU71      -0.1245
     49  CA        49.2550  -58.7560  -24.3860 C.3    71  GLU71       0.1567
     50  C         48.5390  -60.0600  -24.0170 C.2    71  GLU71       0.2260
     51  O         47.3430  -60.0510  -23.7750 O.2    71  GLU71      -0.2867
     52  CB        49.8320  -58.0680  -23.1380 C.3    71  GLU71       0.0388
     53  CG        51.1460  -57.2790  -23.3740 C.3    71  GLU71       0.1160
     54  CD        52.3470  -58.1860  -23.7080 C.2    71  GLU71       0.3649
     55  OE1       52.7970  -58.9470  -22.8180 O.co2  71  GLU71      -0.2457
     56  OE2       52.8470  -58.1370  -24.8620 O.co2  71  GLU71      -0.2457
     57  N         41.0680  -35.1200  -16.3610 N.3   167  GLU167     -0.1231
     58  CA        41.1840  -35.1210  -14.8930 C.3   167  GLU167      0.1699
     59  C         42.5190  -34.4860  -14.4550 C.2   167  GLU167      0.2592
     60  O         43.3980  -34.2450  -15.2800 O.2   167  GLU167     -0.2718
     61  CB        41.1100  -36.5530  -14.3680 C.3   167  GLU167      0.0402
     62  CG        42.2760  -37.4380  -14.8330 C.3   167  GLU167      0.1161
     63  CD        42.2470  -38.8340  -14.2380 C.2   167  GLU167      0.3649
     64  OE1       41.6360  -39.0330  -13.1510 O.co2 167  GLU167     -0.2457
     65  OE2       42.8470  -39.7340  -14.8540 O.co2 167  GLU167     -0.2457
     66  N         42.6650  -34.2310  -13.1570 N.am  168  LEU168     -0.1966
     67  CA        43.9300  -33.7460  -12.5750 C.3   168  LEU168      0.1728
     68  C         44.9270  -34.8830  -12.4610 C.2   168  LEU168      0.2616
     69  O         44.5520  -36.0030  -12.1590 O.2   168  LEU168     -0.2715
     70  CB        43.6760  -33.1570  -11.1820 C.3   168  LEU168      0.0311
     71  CG        43.4490  -31.6490  -11.0120 C.3   168  LEU168      0.0022
     72  CD1       42.6320  -30.9980  -12.1300 C.3   168  LEU168      0.0001
     73  CD2       42.8240  -31.3740   -9.6530 C.3   168  LEU168      0.0001
     74  N         46.2000  -34.6000  -12.6930 N.am  169  VAL169     -0.1963
     75  CA        47.2260  -35.6340  -12.6490 C.3   169  VAL169      0.1727
     76  C         48.5740  -35.0850  -12.1420 C.2   169  VAL169      0.2616
     77  O         48.8170  -33.8790  -12.2010 O.2   169  VAL169     -0.2715
     78  CB        47.4240  -36.3030  -14.0400 C.3   169  VAL169      0.0290
     79  CG1       46.1100  -36.9000  -14.5840 C.3   169  VAL169      0.0023
     80  CG2       48.0320  -35.3310  -15.0330 C.3   169  VAL169      0.0023
     81  N         49.4390  -35.9740  -11.6430 N.am  170  LYS170     -0.1977
     82  CA        50.8230  -35.6250  -11.2910 C.3   170  LYS170      0.1596
     83  C         51.5570  -35.0040  -12.4840 C.2   170  LYS170      0.2287
     84  O         51.4870  -35.5370  -13.5910 O.2   170  LYS170     -0.2864
     85  CB        51.6050  -36.8720  -10.8670 C.3   170  LYS170      0.0298
     86  CG        51.3220  -37.4370   -9.4790 C.3   170  LYS170      0.0038
     87  CD        52.6310  -37.9490   -8.8580 C.3   170  LYS170      0.0206
     88  CE        52.4110  -39.0420   -7.8240 C.3   170  LYS170      0.1093
     89  NZ        52.1700  -40.3720   -8.4560 N.3   170  LYS170     -0.1314
     90  N         53.1180  -36.9510  -15.3880 N.3   173  LYS173     -0.1245
     91  CA        52.2400  -37.4300  -16.4670 C.3   173  LYS173      0.1561
     92  C         52.0240  -36.3800  -17.5530 C.2   173  LYS173      0.2260
     93  O         51.5330  -36.6930  -18.6440 O.2   173  LYS173     -0.2867
     94  CB        50.8860  -37.8920  -15.9130 C.3   173  LYS173      0.0271
     95  CG        50.9570  -39.0380  -14.9110 C.3   173  LYS173      0.0035
     96  CD        51.1320  -40.3930  -15.5930 C.3   173  LYS173      0.0206
     97  CE        51.1730  -41.5200  -14.5610 C.3   173  LYS173      0.1093
     98  NZ        49.9730  -41.4650  -13.6880 N.3   173  LYS173     -0.1314
     99  N         56.8710  -38.6790  -19.0150 N.3   177  LYS177     -0.1245
    100  CA        56.1480  -39.6080  -19.8860 C.3   177  LYS177      0.1561
    101  C         54.6650  -39.2690  -19.8290 C.2   177  LYS177      0.2260
    102  O         54.0080  -39.3960  -18.7780 O.2   177  LYS177     -0.2867
    103  CB        56.3770  -41.0650  -19.4440 C.3   177  LYS177      0.0271
    104  CG        55.7900  -42.1600  -20.3870 C.3   177  LYS177      0.0035
    105  CD        56.7970  -42.6890  -21.4160 C.3   177  LYS177      0.0206
    106  CE        56.1180  -43.5760  -22.4590 C.3   177  LYS177      0.1093
    107  NZ        57.0760  -44.0730  -23.5040 N.3   177  LYS177     -0.1314
    108  N         50.8430  -39.5970  -20.2280 N.3   179  LYS179     -0.1231
    109  CA        49.8070  -40.6240  -20.1970 C.3   179  LYS179      0.1693
    110  C         48.4980  -39.9770  -19.8050 C.2   179  LYS179      0.2592
    111  O         48.4790  -39.0710  -18.9680 O.2   179  LYS179     -0.2718
    112  CB        50.1570  -41.7110  -19.1800 C.3   179  LYS179      0.0285
    113  CG        51.4280  -42.4720  -19.5100 C.3   179  LYS179      0.0035
    114  CD        51.9980  -43.1230  -18.2960 C.3   179  LYS179      0.0206
    115  CE        53.1570  -43.9980  -18.7000 C.3   179  LYS179      0.1093
    116  NZ        53.9090  -44.4800  -17.5140 N.3   179  LYS179     -0.1314
    117  N         47.4120  -40.4520  -20.4110 N.am  180  LYS180     -0.1966
    118  CA        46.0480  -40.0060  -20.1280 C.3   180  LYS180      0.1728
    119  C         45.1810  -41.2540  -20.1410 C.2   180  LYS180      0.2616
    120  O         45.2870  -42.0690  -21.0360 O.2   180  LYS180     -0.2715
    121  CB        45.5910  -39.0070  -21.2020 C.3   180  LYS180      0.0311
    122  CG        44.4240  -38.1050  -20.8170 C.3   180  LYS180      0.0038
    123  CD        44.2180  -36.9800  -21.8230 C.3   180  LYS180      0.0206
    124  CE        42.8960  -36.2480  -21.6240 C.3   180  LYS180      0.1093
    125  NZ        42.8200  -34.9990  -22.4520 N.3   180  LYS180     -0.1314
    126  N         44.3180  -41.4070  -19.1500 N.am  181  ARG181     -0.1977
    127  CA        43.5380  -42.6380  -18.9810 C.3   181  ARG181      0.1597
    128  C         42.5410  -42.9030  -20.1200 C.2   181  ARG181      0.2287
    129  O         41.7890  -42.0040  -20.5270 O.2   181  ARG181     -0.2864
    130  CB        42.7940  -42.5900  -17.6410 C.3   181  ARG181      0.0334
    131  CG        42.6620  -43.9390  -16.9240 C.3   181  ARG181      0.0492
    132  CD        41.6250  -43.8940  -15.7880 C.3   181  ARG181      0.2205
    133  NE        42.1040  -43.2310  -14.5680 N.pl3 181  ARG181     -0.0865
    134  CZ        41.5460  -43.3810  -13.3650 C.cat 181  ARG181      0.5346
    135  NH1       40.4960  -44.1790  -13.2020 N.pl3 181  ARG181      0.1354
    136  NH2       42.0430  -42.7410  -12.3160 N.pl3 181  ARG181      0.1354
    137  N         48.0140  -52.1790  -10.7050 N.3   243  THR243     -0.1203
    138  CA        48.2630  -51.4110  -11.9320 C.3   243  THR243      0.1994
    139  C         47.5280  -52.0610  -13.1070 C.2   243  THR243      0.2617
    140  O         47.5670  -53.2930  -13.2700 O.2   243  THR243     -0.2717
    141  CB        49.7680  -51.3780  -12.3080 C.3   243  THR243      0.1784
    142  OG1       50.5630  -51.0800  -11.1550 O.3   243  THR243     -0.2211
    143  CG2       50.0370  -50.3180  -13.3520 C.3   243  THR243      0.0376
    144  N         46.8850  -51.2240  -13.9270 N.am  244  ARG244     -0.1979
    145  CA        46.1930  -51.6390  -15.1570 C.3   244  ARG244      0.1597
    146  C         45.2200  -52.7940  -14.9230 C.2   244  ARG244      0.2287
    147  O         45.1690  -53.7670  -15.6990 O.2   244  ARG244     -0.2864
    148  CB        47.1810  -51.9770  -16.2780 C.3   244  ARG244      0.0334
    149  CG        48.2150  -50.9170  -16.5190 C.3   244  ARG244      0.0492
    150  CD        48.9110  -51.1540  -17.8280 C.3   244  ARG244      0.2205
    151  NE        49.9000  -52.2260  -17.7700 N.pl3 244  ARG244     -0.0865
    152  CZ        51.1730  -52.0510  -17.4220 C.cat 244  ARG244      0.5346
    153  NH1       51.6010  -50.8390  -17.0710 N.pl3 244  ARG244      0.1354
    154  NH2       52.0170  -53.0820  -17.4180 N.pl3 244  ARG244      0.1354
    155  N         42.6850  -53.4690  -18.1460 N.3   247  SER247     -0.1217
    156  CA        43.2480  -54.0580  -19.3440 C.3   247  SER247      0.1889
    157  C         43.8850  -55.4250  -19.0730 C.2   247  SER247      0.2288
    158  O         44.2790  -56.1380  -20.0100 O.2   247  SER247     -0.2866
    159  CB        44.2520  -53.1000  -19.9680 C.3   247  SER247      0.2089
    160  OG        45.3360  -52.8320  -19.0980 O.3   247  SER247     -0.2183
    161  N         56.5230  -49.5700   -4.0070 N.3   372  LYS372     -0.1245
    162  CA        56.8470  -49.7130   -5.4450 C.3   372  LYS372      0.1561
    163  C         58.0670  -50.5980   -5.7710 C.2   372  LYS372      0.2260
    164  O         58.5410  -50.5880   -6.9090 O.2   372  LYS372     -0.2867
    165  CB        56.9850  -48.3540   -6.1540 C.3   372  LYS372      0.0271
    166  CG        55.6920  -47.5980   -6.3540 C.3   372  LYS372      0.0035
    167  CD        55.8580  -46.5450   -7.4470 C.3   372  LYS372      0.0206
    168  CE        54.9330  -45.3440   -7.2430 C.3   372  LYS372      0.1093
    169  NZ        53.5090  -45.7360   -7.0210 N.3   372  LYS372     -0.1314
    170  N         40.3160  -43.3040   -2.1330 N.3   390  ARG390     -0.1245
    171  CA        41.1610  -42.0940   -2.1120 C.3   390  ARG390      0.1563
    172  C         41.1830  -41.4110   -0.7270 C.2   390  ARG390      0.2260
    173  O         41.8330  -40.3690   -0.5390 O.2   390  ARG390     -0.2867
    174  CB        40.7550  -41.0900   -3.2100 C.3   390  ARG390      0.0307
    175  CG        40.3940  -41.7000   -4.5880 C.3   390  ARG390      0.0489
    176  CD        39.5820  -40.7280   -5.4750 C.3   390  ARG390      0.2205
    177  NE        38.2200  -40.4700   -4.9870 N.pl3 390  ARG390     -0.0865
    178  CZ        37.5610  -39.3180   -5.1480 C.cat 390  ARG390      0.5346
    179  NH1       38.1330  -38.2960   -5.7770 N.pl3 390  ARG390      0.1354
    180  NH2       36.3290  -39.1770   -4.6670 N.pl3 390  ARG390      0.1354
    181  N         45.3050  -33.6470   -1.7680 N.3   408  SER408     -0.1217
    182  CA        44.0150  -33.6420   -2.4660 C.3   408  SER408      0.1889
    183  C         43.1510  -32.4600   -2.0560 C.2   408  SER408      0.2288
    184  O         42.4460  -31.8970   -2.8860 O.2   408  SER408     -0.2866
    185  CB        43.2580  -34.9460   -2.2290 C.3   408  SER408      0.2089
    186  OG        44.0930  -36.0690   -2.4630 O.3   408  SER408     -0.2183
    187  N         44.8180  -29.3490   -3.6530 N.3   411  ARG411     -0.1245
    188  CA        44.3730  -29.5340   -5.0370 C.3   411  ARG411      0.1563
    189  C         42.9660  -29.0190   -5.3410 C.2   411  ARG411      0.2260
    190  O         42.7780  -28.2800   -6.3040 O.2   411  ARG411     -0.2867
    191  CB        44.4560  -31.0100   -5.4370 C.3   411  ARG411      0.0307
    192  CG        45.5800  -31.3500   -6.3940 C.3   411  ARG411      0.0489
    193  CD        45.5490  -32.8290   -6.7270 C.3   411  ARG411      0.2205
    194  NE        46.3790  -33.5870   -5.8000 N.pl3 411  ARG411     -0.0865
    195  CZ        46.1490  -34.8420   -5.4360 C.cat 411  ARG411      0.5346
    196  NH1       45.1010  -35.4960   -5.9260 N.pl3 411  ARG411      0.1354
    197  NH2       46.9650  -35.4410   -4.5730 N.pl3 411  ARG411      0.1354
@<TRIPOS>BOND
     1    40    39    1
     2    21    20   ar
     3    15    16    1
     4    39    38    1
     5    37    38    1
     6    37    36    1
     7    20    22   ar
     8    20    19    1
     9    16    19    1
    10    16    17    1
    11    32    33    1
    12    33    36    1
    13    33    34    1
    14    35    34    2
    15    48    49    1
    16    56    54   ar
    17    34    41   am
    18    17    23   am
    19    17    18    2
    20    23    24    1
    21    49    50    1
    22    49    52    1
    23    25    24    1
    24    25    26    2
    25    50    51    2
    26    24    27    1
    27    54    53    1
    28    54    55   ar
    29    27    28    1
    30    41    47    1
    31    41    42    1
    32   107   106    1
    33    53    52    1
    34    43    42    1
    35    43    44    2
    36    28    29    1
    37    47    46    1
    38    42    45    1
    39   106   105    1
    40   125   124    1
    41   123   124    1
    42   123   122    1
    43    46    45    1
    44   105   104    1
    45    29    30    2
    46    29    31   am
    47   121   122    1
    48   121   118    1
    49   120   119    2
    50   129   128    2
    51   117   118    1
    52   117   110   am
    53   104   103    1
    54   108   109    1
    55   109   110    1
    56   109   112    1
    57   119   118    1
    58   119   126   am
    59   128   127    1
    60   158   157    2
    61   159   156    1
    62   159   160    1
    63   100   101    1
    64   100   103    1
    65   100    99    1
    66   101   102    2
    67   110   111    2
    68   113   112    1
    69   113   114    1
    70   156   157    1
    71   156   155    1
    72   126   127    1
    73   127   130    1
    74   115   114    1
    75   115   116    1
    76    93    92    2
    77   150   151    1
    78   150   149    1
    79   151   152    2
    80   130   131    1
    81    92    91    1
    82   152   154    1
    83   152   153    1
    84   131   132    1
    85   149   148    1
    86    91    94    1
    87    91    90    1
    88    57    58    1
    89   148   145    1
    90    94    95    1
    91   132   133    1
    92   147   146    2
    93    96    95    1
    94    96    97    1
    95    60    59    2
    96   145   146    1
    97   145   144    1
    98    80    78    1
    99    58    59    1
   100    58    61    1
   101    65    63   ar
   102    62    61    1
   103    62    63    1
   104    79    78    1
   105   133   134    2
   106    97    98    1
   107    59    66   am
   108    63    64   ar
   109    78    75    1
   110   144   139   am
   111    84    83    2
   112   134   135    1
   113   134   136    1
   114   143   141    1
   115   140   139    2
   116    66    67    1
   117   139   138    1
   118    74    75    1
   119    74    68   am
   120    75    76    1
   121    67    68    1
   122    67    70    1
   123    83    82    1
   124    68    69    2
   125   141   138    1
   126   141   142    1
   127    77    76    2
   128    76    81   am
   129    72    71    1
   130   138   137    1
   131    81    82    1
   132    82    85    1
   133    70    71    1
   134     3     4    2
   135     3     2    1
   136    71    73    1
   137    85    86    1
   138     2     5    1
   139     2     1    1
   140    86    87    1
   141     5     6    1
   142    11    13   ar
   143    11     8   ar
   144    87    88    1
   145    13    14   ar
   146     6     8   ar
   147     6     7   ar
   148     8    10   ar
   149    89    88    1
   150    14    12   ar
   151     7     9   ar
   152    10    12   ar
   153    10     9   ar
   154   167   168    1
   155   167   166    1
   156   168   169    1
   157   164   163    2
   158   193   192    1
   159   193   194    1
   160   192   191    1
   161   166   165    1
   162   190   189    2
   163   165   162    1
   164   196   195    1
   165   194   195    2
   166   179   178    1
   167   163   162    1
   168   176   177    1
   169   176   175    1
   170   162   161    1
   171   191   188    1
   172   195   197    1
   173   189   188    1
   174   178   177    2
   175   178   180    1
   176   188   187    1
   177   175   174    1
   178   174   171    1
   179   184   183    2
   180   182   185    1
   181   182   183    1
   182   182   181    1
   183   186   185    1
   184   170   171    1
   185   171   172    1
   186   172   173    2
