@<TRIPOS>MOLECULE
tmp/3upjB00.pdb
 114 106 0 0 0
SMALL
GASTEIGER

@<TRIPOS>ATOM
      1  N          0.7660   33.6280   19.9250 N.3     6  ARG6       -0.1245
      2  CA         0.7490   32.3700   19.2020 C.3     6  ARG6        0.1563
      3  C          1.3490   32.4890   17.8210 C.2     6  ARG6        0.2260
      4  O          1.1020   33.4700   17.0970 O.2     6  ARG6       -0.2867
      5  CB        -0.6750   31.8390   19.0860 C.3     6  ARG6        0.0307
      6  CG        -1.1330   31.1340   20.3390 C.3     6  ARG6        0.0489
      7  CD        -2.6090   31.2550   20.5080 C.3     6  ARG6        0.2205
      8  NE        -3.3640   30.5190   19.4950 N.pl3   6  ARG6       -0.0865
      9  CZ        -3.9210   29.3190   19.6990 C.cat   6  ARG6        0.5346
     10  NH1       -3.7820   28.6950   20.8730 N.pl3   6  ARG6        0.1354
     11  NH2       -4.7520   28.8060   18.7900 N.pl3   6  ARG6        0.1354
     12  N         -0.8740   26.7320   12.6650 N.3    21  LEU21      -0.1245
     13  CA        -0.1080   26.9620   13.8630 C.3    21  LEU21       0.1561
     14  C          1.2400   26.2980   13.6960 C.2    21  LEU21       0.2260
     15  O          1.3180   25.1770   13.1930 O.2    21  LEU21      -0.2867
     16  CB        -0.8430   26.3320   15.0450 C.3    21  LEU21       0.0270
     17  CG        -0.2980   26.4720   16.4610 C.3    21  LEU21       0.0019
     18  CD1       -0.2830   27.9530   16.8820 C.3    21  LEU21       0.0001
     19  CD2       -1.1770   25.6280   17.4150 C.3    21  LEU21       0.0001
     20  N          3.7280   24.3680   15.1750 N.3    23  ASP23      -0.1239
     21  CA         3.8300   23.4490   16.3190 C.3    23  ASP23       0.1674
     22  C          5.0890   22.5640   16.3250 C.2    23  ASP23       0.2266
     23  O          5.1450   21.5920   15.5840 O.2    23  ASP23      -0.2867
     24  CB         2.5680   22.5720   16.3320 C.3    23  ASP23       0.1410
     25  CG         2.3280   21.8830   17.6640 C.2    23  ASP23       0.3668
     26  OD1        3.2860   21.4080   18.3260 O.co2  23  ASP23      -0.2456
     27  OD2        1.1450   21.7830   18.0590 O.co2  23  ASP23      -0.2456
     28  N          6.0580   20.4080   18.6310 N.3    25  GLY25      -0.1210
     29  CA         5.8770   19.1000   19.2370 C.3    25  GLY25       0.1956
     30  C          5.0110   18.1430   18.4340 C.2    25  GLY25       0.2612
     31  O          4.5880   17.1080   18.9550 O.2    25  GLY25      -0.2717
     32  N          4.7600   18.4720   17.1660 N.am   26  ALA26      -0.1965
     33  CA         3.9260   17.6550   16.2860 C.3    26  ALA26       0.1728
     34  C          4.8070   17.0740   15.1860 C.2    26  ALA26       0.2616
     35  O          5.5840   17.7880   14.5450 O.2    26  ALA26      -0.2715
     36  CB         2.8210   18.4960   15.6900 C.3    26  ALA26       0.0334
     37  N          4.7030   15.7640   14.9890 N.am   27  ASP27      -0.1957
     38  CA         5.5160   15.0680   13.9870 C.3    27  ASP27       0.1840
     39  C          4.9700   15.1990   12.5790 C.2    27  ASP27       0.2622
     40  O          5.7080   14.9760   11.6150 O.2    27  ASP27      -0.2715
     41  CB         5.6260   13.5560   14.3020 C.3    27  ASP27       0.1450
     42  CG         6.3010   13.2550   15.6350 C.2    27  ASP27       0.3671
     43  OD1        6.6550   14.1890   16.3710 O.co2  27  ASP27      -0.2456
     44  OD2        6.4860   12.0680   15.9640 O.co2  27  ASP27      -0.2456
     45  N          3.6720   15.4760   12.4510 N.am   28  ASP28      -0.1971
     46  CA         3.0470   15.5680   11.1270 C.3    28  ASP28       0.1709
     47  C          2.1950   16.8550   11.0050 C.2    28  ASP28       0.2293
     48  O          2.3070   17.7500   11.8440 O.2    28  ASP28      -0.2864
     49  CB         2.1850   14.3050   10.8610 C.3    28  ASP28       0.1436
     50  CG         2.9110   12.9720   11.2230 C.2    28  ASP28       0.3671
     51  OD1        3.9220   12.6490   10.5570 O.co2  28  ASP28      -0.2456
     52  OD2        2.4900   12.2450   12.1680 O.co2  28  ASP28      -0.2456
     53  N         -1.8440   18.3400   10.2780 N.3    30  ILE30      -0.1245
     54  CA        -3.2700   18.1240   10.0190 C.3    30  ILE30       0.1561
     55  C         -3.9860   19.4510    9.8540 C.2    30  ILE30       0.2260
     56  O         -3.7790   20.3770   10.6380 O.2    30  ILE30      -0.2867
     57  CB        -3.9940   17.3270   11.1260 C.3    30  ILE30       0.0252
     58  CG1       -3.1900   16.0900   11.5250 C.3    30  ILE30       0.0019
     59  CG2       -5.3580   16.9030   10.6290 C.3    30  ILE30       0.0019
     60  CD1       -2.2780   16.3180   12.6910 C.3    30  ILE30       0.0001
     61  N         -4.0180    9.0580   13.7160 N.3    45  VAL45      -0.1231
     62  CA        -3.0280    9.8200   14.4710 C.3    45  VAL45       0.1692
     63  C         -3.5540    9.9560   15.8900 C.2    45  VAL45       0.2593
     64  O         -4.7530    9.9260   16.0880 O.2    45  VAL45      -0.2718
     65  CB        -2.7440   11.2030   13.7950 C.3    45  VAL45       0.0266
     66  CG1       -3.9070   12.1520   13.9690 C.3    45  VAL45       0.0020
     67  CG2       -1.4940   11.8170   14.3530 C.3    45  VAL45       0.0020
     68  N         -2.6740   10.0240   16.8860 N.am   46  GLY46      -0.1942
     69  CA        -3.1310   10.1430   18.2660 C.3    46  GLY46       0.2014
     70  C         -2.3760   11.1680   19.0960 C.2    46  GLY46       0.2639
     71  O         -1.1720   11.2790   18.9930 O.2    46  GLY46      -0.2714
     72  N         -3.0780   11.9480   19.8970 N.am   47  GLY47      -0.1939
     73  CA        -2.4070   12.9360   20.7150 C.3    47  GLY47       0.2014
     74  C         -3.0830   12.9800   22.0580 C.2    47  GLY47       0.2638
     75  O         -3.6470   11.9830   22.4840 O.2    47  GLY47      -0.2714
     76  N         -3.0860   14.1380   22.7030 N.am   48  ILE48      -0.1977
     77  CA        -3.7280   14.2500   24.0010 C.3    48  ILE48       0.1596
     78  C         -5.2320   14.2120   23.8780 C.2    48  ILE48       0.2287
     79  O         -5.8180   14.9130   23.0540 O.2    48  ILE48      -0.2864
     80  CB        -3.2750   15.5090   24.7270 C.3    48  ILE48       0.0276
     81  CG1       -1.8420   15.3110   25.2220 C.3    48  ILE48       0.0022
     82  CG2       -4.2110   15.8260   25.8980 C.3    48  ILE48       0.0022
     83  CD1       -1.0770   16.5930   25.3770 C.3    48  ILE48       0.0001
     84  N         -7.4570   10.6120   16.1070 N.3    52  ILE52      -0.1245
     85  CA        -8.1330   11.2990   15.0130 C.3    52  ILE52       0.1561
     86  C         -7.8130   10.5700   13.7090 C.2    52  ILE52       0.2260
     87  O         -6.6390   10.3310   13.3910 O.2    52  ILE52      -0.2867
     88  CB        -7.6260   12.7460   14.8040 C.3    52  ILE52       0.0252
     89  CG1       -7.6990   13.5730   16.0780 C.3    52  ILE52       0.0019
     90  CG2       -8.4800   13.4500   13.7570 C.3    52  ILE52       0.0019
     91  CD1       -6.9230   14.8820   15.9340 C.3    52  ILE52       0.0001
     92  N         -9.3800   20.1560   15.7170 N.3    79  PRO79      -0.2102
     93  CA        -9.9140   21.4100   16.2690 C.3    79  PRO79       0.1504
     94  C         -8.9830   22.6010   16.1070 C.2    79  PRO79       0.2575
     95  O         -9.3020   23.6800   16.5870 O.2    79  PRO79      -0.2718
     96  CB       -10.0980   21.0870   17.7570 C.3    79  PRO79       0.0282
     97  CG        -8.9830   20.1310   18.0340 C.3    79  PRO79       0.0208
     98  CD        -9.0290   19.2160   16.7940 C.3    79  PRO79       0.0893
     99  N         -7.8330   22.4040   15.4620 N.am   80  ILE80      -0.1980
    100  CA        -6.8630   23.4770   15.2710 C.3    80  ILE80       0.1595
    101  C         -5.8820   23.0730   14.1760 C.2    80  ILE80       0.2287
    102  O         -5.4310   21.9260   14.1610 O.2    80  ILE80      -0.2864
    103  CB        -6.1370   23.7570   16.5990 C.3    80  ILE80       0.0276
    104  CG1       -5.4230   25.1000   16.5360 C.3    80  ILE80       0.0022
    105  CG2       -5.1910   22.6100   16.9680 C.3    80  ILE80       0.0022
    106  CD1       -5.1160   25.6340   17.8940 C.3    80  ILE80       0.0001
    107  N         -2.5340   22.5410   12.2030 N.3    82  ILE82      -0.1245
    108  CA        -1.1490   22.3160   12.5920 C.3    82  ILE82       0.1561
    109  C         -0.1670   22.0160   11.4640 C.2    82  ILE82       0.2260
    110  O         -0.4580   21.2400   10.5560 O.2    82  ILE82      -0.2867
    111  CB        -1.0930   21.1400   13.6180 C.3    82  ILE82       0.0252
    112  CG1       -1.7250   21.5820   14.9430 C.3    82  ILE82       0.0019
    113  CG2        0.3290   20.6800   13.8690 C.3    82  ILE82       0.0019
    114  CD1       -1.9810   20.4720   15.9090 C.3    82  ILE82       0.0001
@<TRIPOS>BOND
     1    55    54    1
     2    55    56    2
     3    54    53    1
     4    54    57    1
     5   110   109    2
     6    51    50   ar
     7    59    57    1
     8    49    46    1
     9    49    50    1
    10    47    46    1
    11    47    48    2
    12    57    58    1
    13    46    45    1
    14    50    52   ar
    15   109   108    1
    16    58    60    1
    17    40    39    2
    18   107   108    1
    19    45    39   am
    20    39    38    1
    21   108   111    1
    22    12    13    1
    23    15    14    2
    24    87    86    2
    25   111   113    1
    26   111   112    1
    27    14    13    1
    28    86    85    1
    29    61    62    1
    30    90    88    1
    31    65    66    1
    32    65    67    1
    33    65    62    1
    34    13    16    1
    35    38    41    1
    36    38    37    1
    37   102   101    2
    38   101   100    1
    39    41    42    1
    40    62    63    1
    41    35    34    2
    42    88    85    1
    43    88    89    1
    44   112   114    1
    45    37    34   am
    46    85    84    1
    47    16    17    1
    48    20    21    1
    49    34    33    1
    50   100    99    1
    51   100   103    1
    52    99    94   am
    53    23    22    2
    54    42    44   ar
    55    42    43   ar
    56    36    33    1
    57    92    93    1
    58    92    98    1
    59    63    64    2
    60    63    68   am
    61    91    89    1
    62    94    93    1
    63    94    95    2
    64    93    96    1
    65    33    32    1
    66    21    22    1
    67    21    24    1
    68    24    25    1
    69    17    18    1
    70    17    19    1
    71   104   103    1
    72   104   106    1
    73   103   105    1
    74    98    97    1
    75    68    69    1
    76     4     3    2
    77    32    30   am
    78    25    27   ar
    79    25    26   ar
    80    96    97    1
    81     3     2    1
    82    69    70    1
    83    30    31    2
    84    30    29    1
    85    28    29    1
    86    11     9    1
    87    71    70    2
    88     5     2    1
    89     5     6    1
    90    70    72   am
    91     2     1    1
    92     8     9    2
    93     8     7    1
    94     9    10    1
    95    72    73    1
    96     6     7    1
    97    73    74    1
    98    74    75    2
    99    74    76   am
   100    76    77    1
   101    79    78    2
   102    78    77    1
   103    77    80    1
   104    80    81    1
   105    80    82    1
   106    81    83    1
