@<TRIPOS>MOLECULE
tmp/3upnB00.pdb
 132 122 0 0 0
SMALL
GASTEIGER

@<TRIPOS>ATOM
      1  N         19.1620  -69.4530    9.5990 N.3   177  SER177     -0.1217
      2  CA        17.8570  -69.4960    8.9100 C.3   177  SER177      0.1889
      3  C         17.7320  -70.6620    7.9290 C.2   177  SER177      0.2288
      4  O         16.6180  -71.0970    7.6160 O.2   177  SER177     -0.2866
      5  CB        17.5720  -68.1520    8.1860 C.3   177  SER177      0.2089
      6  OG        17.0560  -67.1530    9.0680 O.3   177  SER177     -0.2183
      7  N         13.3050  -60.8730   12.6900 N.3   216  TYR216     -0.1241
      8  CA        14.3410  -59.8870   12.3760 C.3   216  TYR216      0.1605
      9  C         13.7860  -58.4600   12.4860 C.2   216  TYR216      0.2264
     10  O         12.7100  -58.1670   11.9560 O.2   216  TYR216     -0.2867
     11  CB        14.9030  -60.1270   10.9750 C.3   216  TYR216      0.0534
     12  CG        16.0080  -59.1710   10.5750 C.ar  216  TYR216     -0.0201
     13  CD1       17.3170  -59.3750   11.0100 C.ar  216  TYR216     -0.0009
     14  CD2       15.7460  -58.0600    9.7580 C.ar  216  TYR216     -0.0009
     15  CE1       18.3400  -58.5040   10.6530 C.ar  216  TYR216      0.0417
     16  CE2       16.7730  -57.1790    9.3890 C.ar  216  TYR216      0.0417
     17  CZ        18.0700  -57.4150    9.8440 C.ar  216  TYR216      0.1957
     18  OH        19.1100  -56.5710    9.5030 O.3   216  TYR216     -0.2866
     19  N         11.1670  -65.6770    5.6780 N.3   236  SER236     -0.1217
     20  CA        12.0380  -66.0870    6.7690 C.3   236  SER236      0.1889
     21  C         11.7190  -65.4690    8.1270 C.2   236  SER236      0.2288
     22  O         12.5970  -64.9220    8.8020 O.2   236  SER236     -0.2866
     23  CB        13.5140  -65.8900    6.4190 C.3   236  SER236      0.2089
     24  OG        14.2880  -66.8230    7.1640 O.3   236  SER236     -0.2183
     25  N         10.7660  -65.7690   12.1240 N.3   238  ASN238     -0.1240
     26  CA        11.3220  -66.6550   13.1430 C.3   238  ASN238      0.1653
     27  C         10.3070  -67.2960   14.0810 C.2   238  ASN238      0.2266
     28  O         10.3980  -68.4930   14.3580 O.2   238  ASN238     -0.2867
     29  CB        12.3460  -65.9210   14.0060 C.3   238  ASN238      0.1155
     30  CG        13.6470  -65.6630   13.2850 C.2   238  ASN238      0.2627
     31  OD1       14.1730  -66.5300   12.5810 O.2   238  ASN238     -0.2716
     32  ND2       14.1890  -64.4640   13.4730 N.am  238  ASN238     -0.0877
     33  N         15.2520  -72.5590   14.6700 N.3   292  ILE292     -0.1245
     34  CA        15.7260  -71.4810   13.8020 C.3   292  ILE292      0.1561
     35  C         17.2520  -71.5490   13.6040 C.2   292  ILE292      0.2260
     36  O         17.8670  -70.5870   13.1730 O.2   292  ILE292     -0.2867
     37  CB        15.2840  -70.0980   14.3290 C.3   292  ILE292      0.0252
     38  CG1       15.8530  -69.8470   15.7340 C.3   292  ILE292      0.0019
     39  CG2       13.7340  -69.9880   14.2820 C.3   292  ILE292      0.0019
     40  CD1       15.5510  -68.4620   16.2850 C.3   292  ILE292      0.0001
     41  N         17.4280  -71.2360    0.0430 N.3   379  LYS379     -0.1231
     42  CA        17.1870  -70.6520    1.3500 C.3   379  LYS379      0.1693
     43  C         18.4060  -69.8000    1.7390 C.2   379  LYS379      0.2593
     44  O         19.5300  -70.2760    1.8110 O.2   379  LYS379     -0.2718
     45  CB        16.8700  -71.7330    2.4050 C.3   379  LYS379      0.0285
     46  CG        16.3070  -71.1970    3.7330 C.3   379  LYS379      0.0035
     47  CD        15.0260  -70.3180    3.5080 C.3   379  LYS379      0.0206
     48  CE        14.6730  -69.4960    4.7340 C.3   379  LYS379      0.1093
     49  NZ        15.3920  -68.1800    4.7860 N.3   379  LYS379     -0.1314
     50  N         18.1460  -68.5130    1.9360 N.am  380  THR380     -0.1939
     51  CA        19.1010  -67.5330    2.4160 C.3   380  THR380      0.2031
     52  C         19.0650  -67.6040    3.9290 C.2   380  THR380      0.2682
     53  O         18.2300  -68.3020    4.5100 O.2   380  THR380     -0.2710
     54  CB        18.6850  -66.1270    1.9710 C.3   380  THR380      0.1808
     55  OG1       17.2740  -65.9720    2.2020 O.3   380  THR380     -0.2208
     56  CG2       18.9560  -65.9380    0.4930 C.3   380  THR380      0.0379
     57  N         19.9710  -66.8840    4.5750 N.am  381  GLY381     -0.1715
     58  CA        20.1180  -67.0010    6.0120 C.2   381  GLY381      0.1480
     59  C         21.3230  -66.3140    6.5930 C.2   381  GLY381      0.2821
     60  O         22.3390  -66.1270    5.9180 O.2   381  GLY381     -0.2669
     61  N         21.1920  -65.9460    7.8600 N.am  382  THR382     -0.1916
     62  CA        22.2750  -65.3810    8.6440 C.3   382  THR382      0.1900
     63  C         22.3650  -66.2580    9.8660 C.2   382  THR382      0.2313
     64  O         21.4310  -66.9990   10.1520 O.2   382  THR382     -0.2863
     65  CB        22.0050  -63.9100    9.0810 C.3   382  THR382      0.1794
     66  OG1       20.8430  -63.8490    9.9250 O.3   382  THR382     -0.2208
     67  CG2       21.8330  -63.0030    7.8700 C.3   382  THR382      0.0378
     68  N         23.8740  -66.1020   14.0160 N.3   384  GLU384     -0.1245
     69  CA        24.6090  -65.5450   15.1550 C.3   384  GLU384      0.1567
     70  C         25.6020  -66.6010   15.5940 C.2   384  GLU384      0.2260
     71  O         25.3290  -67.7990   15.4810 O.2   384  GLU384     -0.2867
     72  CB        23.6980  -65.2140   16.3530 C.3   384  GLU384      0.0388
     73  CG        22.3570  -64.5280   16.0600 C.3   384  GLU384      0.1160
     74  CD        22.4880  -63.2510   15.2690 C.2   384  GLU384      0.3649
     75  OE1       23.5360  -62.5760   15.3910 O.co2 384  GLU384     -0.2457
     76  OE2       21.5370  -62.9220   14.5180 O.co2 384  GLU384     -0.2457
     77  N         26.7890  -65.2480    6.8580 N.3   389  ALA389     -0.1245
     78  CA        25.7350  -65.3480    5.8530 C.3   389  ALA389      0.1562
     79  C         25.8630  -66.6930    5.1380 C.2   389  ALA389      0.2260
     80  O         26.9630  -67.1170    4.8100 O.2   389  ALA389     -0.2867
     81  CB        25.8230  -64.2030    4.8510 C.3   389  ALA389      0.0290
     82  N         29.5070  -62.3850    7.1350 N.3   411  GLY411     -0.1210
     83  CA        29.0590  -61.8110    5.8660 C.3   411  GLY411      0.1956
     84  C         27.6610  -61.2230    5.8320 C.2   411  GLY411      0.2612
     85  O         27.2050  -60.7740    4.7830 O.2   411  GLY411     -0.2717
     86  N         26.9720  -61.2320    6.9690 N.am  412  ALA412     -0.1965
     87  CA        25.6320  -60.6670    7.0510 C.3   412  ALA412      0.1728
     88  C         25.7150  -59.1450    7.0110 C.2   412  ALA412      0.2616
     89  O         26.5140  -58.5410    7.7280 O.2   412  ALA412     -0.2715
     90  CB        24.9420  -61.1110    8.3120 C.3   412  ALA412      0.0334
     91  N         24.8920  -58.5420    6.1590 N.am  413  ASP413     -0.1971
     92  CA        24.7250  -57.0890    6.1320 C.3   413  ASP413      0.1709
     93  C         23.4470  -56.7320    6.8930 C.2   413  ASP413      0.2293
     94  O         22.5290  -57.5550    6.9860 O.2   413  ASP413     -0.2864
     95  CB        24.6460  -56.5920    4.6890 C.3   413  ASP413      0.1436
     96  CG        23.2880  -56.8450    4.0630 C.2   413  ASP413      0.3671
     97  OD1       22.5690  -55.8530    3.7930 O.co2 413  ASP413     -0.2456
     98  OD2       22.9260  -58.0300    3.8740 O.co2 413  ASP413     -0.2456
     99  N         20.2420  -54.6260    3.3720 N.3   416  SER416     -0.1217
    100  CA        19.3100  -55.1890    2.3840 C.3   416  SER416      0.1889
    101  C         17.9830  -55.5700    3.0180 C.2   416  SER416      0.2288
    102  O         17.9620  -56.2530    4.0510 O.2   416  SER416     -0.2866
    103  CB        19.9170  -56.4150    1.7000 C.3   416  SER416      0.2089
    104  OG        20.4120  -57.3220    2.6680 O.3   416  SER416     -0.2183
    105  N         15.9970  -57.7230    2.0220 N.3   418  THR418     -0.1203
    106  CA        15.8160  -59.1730    1.8840 C.3   418  THR418      0.1994
    107  C         17.1560  -59.9110    2.0400 C.2   418  THR418      0.2618
    108  O         18.2190  -59.2860    2.0110 O.2   418  THR418     -0.2717
    109  CB        15.1070  -59.5580    0.5460 C.3   418  THR418      0.1784
    110  OG1       15.7990  -58.9740   -0.5650 O.3   418  THR418     -0.2211
    111  CG2       13.6500  -59.0810    0.5390 C.3   418  THR418      0.0376
    112  N         17.0970  -61.2330    2.2060 N.am  419  GLY419     -0.1942
    113  CA        18.2820  -62.0260    2.5050 C.3   419  GLY419      0.2014
    114  C         19.2180  -62.2660    1.3350 C.2   419  GLY419      0.2639
    115  O         18.8300  -62.1260    0.1760 O.2   419  GLY419     -0.2714
    116  N         20.4620  -62.6290    1.6460 N.am  420  GLY420     -0.1939
    117  CA        21.4120  -63.0900    0.6400 C.3   420  GLY420      0.2014
    118  C         22.2310  -62.0400   -0.0870 C.2   420  GLY420      0.2639
    119  O         22.8230  -62.3380   -1.1300 O.2   420  GLY420     -0.2714
    120  N         22.2880  -60.8260    0.4620 N.am  421  ALA421     -0.1963
    121  CA        23.0110  -59.7010   -0.1650 C.3   421  ALA421      0.1728
    122  C         24.4060  -60.0610   -0.6850 C.2   421  ALA421      0.2616
    123  O         24.7720  -59.6870   -1.8040 O.2   421  ALA421     -0.2715
    124  CB        23.0830  -58.5120    0.7850 C.3   421  ALA421      0.0334
    125  N         25.1710  -60.7890    0.1320 N.am  422  LEU422     -0.1977
    126  CA        26.5200  -61.2390   -0.2340 C.3   422  LEU422      0.1596
    127  C         26.5890  -62.7080   -0.6620 C.2   422  LEU422      0.2287
    128  O         27.2190  -63.0390   -1.6800 O.2   422  LEU422     -0.2864
    129  CB        27.5120  -60.9560    0.9070 C.3   422  LEU422      0.0297
    130  CG        28.4080  -59.6930    0.8660 C.3   422  LEU422      0.0022
    131  CD1       27.8050  -58.5170    0.1050 C.3   422  LEU422      0.0001
    132  CD2       28.8470  -59.2420    2.2580 C.3   422  LEU422      0.0001
@<TRIPOS>BOND
     1   123   122    2
     2   128   127    2
     3   119   118    2
     4   122   121    1
     5   122   125   am
     6   127   126    1
     7   110   109    1
     8   126   125    1
     9   126   129    1
    10   121   120    1
    11   121   124    1
    12   118   120   am
    13   118   117    1
    14    41    42    1
    15   131   130    1
    16   115   114    2
    17    56    54    1
    18   111   109    1
    19   109   106    1
    20   117   116    1
    21   130   129    1
    22   130   132    1
    23   114   116   am
    24   114   113    1
    25    42    43    1
    26    42    45    1
    27   103   100    1
    28   103   104    1
    29    43    44    2
    30    43    50   am
    31   106   105    1
    32   106   107    1
    33    50    51    1
    34    54    55    1
    35    54    51    1
    36   108   107    2
    37   107   112   am
    38   112   113    1
    39   100   101    1
    40   100    99    1
    41    45    46    1
    42    51    52    1
    43   101   102    2
    44    47    46    1
    45    47    48    1
    46    97    96   ar
    47    98    96   ar
    48    52    53    2
    49    52    57    1
    50    96    95    1
    51    57    58    2
    52    95    92    1
    53    48    49    1
    54    85    84    2
    55    80    79    2
    56    81    78    1
    57    79    78    1
    58    19    20    1
    59    84    83    1
    60    84    86   am
    61    78    77    1
    62    83    82    1
    63    60    59    2
    64    58    59    1
    65    92    91    1
    66    92    93    1
    67    91    88   am
    68    23    20    1
    69    23    24    1
    70    59    61   am
    71    20    21    1
    72    93    94    2
    73    86    87    1
    74    88    87    1
    75    88    89    2
    76    87    90    1
    77     4     3    2
    78    61    62    1
    79    67    65    1
    80     3     2    1
    81    21    22    2
    82     5     2    1
    83     5     6    1
    84    62    65    1
    85    62    63    1
    86     2     1    1
    87    65    66    1
    88    16    14   ar
    89    16    17   ar
    90    18    17    1
    91    14    12   ar
    92    17    15   ar
    93    63    64    2
    94    12    11    1
    95    12    13   ar
    96    15    13   ar
    97    11     8    1
    98    10     9    2
    99    25    26    1
   100     8     9    1
   101     8     7    1
   102    31    30    2
   103    26    29    1
   104    26    27    1
   105    36    35    2
   106    30    32   am
   107    30    29    1
   108    35    34    1
   109    34    37    1
   110    34    33    1
   111    68    69    1
   112    27    28    2
   113    39    37    1
   114    37    38    1
   115    76    74   ar
   116    69    70    1
   117    69    72    1
   118    74    75   ar
   119    74    73    1
   120    71    70    2
   121    38    40    1
   122    73    72    1
