@<TRIPOS>MOLECULE
tmp/3upoA00.pdb
 148 138 0 0 0
SMALL
GASTEIGER

@<TRIPOS>ATOM
      1  N         34.8290  -37.7030    9.9560 N.3   175  GLY175     -0.1210
      2  CA        35.6950  -38.8370   10.2020 C.3   175  GLY175      0.1956
      3  C         37.0340  -38.6760    9.4840 C.2   175  GLY175      0.2612
      4  O         37.6210  -37.5930    9.4850 O.2   175  GLY175     -0.2717
      5  N         37.4960  -39.7390    8.8300 N.am  176  SER176     -0.1952
      6  CA        38.8600  -39.7590    8.3100 C.3   176  SER176      0.1924
      7  C         39.0900  -38.9770    7.0350 C.2   176  SER176      0.2314
      8  O         40.2300  -38.8590    6.5920 O.2   176  SER176     -0.2863
      9  CB        39.3750  -41.1920    8.1430 C.3   176  SER176      0.2116
     10  OG        39.3520  -41.8670    9.3830 O.3   176  SER176     -0.2180
     11  N         42.1010  -44.6470   21.6500 N.3   212  LEU212     -0.1231
     12  CA        41.7100  -44.6960   20.2570 C.3   212  LEU212      0.1693
     13  C         42.4760  -45.8140   19.5620 C.2   212  LEU212      0.2591
     14  O         43.7080  -45.8820   19.6550 O.2   212  LEU212     -0.2718
     15  CB        41.9720  -43.3440   19.5820 C.3   212  LEU212      0.0284
     16  CG        40.7930  -42.3680   19.4250 C.3   212  LEU212      0.0019
     17  CD1       39.7750  -42.4010   20.6010 C.3   212  LEU212      0.0001
     18  CD2       41.2890  -40.9490   19.1930 C.3   212  LEU212      0.0001
     19  N         41.7480  -46.6980   18.8860 N.am  213  GLU213     -0.1979
     20  CA        42.3690  -47.8060   18.1710 C.3   213  GLU213      0.1602
     21  C         42.2560  -47.6730   16.6420 C.2   213  GLU213      0.2287
     22  O         41.4280  -46.9180   16.1390 O.2   213  GLU213     -0.2864
     23  CB        41.8340  -49.1550   18.6850 C.3   213  GLU213      0.0415
     24  CG        40.5780  -49.6780   18.0050 C.3   213  GLU213      0.1163
     25  CD        40.2460  -51.1350   18.3630 C.2   213  GLU213      0.3649
     26  OE1       39.4720  -51.7690   17.6030 O.co2 213  GLU213     -0.2457
     27  OE2       40.7380  -51.6510   19.3960 O.co2 213  GLU213     -0.2457
     28  N         41.2590  -49.2900   12.9080 N.3   215  TYR215     -0.1241
     29  CA        40.1330  -50.1130   12.4410 C.3   215  TYR215      0.1605
     30  C         40.4670  -51.6050   12.5090 C.2   215  TYR215      0.2264
     31  O         41.4550  -52.0560   11.9080 O.2   215  TYR215     -0.2867
     32  CB        39.7100  -49.7360   11.0140 C.3   215  TYR215      0.0534
     33  CG        38.3030  -50.1900   10.6530 C.ar  215  TYR215     -0.0201
     34  CD1       37.1810  -49.5730   11.2230 C.ar  215  TYR215     -0.0009
     35  CD2       38.0890  -51.2300    9.7460 C.ar  215  TYR215     -0.0009
     36  CE1       35.8730  -49.9840   10.9000 C.ar  215  TYR215      0.0417
     37  CE2       36.7900  -51.6530    9.4180 C.ar  215  TYR215      0.0417
     38  CZ        35.6890  -51.0230    9.9990 C.ar  215  TYR215      0.1957
     39  OH        34.4010  -51.4260    9.6790 O.3   215  TYR215     -0.2866
     40  N         46.6160  -45.9790    3.9750 N.3   234  LYS234     -0.1231
     41  CA        45.9360  -47.0550    4.6940 C.3   234  LYS234      0.1693
     42  C         44.8650  -46.5360    5.6690 C.2   234  LYS234      0.2592
     43  O         44.0080  -47.3070    6.1200 O.2   234  LYS234     -0.2718
     44  CB        46.9440  -47.9650    5.4030 C.3   234  LYS234      0.0285
     45  CG        47.8820  -48.6750    4.4300 C.3   234  LYS234      0.0035
     46  CD        48.4910  -49.9470    5.0080 C.3   234  LYS234      0.0206
     47  CE        49.8230  -49.7090    5.6660 C.3   234  LYS234      0.1093
     48  NZ        50.6930  -50.9260    5.5360 N.3   234  LYS234     -0.1314
     49  N         44.9110  -45.2320    5.9590 N.am  235  SER235     -0.1952
     50  CA        44.0080  -44.5680    6.9080 C.3   235  SER235      0.1924
     51  C         44.0880  -45.1870    8.3030 C.2   235  SER235      0.2314
     52  O         43.0500  -45.6010    8.8720 O.2   235  SER235     -0.2863
     53  CB        42.5410  -44.5390    6.4030 C.3   235  SER235      0.2116
     54  OG        41.8130  -43.5020    7.0480 O.3   235  SER235     -0.2180
     55  N         44.5820  -44.9410   12.2270 N.3   237  ASN237     -0.1240
     56  CA        44.1120  -43.9190   13.1650 C.3   237  ASN237      0.1653
     57  C         45.1450  -43.3790   14.1410 C.2   237  ASN237      0.2266
     58  O         45.3350  -42.1660   14.2270 O.2   237  ASN237     -0.2867
     59  CB        42.8930  -44.4170   13.9470 C.3   237  ASN237      0.1155
     60  CG        41.6540  -44.5170   13.0940 C.2   237  ASN237      0.2627
     61  OD1       41.6200  -44.0340   11.9630 O.2   237  ASN237     -0.2716
     62  ND2       40.6270  -45.1700   13.6280 N.am  237  ASN237     -0.0877
     63  N         41.1980  -37.1350   13.7020 N.3   291  ILE291     -0.1245
     64  CA        40.6050  -38.1410   12.8180 C.3   291  ILE291      0.1561
     65  C         39.1500  -37.8010   12.4860 C.2   291  ILE291      0.2260
     66  O         38.3760  -38.6770   12.1180 O.2   291  ILE291     -0.2867
     67  CB        40.7680  -39.5820   13.3690 C.3   291  ILE291      0.0252
     68  CG1       40.0090  -39.7660   14.6870 C.3   291  ILE291      0.0019
     69  CG2       42.2700  -39.9200   13.4760 C.3   291  ILE291      0.0019
     70  CD1       40.1270  -41.1620   15.3050 C.3   291  ILE291      0.0001
     71  N         36.6270  -36.5610   14.3660 N.3   293  GLN293     -0.1245
     72  CA        35.6020  -36.8750   15.3410 C.3   293  GLN293      0.1566
     73  C         35.4550  -35.7270   16.3530 C.2   293  GLN293      0.2260
     74  O         35.6010  -34.5700   15.9760 O.2   293  GLN293     -0.2867
     75  CB        35.8780  -38.2250   16.0050 C.3   293  GLN293      0.0367
     76  CG        35.9970  -39.3840   15.0240 C.3   293  GLN293      0.0905
     77  CD        34.6640  -39.9100   14.4900 C.2   293  GLN293      0.2608
     78  OE1       34.6620  -40.7860   13.6230 O.2   293  GLN293     -0.2717
     79  NE2       33.5360  -39.3910   14.9930 N.am  293  GLN293     -0.0878
     80  N         39.8480  -39.5710   -0.6590 N.3   378  LYS378     -0.1231
     81  CA        40.0110  -40.0000    0.7230 C.3   378  LYS378      0.1693
     82  C         38.6600  -40.5000    1.2190 C.2   378  LYS378      0.2593
     83  O         37.6510  -39.7780    1.1180 O.2   378  LYS378     -0.2718
     84  CB        40.5470  -38.8770    1.6120 C.3   378  LYS378      0.0285
     85  CG        40.8240  -39.3200    3.0640 C.3   378  LYS378      0.0035
     86  CD        41.8960  -40.4420    3.1150 C.3   378  LYS378      0.0206
     87  CE        42.0910  -41.0120    4.5030 C.3   378  LYS378      0.1093
     88  NZ        41.1250  -42.0990    4.8050 N.3   378  LYS378     -0.1314
     89  N         38.6380  -41.7360    1.7190 N.am  379  THR379     -0.1939
     90  CA        37.4440  -42.3280    2.3390 C.3   379  THR379      0.2028
     91  C         37.3290  -41.9330    3.8020 C.2   379  THR379      0.2643
     92  O         38.2930  -41.4480    4.4060 O.2   379  THR379     -0.2714
     93  CB        37.4370  -43.8750    2.2790 C.3   379  THR379      0.1808
     94  OG1       38.6150  -44.3830    2.9160 O.3   379  THR379     -0.2208
     95  CG2       37.3640  -44.3710    0.8420 C.3   379  THR379      0.0379
     96  N         36.1460  -42.1470    4.3720 N.am  380  GLY380     -0.1939
     97  CA        35.9450  -41.9280    5.7910 C.3   380  GLY380      0.2014
     98  C         34.7380  -42.6950    6.2770 C.2   380  GLY380      0.2639
     99  O         33.8040  -42.9420    5.5290 O.2   380  GLY380     -0.2714
    100  N         34.7910  -43.1080    7.5330 N.am  381  THR381     -0.1950
    101  CA        33.6450  -43.6800    8.2090 C.3   381  THR381      0.1897
    102  C         33.6070  -43.1080    9.6170 C.2   381  THR381      0.2313
    103  O         34.5210  -43.3080   10.4170 O.2   381  THR381     -0.2863
    104  CB        33.5110  -45.2700    8.0650 C.3   381  THR381      0.1794
    105  OG1       33.3900  -45.9120    9.3410 O.3   381  THR381     -0.2208
    106  CG2       34.6550  -45.8790    7.3180 C.3   381  THR381      0.0378
    107  N         31.8760  -42.2280   13.2760 N.3   383  GLU383     -0.1245
    108  CA        30.9710  -42.5510   14.3640 C.3   383  GLU383      0.1567
    109  C         30.2080  -41.2950   14.7810 C.2   383  GLU383      0.2260
    110  O         30.6910  -40.1720   14.6080 O.2   383  GLU383     -0.2867
    111  CB        31.7410  -43.1420   15.5480 C.3   383  GLU383      0.0388
    112  CG        32.2570  -44.5750   15.3090 C.3   383  GLU383      0.1160
    113  CD        32.3530  -45.4090   16.5950 C.2   383  GLU383      0.3649
    114  OE1       32.7880  -44.8460   17.6340 O.co2 383  GLU383     -0.2457
    115  OE2       31.9950  -46.6220   16.5640 O.co2 383  GLU383     -0.2457
    116  N         28.9450  -46.3660   19.5070 N.3   389  ARG389     -0.1245
    117  CA        29.4820  -47.7190   19.2850 C.3   389  ARG389      0.1563
    118  C         28.4230  -48.7110   18.7890 C.2   389  ARG389      0.2260
    119  O         28.7590  -49.7070   18.1480 O.2   389  ARG389     -0.2867
    120  CB        30.2280  -48.2550   20.5200 C.3   389  ARG389      0.0307
    121  CG        31.5140  -47.4790   20.8310 C.3   389  ARG389      0.0489
    122  CD        32.6940  -48.3980   21.1630 C.3   389  ARG389      0.2205
    123  NE        32.7940  -48.7260   22.5860 N.pl3 389  ARG389     -0.0865
    124  CZ        33.8800  -49.2380   23.1650 C.cat 389  ARG389      0.5346
    125  NH1       34.9710  -49.4820   22.4450 N.pl3 389  ARG389      0.1354
    126  NH2       33.8820  -49.5030   24.4670 N.pl3 389  ARG389      0.1354
    127  N         27.7700  -46.0700   11.4040 N.3   393  PRO393     -0.2116
    128  CA        28.5460  -44.8740   11.0880 C.3   393  PRO393      0.1372
    129  C         28.1950  -44.3120    9.7150 C.2   393  PRO393      0.2244
    130  O         27.6060  -45.0250    8.8930 O.2   393  PRO393     -0.2868
    131  CB        29.9850  -45.3930   11.0970 C.3   393  PRO393      0.0268
    132  CG        29.8680  -46.8140   10.6470 C.3   393  PRO393      0.0207
    133  CD        28.5510  -47.3090   11.1910 C.3   393  PRO393      0.0892
    134  N         31.4830  -48.8390    5.6160 N.3   424  THR424     -0.1203
    135  CA        32.6860  -48.0470    5.3840 C.3   424  THR424      0.1994
    136  C         32.5190  -47.1540    4.1540 C.2   424  THR424      0.2618
    137  O         31.7290  -47.4630    3.2440 O.2   424  THR424     -0.2717
    138  CB        33.9690  -48.9200    5.1940 C.3   424  THR424      0.1784
    139  OG1       33.8220  -49.7510    4.0360 O.3   424  THR424     -0.2211
    140  CG2       34.2790  -49.7790    6.4190 C.3   424  THR424      0.0376
    141  N         33.2820  -46.0550    4.1230 N.am  425  GLY425     -0.1942
    142  CA        33.2880  -45.1510    2.9840 C.3   425  GLY425      0.2014
    143  C         33.7120  -45.8230    1.7010 C.2   425  GLY425      0.2639
    144  O         33.1000  -45.6000    0.6490 O.2   425  GLY425     -0.2714
    145  N         34.7740  -46.6350    1.7880 N.am  426  GLY426     -0.1954
    146  CA        35.2890  -47.3910    0.6450 C.3   426  GLY426      0.1869
    147  C         34.2470  -48.3220    0.0410 C.2   426  GLY426      0.2309
    148  O         34.1300  -48.4180   -1.1850 O.2   426  GLY426     -0.2863
@<TRIPOS>BOND
     1   148   147    2
     2    80    81    1
     3   147   146    1
     4   146   145    1
     5   144   143    2
     6    81    82    1
     7    81    84    1
     8    95    93    1
     9    83    82    2
    10    82    89   am
    11    84    85    1
    12   143   145   am
    13   143   142    1
    14    89    90    1
    15    93    90    1
    16    93    94    1
    17    90    91    1
    18   142   141    1
    19    85    86    1
    20    86    87    1
    21   137   136    2
    22    91    96   am
    23    91    92    2
    24    40    41    1
    25   139   138    1
    26   141   136   am
    27   136   135    1
    28    96    97    1
    29    45    46    1
    30    45    44    1
    31    87    88    1
    32    41    44    1
    33    41    42    1
    34    46    47    1
    35   138   135    1
    36   138   140    1
    37   135   134    1
    38    99    98    2
    39    48    47    1
    40    42    49   am
    41    42    43    2
    42    97    98    1
    43    49    50    1
    44    98   100   am
    45    53    50    1
    46    53    54    1
    47     8     7    2
    48    50    51    1
    49     7     6    1
    50   106   104    1
    51   100   101    1
    52   104   101    1
    53   104   105    1
    54     9     6    1
    55     9    10    1
    56   101   102    1
    57    51    52    2
    58     6     5    1
    59     5     3   am
    60   130   129    2
    61    37    35   ar
    62    37    38   ar
    63     3     4    2
    64     3     2    1
    65   102   103    2
    66    39    38    1
    67   129   128    1
    68    35    33   ar
    69     1     2    1
    70    38    36   ar
    71   132   131    1
    72   132   133    1
    73    33    32    1
    74    33    34   ar
    75    36    34   ar
    76    32    29    1
    77   128   131    1
    78   128   127    1
    79   133   127    1
    80    31    30    2
    81    61    60    2
    82    66    65    2
    83    55    56    1
    84    29    30    1
    85    29    28    1
    86    65    64    1
    87    64    67    1
    88    64    63    1
    89    60    62   am
    90    60    59    1
    91    56    59    1
    92    56    57    1
    93   107   108    1
    94    67    69    1
    95    67    68    1
    96    78    77    2
    97    57    58    2
    98   108   109    1
    99   108   111    1
   100    71    72    1
   101    77    79   am
   102    77    76    1
   103   110   109    2
   104    68    70    1
   105    76    75    1
   106   112   111    1
   107   112   113    1
   108    72    75    1
   109    72    73    1
   110    74    73    2
   111    22    21    2
   112   115   113   ar
   113   113   114   ar
   114    21    20    1
   115    26    25   ar
   116    24    25    1
   117    24    23    1
   118   119   118    2
   119    20    23    1
   120    20    19    1
   121    25    27   ar
   122   118   117    1
   123    19    13   am
   124    18    16    1
   125   117   116    1
   126   117   120    1
   127    16    15    1
   128    16    17    1
   129    13    14    2
   130    13    12    1
   131    15    12    1
   132    12    11    1
   133   120   121    1
   134   121   122    1
   135   122   123    1
   136   125   124    1
   137   123   124    2
   138   124   126    1
