@<TRIPOS>MOLECULE
tmp/3uppA00.pdb
 148 139 0 0 0
SMALL
GASTEIGER

@<TRIPOS>ATOM
      1  N         34.7600  -38.4380    9.9300 N.3   178  GLY178     -0.1210
      2  CA        35.6040  -39.6120   10.0740 C.3   178  GLY178      0.1956
      3  C         36.9290  -39.4540    9.3450 C.2   178  GLY178      0.2612
      4  O         37.5590  -38.3890    9.3790 O.2   178  GLY178     -0.2717
      5  N         37.3360  -40.5110    8.6580 N.am  179  SER179     -0.1952
      6  CA        38.6650  -40.5850    8.0550 C.3   179  SER179      0.1924
      7  C         38.9080  -39.5670    6.9690 C.2   179  SER179      0.2314
      8  O         40.0620  -39.2430    6.7010 O.2   179  SER179     -0.2863
      9  CB        38.9560  -41.9930    7.5210 C.3   179  SER179      0.2116
     10  OG        39.3770  -42.8530    8.5630 O.3   179  SER179     -0.2180
     11  N         41.2820  -36.8190    7.8860 N.3   182  LYS182     -0.1245
     12  CA        42.7120  -37.0650    7.7520 C.3   182  LYS182      0.1561
     13  C         43.3150  -36.1880    6.6420 C.2   182  LYS182      0.2260
     14  O         44.5100  -35.9310    6.6350 O.2   182  LYS182     -0.2867
     15  CB        42.9810  -38.5420    7.5020 C.3   182  LYS182      0.0271
     16  CG        42.5680  -39.4480    8.6590 C.3   182  LYS182      0.0035
     17  CD        42.6930  -40.8940    8.2510 C.3   182  LYS182      0.0206
     18  CE        42.6150  -41.8220    9.4540 C.3   182  LYS182      0.1093
     19  NZ        42.3120  -43.2230    9.0090 N.3   182  LYS182     -0.1314
     20  N         41.3880  -50.1680   12.4120 N.3   218  TYR218     -0.1241
     21  CA        40.4520  -51.2010   12.0010 C.3   218  TYR218      0.1605
     22  C         41.2030  -52.4880   11.5830 C.2   218  TYR218      0.2264
     23  O         42.1980  -52.4280   10.8530 O.2   218  TYR218     -0.2867
     24  CB        39.5540  -50.6780   10.8660 C.3   218  TYR218      0.0534
     25  CG        39.8380  -51.2510    9.4810 C.ar  218  TYR218     -0.0201
     26  CD1       38.9190  -52.1110    8.8590 C.ar  218  TYR218     -0.0009
     27  CD2       41.0270  -50.9410    8.7940 C.ar  218  TYR218     -0.0009
     28  CE1       39.1720  -52.6430    7.5870 C.ar  218  TYR218      0.0417
     29  CE2       41.2960  -51.4720    7.5230 C.ar  218  TYR218      0.0417
     30  CZ        40.3630  -52.3180    6.9260 C.ar  218  TYR218      0.1957
     31  OH        40.6290  -52.8380    5.6750 O.3   218  TYR218     -0.2866
     32  N         46.2230  -46.2770    3.4310 N.3   237  LYS237     -0.1231
     33  CA        45.5790  -47.3630    4.1520 C.3   237  LYS237      0.1693
     34  C         44.5470  -46.8330    5.1560 C.2   237  LYS237      0.2592
     35  O         43.7100  -47.5930    5.6470 O.2   237  LYS237     -0.2718
     36  CB        46.6130  -48.2550    4.8470 C.3   237  LYS237      0.0285
     37  CG        47.4360  -49.1140    3.8790 C.3   237  LYS237      0.0035
     38  CD        48.0170  -50.3560    4.5460 C.3   237  LYS237      0.0206
     39  CE        49.4900  -50.1590    4.8660 C.3   237  LYS237      0.1093
     40  NZ        50.2660  -51.4260    4.8770 N.3   237  LYS237     -0.1314
     41  N         44.6230  -45.5340    5.4540 N.am  238  SER238     -0.1952
     42  CA        43.7500  -44.8790    6.4180 C.3   238  SER238      0.1924
     43  C         43.9080  -45.5400    7.7830 C.2   238  SER238      0.2314
     44  O         42.9530  -46.0720    8.3560 O.2   238  SER238     -0.2863
     45  CB        42.2880  -44.9040    5.9380 C.3   238  SER238      0.2116
     46  OG        41.5240  -43.8720    6.5430 O.3   238  SER238     -0.2180
     47  N         44.3030  -45.3970   11.5980 N.3   240  ASN240     -0.1240
     48  CA        43.8910  -44.5010   12.6700 C.3   240  ASN240      0.1653
     49  C         44.9960  -43.9960   13.5830 C.2   240  ASN240      0.2266
     50  O         45.1540  -42.7930   13.7380 O.2   240  ASN240     -0.2867
     51  CB        42.8010  -45.1480   13.5170 C.3   240  ASN240      0.1155
     52  CG        41.4960  -45.2870   12.7760 C.2   240  ASN240      0.2627
     53  OD1       41.2530  -44.6260   11.7490 O.2   240  ASN240     -0.2716
     54  ND2       40.6280  -46.1400   13.3010 N.am  240  ASN240     -0.0877
     55  N         41.2880  -37.8640   13.5870 N.3   294  ILE294     -0.1245
     56  CA        40.6610  -38.9130   12.7790 C.3   294  ILE294      0.1561
     57  C         39.1630  -38.6120   12.4730 C.2   294  ILE294      0.2260
     58  O         38.4160  -39.4870   12.0370 O.2   294  ILE294     -0.2867
     59  CB        40.8790  -40.3380   13.3980 C.3   294  ILE294      0.0252
     60  CG1       40.1820  -40.4660   14.7620 C.3   294  ILE294      0.0019
     61  CG2       42.3630  -40.6470   13.5450 C.3   294  ILE294      0.0019
     62  CD1       40.1020  -41.8990   15.2880 C.3   294  ILE294      0.0001
     63  N         36.5550  -37.3900   14.4980 N.3   296  GLN296     -0.1245
     64  CA        35.5160  -37.7020   15.4660 C.3   296  GLN296      0.1566
     65  C         35.3990  -36.5860   16.5100 C.2   296  GLN296      0.2260
     66  O         35.4820  -35.4010   16.1650 O.2   296  GLN296     -0.2867
     67  CB        35.7420  -39.0730   16.1250 C.3   296  GLN296      0.0367
     68  CG        35.6850  -40.2780   15.1700 C.3   296  GLN296      0.0905
     69  CD        34.3200  -40.4800   14.4870 C.2   296  GLN296      0.2608
     70  OE1       34.2550  -40.9890   13.3640 O.2   296  GLN296     -0.2717
     71  NE2       33.2330  -40.0760   15.1570 N.am  296  GLN296     -0.0878
     72  N         39.4560  -39.7140   -0.8450 N.3   381  LYS381     -0.1231
     73  CA        39.6340  -40.2060    0.4980 C.3   381  LYS381      0.1693
     74  C         38.2850  -40.7240    0.9610 C.2   381  LYS381      0.2593
     75  O         37.2540  -40.0520    0.7870 O.2   381  LYS381     -0.2718
     76  CB        40.1550  -39.1090    1.4260 C.3   381  LYS381      0.0285
     77  CG        40.5010  -39.5840    2.8370 C.3   381  LYS381      0.0035
     78  CD        41.6070  -40.6410    2.8460 C.3   381  LYS381      0.0206
     79  CE        41.7970  -41.2330    4.2280 C.3   381  LYS381      0.1093
     80  NZ        40.8630  -42.3660    4.4620 N.3   381  LYS381     -0.1314
     81  N         38.2950  -41.9320    1.5170 N.am  382  THR382     -0.1939
     82  CA        37.1190  -42.5200    2.1250 C.3   382  THR382      0.2028
     83  C         37.1310  -42.2540    3.6180 C.2   382  THR382      0.2643
     84  O         38.1190  -41.8000    4.1820 O.2   382  THR382     -0.2714
     85  CB        37.0230  -44.0530    1.8920 C.3   382  THR382      0.1808
     86  OG1       38.2680  -44.6660    2.2540 O.3   382  THR382     -0.2208
     87  CG2       36.6800  -44.3850    0.4320 C.3   382  THR382      0.0379
     88  N         35.9970  -42.5230    4.2400 N.am  383  GLY383     -0.1939
     89  CA        35.8220  -42.3440    5.6520 C.3   383  GLY383      0.2014
     90  C         34.5820  -43.0960    6.0710 C.2   383  GLY383      0.2639
     91  O         33.5860  -43.2030    5.3320 O.2   383  GLY383     -0.2714
     92  N         34.6630  -43.6580    7.2580 N.am  384  THR384     -0.1950
     93  CA        33.5210  -44.2630    7.8720 C.3   384  THR384      0.1897
     94  C         33.5080  -43.8090    9.3210 C.2   384  THR384      0.2313
     95  O         34.4330  -44.0920   10.0870 O.2   384  THR384     -0.2863
     96  CB        33.4400  -45.8180    7.6070 C.3   384  THR384      0.1794
     97  OG1       32.7340  -46.4810    8.6640 O.3   384  THR384     -0.2208
     98  CG2       34.8140  -46.4370    7.4240 C.3   384  THR384      0.0378
     99  N         31.7650  -42.9400   13.0940 N.3   386  GLU386     -0.1245
    100  CA        30.8890  -43.2250   14.2260 C.3   386  GLU386      0.1567
    101  C         30.1170  -41.9720   14.6360 C.2   386  GLU386      0.2260
    102  O         30.5760  -40.8500   14.4100 O.2   386  GLU386     -0.2867
    103  CB        31.7040  -43.7050   15.4260 C.3   386  GLU386      0.0388
    104  CG        32.1670  -45.1460   15.3620 C.3   386  GLU386      0.1160
    105  CD        33.0130  -45.5500   16.5750 C.2   386  GLU386      0.3649
    106  OE1       33.2210  -44.7100   17.4990 O.co2 386  GLU386     -0.2457
    107  OE2       33.4710  -46.7150   16.5960 O.co2 386  GLU386     -0.2457
    108  N         27.7850  -46.8680   11.1830 N.3   396  PRO396     -0.2116
    109  CA        28.4920  -45.6090   10.9340 C.3   396  PRO396      0.1372
    110  C         28.0580  -44.9170    9.6400 C.2   396  PRO396      0.2244
    111  O         27.4630  -45.5530    8.7730 O.2   396  PRO396     -0.2868
    112  CB        29.9590  -46.0500   10.8240 C.3   396  PRO396      0.0268
    113  CG        29.8920  -47.4370   10.3170 C.3   396  PRO396      0.0207
    114  CD        28.6610  -48.0380   10.9670 C.3   396  PRO396      0.0892
    115  N         25.8260  -52.2690    9.9870 N.3   424  LEU424     -0.1231
    116  CA        26.9220  -51.9720   10.9020 C.3   424  LEU424      0.1693
    117  C         28.3230  -52.2230   10.3230 C.2   424  LEU424      0.2593
    118  O         29.3110  -51.6670   10.8240 O.2   424  LEU424     -0.2718
    119  CB        26.7240  -52.6600   12.2430 C.3   424  LEU424      0.0284
    120  CG        26.5800  -51.6810   13.4050 C.3   424  LEU424      0.0019
    121  CD1       25.7240  -52.3030   14.4750 C.3   424  LEU424      0.0001
    122  CD2       27.9580  -51.2820   13.9730 C.3   424  LEU424      0.0001
    123  N         28.3910  -53.0200    9.2560 N.am  425  SER425     -0.1938
    124  CA        29.6480  -53.2700    8.5240 C.3   425  SER425      0.2055
    125  C         29.9440  -52.1820    7.4890 C.2   425  SER425      0.2643
    126  O         30.9680  -52.2430    6.8040 O.2   425  SER425     -0.2714
    127  CB        29.6020  -54.6240    7.8050 C.3   425  SER425      0.2130
    128  OG        28.6330  -54.6030    6.7640 O.3   425  SER425     -0.2179
    129  N         29.0410  -51.2080    7.3740 N.am  426  ALA426     -0.1963
    130  CA        29.1750  -50.1240    6.4150 C.3   426  ALA426      0.1728
    131  C         30.5500  -49.4670    6.4870 C.2   426  ALA426      0.2617
    132  O         31.0760  -49.2420    7.5810 O.2   426  ALA426     -0.2715
    133  CB        28.0890  -49.0830    6.6450 C.3   426  ALA426      0.0334
    134  N         31.1330  -49.2040    5.3130 N.am  427  THR427     -0.1937
    135  CA        32.3430  -48.3970    5.1760 C.3   427  THR427      0.2028
    136  C         32.1960  -47.4820    3.9640 C.2   427  THR427      0.2643
    137  O         31.4500  -47.7900    3.0370 O.2   427  THR427     -0.2714
    138  CB        33.6370  -49.2290    4.9820 C.3   427  THR427      0.1808
    139  OG1       33.6720  -49.7590    3.6540 O.3   427  THR427     -0.2208
    140  CG2       33.7790  -50.3460    6.0060 C.3   427  THR427      0.0379
    141  N         32.9220  -46.3640    3.9680 N.am  428  GLY428     -0.1939
    142  CA        32.8980  -45.4230    2.8540 C.3   428  GLY428      0.2014
    143  C         33.2890  -46.0330    1.5240 C.2   428  GLY428      0.2639
    144  O         32.7540  -45.6480    0.4800 O.2   428  GLY428     -0.2714
    145  N         34.2310  -46.9780    1.5670 N.am  429  GLY429     -0.1954
    146  CA        34.7280  -47.6760    0.3790 C.3   429  GLY429      0.1869
    147  C         33.6780  -48.6010   -0.2010 C.2   429  GLY429      0.2309
    148  O         33.4400  -48.6020   -1.4160 O.2   429  GLY429     -0.2863
@<TRIPOS>BOND
     1   148   147    2
     2    72    73    1
     3   147   146    1
     4   146   145    1
     5    87    85    1
     6   144   143    2
     7    73    74    1
     8    73    76    1
     9    75    74    2
    10    74    81   am
    11    76    77    1
    12    81    82    1
    13   143   145   am
    14   143   142    1
    15    85    82    1
    16    85    86    1
    17    82    83    1
    18    77    78    1
    19    78    79    1
    20   142   141    1
    21   137   136    2
    22    32    33    1
    23    83    84    2
    24    83    88   am
    25   139   138    1
    26    37    38    1
    27    37    36    1
    28   136   141   am
    29   136   135    1
    30    33    36    1
    31    33    34    1
    32    79    80    1
    33    88    89    1
    34    38    39    1
    35    39    40    1
    36   138   135    1
    37   138   140    1
    38    34    41   am
    39    34    35    2
    40   135   134    1
    41   134   131   am
    42    91    90    2
    43    41    42    1
    44    89    90    1
    45    31    30    1
    46    45    42    1
    47    45    46    1
    48    90    92   am
    49   130   131    1
    50   130   133    1
    51   130   129    1
    52    42    43    1
    53   131   132    2
    54    14    13    2
    55    13    12    1
    56     8     7    2
    57   128   127    1
    58   126   125    2
    59    30    29   ar
    60    30    28   ar
    61     7     6    1
    62    92    93    1
    63   129   125   am
    64    98    96    1
    65   125   124    1
    66    15    12    1
    67    15    16    1
    68     9     6    1
    69     9    10    1
    70    29    27   ar
    71    28    26   ar
    72    96    93    1
    73    96    97    1
    74    12    11    1
    75    43    44    2
    76   127   124    1
    77    93    94    1
    78     6     5    1
    79    17    16    1
    80    17    18    1
    81   124   123    1
    82     5     3   am
    83   111   110    2
    84    27    25   ar
    85    26    25   ar
    86    19    18    1
    87   123   117   am
    88    94    95    2
    89     3     4    2
    90     3     2    1
    91    25    24    1
    92   110   109    1
    93     1     2    1
    94   115   116    1
    95   113   112    1
    96   113   114    1
    97   117   118    2
    98   117   116    1
    99   112   109    1
   100    23    22    2
   101    24    21    1
   102   116   119    1
   103   109   108    1
   104   114   108    1
   105    22    21    1
   106    47    48    1
   107    53    52    2
   108    21    20    1
   109    58    57    2
   110   119   120    1
   111    57    56    1
   112    48    51    1
   113    48    49    1
   114    52    54   am
   115    52    51    1
   116    56    59    1
   117    56    55    1
   118    99   100    1
   119    70    69    2
   120    59    61    1
   121    59    60    1
   122   120   122    1
   123   120   121    1
   124    49    50    2
   125   100   101    1
   126   100   103    1
   127   102   101    2
   128    69    71   am
   129    69    68    1
   130    63    64    1
   131    60    62    1
   132    68    67    1
   133   104   103    1
   134   104   105    1
   135    64    67    1
   136    64    65    1
   137    66    65    2
   138   105   107   ar
   139   105   106   ar
