@<TRIPOS>MOLECULE
tmp/3upqA01.pdb
 135 128 0 0 0
SMALL
GASTEIGER

@<TRIPOS>ATOM
      1  N         26.5640    9.7840   -8.1920 N.3   135  ARG135     -0.1245
      2  CA        26.3100    8.6760   -9.0870 C.3   135  ARG135      0.1563
      3  C         27.2740    7.5570   -8.7320 C.2   135  ARG135      0.2260
      4  O         28.4100    7.8150   -8.3260 O.2   135  ARG135     -0.2867
      5  CB        26.4350    9.1330  -10.5410 C.3   135  ARG135      0.0307
      6  CG        25.4280   10.2190  -10.9050 C.3   135  ARG135      0.0489
      7  CD        25.6230   10.7260  -12.3240 C.3   135  ARG135      0.2205
      8  NE        25.3700    9.6890  -13.3190 N.pl3 135  ARG135     -0.0865
      9  CZ        24.1590    9.3510  -13.7500 C.cat 135  ARG135      0.5346
     10  NH1       23.0850    9.9580  -13.2540 N.pl3 135  ARG135      0.1354
     11  NH2       24.0140    8.4040  -14.6680 N.pl3 135  ARG135      0.1354
     12  N         17.4930    1.2850  -17.3510 N.3   165  GLY165     -0.1210
     13  CA        17.9530    2.6570  -17.1830 C.3   165  GLY165      0.1956
     14  C         19.3330    2.9520  -17.7640 C.2   165  GLY165      0.2612
     15  O         19.7630    2.3370  -18.7400 O.2   165  GLY165     -0.2717
     16  N         20.0300    3.9070  -17.1550 N.am  166  SER166     -0.1952
     17  CA        21.3500    4.3330  -17.6100 C.3   166  SER166      0.1924
     18  C         22.3550    3.1820  -17.6540 C.2   166  SER166      0.2314
     19  O         23.3370    3.2190  -18.4080 O.2   166  SER166     -0.2863
     20  CB        21.8780    5.4260  -16.6870 C.3   166  SER166      0.2116
     21  OG        21.9950    4.9210  -15.3740 O.3   166  SER166     -0.2180
     22  N         21.8720    1.4200  -20.9000 N.3   169  ARG169     -0.1245
     23  CA        22.3770    2.3120  -21.9430 C.3   169  ARG169      0.1563
     24  C         23.9160    2.4400  -21.9230 C.2   169  ARG169      0.2260
     25  O         24.4880    3.2290  -22.6750 O.2   169  ARG169     -0.2867
     26  CB        21.7250    3.6920  -21.8590 C.3   169  ARG169      0.0307
     27  CG        20.1850    3.6490  -21.9290 C.3   169  ARG169      0.0489
     28  CD        19.5960    5.0110  -22.2480 C.3   169  ARG169      0.2205
     29  NE        20.0680    6.0790  -21.3640 N.pl3 169  ARG169     -0.0865
     30  CZ        19.5640    6.3610  -20.1640 C.cat 169  ARG169      0.5346
     31  NH1       18.5640    5.6530  -19.6650 N.pl3 169  ARG169      0.1354
     32  NH2       20.0730    7.3590  -19.4510 N.pl3 169  ARG169      0.1354
     33  N         22.8550    6.9420  -11.6040 N.3   175  GLY175     -0.1210
     34  CA        22.2240    7.6650  -10.5080 C.3   175  GLY175      0.1956
     35  C         21.5370    6.7200   -9.5440 C.2   175  GLY175      0.2611
     36  O         21.5430    6.9240   -8.3290 O.2   175  GLY175     -0.2717
     37  N         20.9260    5.6800  -10.0990 N.am  176  ASP176     -0.1973
     38  CA        20.3590    4.6120   -9.2990 C.3   176  ASP176      0.1709
     39  C         20.4690    3.3170  -10.0930 C.2   176  ASP176      0.2293
     40  O         21.0820    3.2850  -11.1540 O.2   176  ASP176     -0.2864
     41  CB        18.8850    4.8960   -8.9820 C.3   176  ASP176      0.1436
     42  CG        17.9890    4.8000  -10.2060 C.2   176  ASP176      0.3671
     43  OD1       18.4750    4.4650  -11.3020 O.co2 176  ASP176     -0.2456
     44  OD2       16.7740    5.0380  -10.0700 O.co2 176  ASP176     -0.2456
     45  N         17.8110    0.5270  -11.8550 N.3   178  ASP178     -0.1239
     46  CA        16.4470    0.1650  -12.2160 C.3   178  ASP178      0.1674
     47  C         16.3550   -1.3210  -12.6000 C.2   178  ASP178      0.2266
     48  O         16.8690   -1.7270  -13.6340 O.2   178  ASP178     -0.2867
     49  CB        15.9970    1.0260  -13.3910 C.3   178  ASP178      0.1410
     50  CG        16.2460    2.5010  -13.1450 C.2   178  ASP178      0.3668
     51  OD1       15.5440    3.0580  -12.2820 O.co2 178  ASP178     -0.2456
     52  OD2       17.1500    3.0920  -13.7810 O.co2 178  ASP178     -0.2456
     53  N         15.1100    1.0580   -7.7950 N.3   234  ASP234     -0.1239
     54  CA        13.7430    1.0080   -8.2870 C.3   234  ASP234      0.1674
     55  C         13.5620   -0.3780   -8.8660 C.2   234  ASP234      0.2266
     56  O         14.4350   -0.8720   -9.5710 O.2   234  ASP234     -0.2867
     57  CB        13.5140    2.0280   -9.3960 C.3   234  ASP234      0.1410
     58  CG        13.6600    3.4620   -8.9210 C.2   234  ASP234      0.3668
     59  OD1       13.5490    3.7150   -7.7020 O.co2 234  ASP234     -0.2456
     60  OD2       13.8790    4.3350   -9.7780 O.co2 234  ASP234     -0.2456
     61  N         10.5710    0.7930  -22.1110 N.3   249  TYR249     -0.1227
     62  CA        10.2330    1.9250  -21.2440 C.3   249  TYR249      0.1736
     63  C         11.3060    2.1600  -20.2020 C.2   249  TYR249      0.2595
     64  O         11.7610    3.2780  -20.0260 O.2   249  TYR249     -0.2718
     65  CB         8.8940    1.7100  -20.5220 C.3   249  TYR249      0.0548
     66  CG         8.8270    2.4220  -19.1700 C.ar  249  TYR249     -0.0200
     67  CD1        8.7130    3.8030  -19.0930 C.ar  249  TYR249     -0.0009
     68  CD2        8.8880    1.7030  -17.9780 C.ar  249  TYR249     -0.0009
     69  CE1        8.6660    4.4590  -17.8480 C.ar  249  TYR249      0.0417
     70  CE2        8.8440    2.3400  -16.7420 C.ar  249  TYR249      0.0417
     71  CZ         8.7320    3.7180  -16.6840 C.ar  249  TYR249      0.1957
     72  OH         8.6890    4.3470  -15.4530 O.3   249  TYR249     -0.2866
     73  N         11.6970    1.0940  -19.5080 N.am  250  PHE250     -0.1962
     74  CA        12.5550    1.2170  -18.3260 C.3   250  PHE250      0.1771
     75  C         13.9950    1.4780  -18.7430 C.2   250  PHE250      0.2620
     76  O         14.8100    1.9250  -17.9360 O.2   250  PHE250     -0.2715
     77  CB        12.4730   -0.0620  -17.4680 C.3   250  PHE250      0.0574
     78  CG        12.5010    0.1820  -15.9780 C.ar  250  PHE250     -0.0200
     79  CD1       12.8470   -0.8460  -15.1080 C.ar  250  PHE250     -0.0042
     80  CD2       12.1550    1.4190  -15.4430 C.ar  250  PHE250     -0.0042
     81  CE1       12.8710   -0.6450  -13.7270 C.ar  250  PHE250     -0.0003
     82  CE2       12.1650    1.6340  -14.0550 C.ar  250  PHE250     -0.0003
     83  CZ        12.5210    0.6000  -13.1960 C.ar  250  PHE250     -0.0000
     84  N         14.3070    1.1880  -20.0060 N.am  251  THR251     -0.1937
     85  CA        15.6200    1.5260  -20.5540 C.3   251  THR251      0.2028
     86  C         15.7420    2.9950  -20.9490 C.2   251  THR251      0.2643
     87  O         16.7290    3.6500  -20.6170 O.2   251  THR251     -0.2714
     88  CB        16.0000    0.6190  -21.7270 C.3   251  THR251      0.1808
     89  OG1       16.0020   -0.7430  -21.2770 O.3   251  THR251     -0.2208
     90  CG2       17.3850    0.9810  -22.2470 C.3   251  THR251      0.0379
     91  N         14.7440    3.5260  -21.6540 N.am  252  GLY252     -0.1939
     92  CA        14.7670    4.9280  -22.0280 C.3   252  GLY252      0.2014
     93  C         15.8150    5.2180  -23.0860 C.2   252  GLY252      0.2640
     94  O         16.0630    4.3650  -23.9310 O.2   252  GLY252     -0.2714
     95  N         16.4470    6.3920  -23.0500 N.am  253  SER253     -0.1935
     96  CA        16.3050    7.3850  -21.9820 C.3   253  SER253      0.2055
     97  C         14.9250    8.0170  -21.8950 C.2   253  SER253      0.2642
     98  O         14.0820    7.7980  -22.7460 O.2   253  SER253     -0.2714
     99  CB        17.2990    8.5160  -22.2120 C.3   253  SER253      0.2130
    100  OG        16.8420    9.3750  -23.2450 O.3   253  SER253     -0.2179
    101  N         14.7130    8.8350  -20.8680 N.am  254  ALA254     -0.1977
    102  CA        13.4400    9.5350  -20.7260 C.3   254  ALA254      0.1597
    103  C         13.1230   10.3560  -21.9740 C.2   254  ALA254      0.2287
    104  O         12.0200   10.3100  -22.4850 O.2   254  ALA254     -0.2864
    105  CB        13.4520   10.4300  -19.4940 C.3   254  ALA254      0.0319
    106  N         12.2040    8.0090  -24.8170 N.3   257  ASN257     -0.1225
    107  CA        10.8210    7.5690  -24.6280 C.3   257  ASN257      0.1785
    108  C          9.8140    8.5980  -25.0790 C.2   257  ASN257      0.2597
    109  O          8.8550    8.2700  -25.7680 O.2   257  ASN257     -0.2718
    110  CB        10.5480    7.2270  -23.1580 C.3   257  ASN257      0.1169
    111  CG        11.1660    5.9070  -22.7430 C.2   257  ASN257      0.2627
    112  OD1       11.6050    5.1300  -23.5860 O.2   257  ASN257     -0.2716
    113  ND2       11.1570    5.6260  -21.4470 N.am  257  ASN257     -0.0877
    114  N         10.0210    9.8460  -24.6700 N.am  258  ARG258     -0.1979
    115  CA         9.0900   10.9130  -25.0260 C.3   258  ARG258      0.1597
    116  C          8.9810   11.1070  -26.5360 C.2   258  ARG258      0.2287
    117  O          7.8790   11.2360  -27.0820 O.2   258  ARG258     -0.2864
    118  CB         9.4640   12.2120  -24.3060 C.3   258  ARG258      0.0334
    119  CG         9.1930   12.1280  -22.7960 C.3   258  ARG258      0.0492
    120  CD         9.7200   13.3390  -22.0410 C.3   258  ARG258      0.2205
    121  NE         8.8670   14.5130  -22.2090 N.pl3 258  ARG258     -0.0865
    122  CZ         8.9670   15.6140  -21.4690 C.cat 258  ARG258      0.5346
    123  NH1        9.8840   15.6830  -20.5080 N.pl3 258  ARG258      0.1354
    124  NH2        8.1520   16.6420  -21.6850 N.pl3 258  ARG258      0.1354
    125  N          7.2410    7.9870  -28.0620 N.3   261  ARG261     -0.1245
    126  CA         5.8150    8.0500  -27.7640 C.3   261  ARG261      0.1563
    127  C          5.1230    9.1200  -28.5980 C.2   261  ARG261      0.2260
    128  O          4.0020    8.9130  -29.0890 O.2   261  ARG261     -0.2867
    129  CB         5.6060    8.2860  -26.2600 C.3   261  ARG261      0.0307
    130  CG         5.9340    7.0480  -25.4460 C.3   261  ARG261      0.0489
    131  CD         6.0760    7.3050  -23.9370 C.3   261  ARG261      0.2205
    132  NE         6.3390    6.0420  -23.2450 N.pl3 261  ARG261     -0.0865
    133  CZ         6.0700    5.8090  -21.9620 C.cat 261  ARG261      0.5346
    134  NH1        5.5410    6.7590  -21.1940 N.pl3 261  ARG261      0.1354
    135  NH2        6.3290    4.6170  -21.4470 N.pl3 261  ARG261      0.1354
@<TRIPOS>BOND
     1   128   127    2
     2   127   126    1
     3   125   126    1
     4   126   129    1
     5   117   116    2
     6   116   115    1
     7   129   130    1
     8   109   108    2
     9   130   131    1
    10   108   114   am
    11   108   107    1
    12   115   114    1
    13   115   118    1
    14   106   107    1
    15   107   110    1
    16   118   119    1
    17   131   132    1
    18    94    93    2
    19   112   111    2
    20   100    99    1
    21   132   133    2
    22   110   111    1
    23    93    95   am
    24    93    92    1
    25    95    96    1
    26   119   120    1
    27    98    97    2
    28   111   113   am
    29    25    24    2
    30   104   103    2
    31    28    27    1
    32    28    29    1
    33    90    88    1
    34    99    96    1
    35   121   120    1
    36   121   122    2
    37    61    62    1
    38    92    91    1
    39    96    97    1
    40   103   102    1
    41   133   135    1
    42   133   134    1
    43    23    24    1
    44    23    26    1
    45    23    22    1
    46    27    26    1
    47    97   101   am
    48    88    89    1
    49    88    85    1
    50   124   122    1
    51    91    86   am
    52   122   123    1
    53    29    30    2
    54    62    65    1
    55    62    63    1
    56    86    87    2
    57    86    85    1
    58   101   102    1
    59   102   105    1
    60    85    84    1
    61    65    66    1
    62    63    64    2
    63    63    73   am
    64    30    31    1
    65    30    32    1
    66    84    75   am
    67    73    74    1
    68    66    67   ar
    69    66    68   ar
    70    67    69   ar
    71    75    74    1
    72    75    76    2
    73    15    14    2
    74    19    18    2
    75    74    77    1
    76    68    70   ar
    77    69    71   ar
    78    14    13    1
    79    14    16   am
    80    18    17    1
    81    17    16    1
    82    17    20    1
    83    77    78    1
    84    12    13    1
    85    70    71   ar
    86    20    21    1
    87    71    72    1
    88    78    80   ar
    89    78    79   ar
    90    80    82   ar
    91    79    81   ar
    92    11     9    1
    93    82    83   ar
    94    52    50   ar
    95     9     8    2
    96     9    10    1
    97    81    83   ar
    98    48    47    2
    99    49    50    1
   100    49    46    1
   101     8     7    1
   102    50    51   ar
   103    47    46    1
   104     7     6    1
   105    46    45    1
   106    33    34    1
   107    43    42   ar
   108    40    39    2
   109     6     5    1
   110     5     2    1
   111    34    35    1
   112    42    44   ar
   113    42    41    1
   114    37    35   am
   115    37    38    1
   116    39    38    1
   117    60    58   ar
   118    56    55    2
   119    35    36    2
   120    57    58    1
   121    57    54    1
   122    38    41    1
   123     2     3    1
   124     2     1    1
   125    58    59   ar
   126    55    54    1
   127     3     4    2
   128    54    53    1
