@<TRIPOS>MOLECULE
tmp/3uprE01.pdb
 180 174 0 0 0
SMALL
GASTEIGER

@<TRIPOS>ATOM
      1  N         53.0770   12.3140   42.6930 N.3     8  TYR8       -0.1241
      2  CA        52.6920   10.9310   42.4150 C.3     8  TYR8        0.1605
      3  C         51.2430   10.8960   41.9550 C.2     8  TYR8        0.2264
      4  O         50.3960   11.5720   42.5330 O.2     8  TYR8       -0.2867
      5  CB        52.8190   10.0560   43.6690 C.3     8  TYR8        0.0534
      6  CG        54.2290    9.7680   44.1520 C.ar    8  TYR8       -0.0201
      7  CD1       54.4580    8.7820   45.1040 C.ar    8  TYR8       -0.0009
      8  CD2       55.3260   10.4810   43.6740 C.ar    8  TYR8       -0.0009
      9  CE1       55.7360    8.5020   45.5580 C.ar    8  TYR8        0.0417
     10  CE2       56.6130   10.2100   44.1270 C.ar    8  TYR8        0.0417
     11  CZ        56.8070    9.2150   45.0710 C.ar    8  TYR8        0.1957
     12  OH        58.0680    8.9260   45.5420 O.3     8  TYR8       -0.2866
     13  N         56.2530    1.7470   45.7530 N.3    69  SER69      -0.1217
     14  CA        55.2860    2.8200   45.9660 C.3    69  SER69       0.1889
     15  C         54.0280    2.6020   45.1210 C.2    69  SER69       0.2288
     16  O         52.9100    2.8170   45.5860 O.2    69  SER69      -0.2866
     17  CB        55.9080    4.1780   45.6270 C.3    69  SER69       0.2089
     18  OG        57.0420    4.4410   46.4300 O.3    69  SER69      -0.2183
     19  N         50.3090    2.2250   46.5110 N.3    73  TYR73      -0.1241
     20  CA        49.2490    3.1130   46.0410 C.3    73  TYR73       0.1605
     21  C         48.0730    2.3360   45.4500 C.2    73  TYR73       0.2264
     22  O         46.9300    2.7810   45.5290 O.2    73  TYR73      -0.2867
     23  CB        49.7840    4.1200   45.0200 C.3    73  TYR73       0.0534
     24  CG        50.3750    5.3800   45.6210 C.ar   73  TYR73      -0.0201
     25  CD1       49.7310    6.6050   45.4900 C.ar   73  TYR73      -0.0009
     26  CD2       51.5810    5.3470   46.3120 C.ar   73  TYR73      -0.0009
     27  CE1       50.2730    7.7610   46.0340 C.ar   73  TYR73       0.0417
     28  CE2       52.1290    6.4950   46.8550 C.ar   73  TYR73       0.0417
     29  CZ        51.4730    7.6950   46.7160 C.ar   73  TYR73       0.1957
     30  OH        52.0220    8.8330   47.2610 O.3    73  TYR73      -0.2866
     31  N         46.1970    1.2050   48.2820 N.3    76  ASN76      -0.1240
     32  CA        45.5380    2.3690   48.8570 C.3    76  ASN76       0.1653
     33  C         44.2880    2.7790   48.0880 C.2    76  ASN76       0.2266
     34  O         43.3120    3.2360   48.6850 O.2    76  ASN76      -0.2867
     35  CB        46.5210    3.5410   48.9830 C.3    76  ASN76       0.1155
     36  CG        47.5370    3.3350   50.1030 C.2    76  ASN76       0.2627
     37  OD1       47.4990    2.3290   50.8140 O.2    76  ASN76      -0.2716
     38  ND2       48.4540    4.2850   50.2570 N.am   76  ASN76      -0.0877
     39  N         40.6690    2.9780   49.7250 N.3    80  ALA80      -0.1245
     40  CA        39.8740    4.1910   49.5100 C.3    80  ALA80       0.1562
     41  C         38.4790    3.8580   48.9770 C.2    80  ALA80       0.2260
     42  O         37.4920    4.4740   49.3790 O.2    80  ALA80      -0.2867
     43  CB        40.5900    5.1330   48.5680 C.3    80  ALA80       0.0290
     44  N         44.3860    8.8000   42.8320 N.3    94  ILE94      -0.1245
     45  CA        45.0850    9.3640   43.9820 C.3    94  ILE94       0.1561
     46  C         46.2120   10.2850   43.5100 C.2    94  ILE94       0.2260
     47  O         47.0060    9.9150   42.6460 O.2    94  ILE94      -0.2867
     48  CB        45.6680    8.2590   44.8930 C.3    94  ILE94       0.0252
     49  CG1       44.5570    7.6200   45.7330 C.3    94  ILE94       0.0019
     50  CG2       46.7710    8.8180   45.7880 C.3    94  ILE94       0.0019
     51  CD1       45.0360    6.5080   46.6260 C.3    94  ILE94       0.0001
     52  N         49.3650   12.7260   45.0620 N.3    96  VAL96      -0.1245
     53  CA        50.1720   13.0720   46.2280 C.3    96  VAL96       0.1561
     54  C         51.3200   13.9960   45.8440 C.2    96  VAL96       0.2260
     55  O         52.0560   13.7280   44.8940 O.2    96  VAL96      -0.2867
     56  CB        50.7390   11.8090   46.9160 C.3    96  VAL96       0.0252
     57  CG1       51.7860   12.1780   47.9710 C.3    96  VAL96       0.0019
     58  CG2       49.6130   10.9980   47.5330 C.3    96  VAL96       0.0019
     59  N         54.6380   15.8600   47.6850 N.3    98  TYR98      -0.1241
     60  CA        55.4730   16.0810   48.8570 C.3    98  TYR98       0.1605
     61  C         56.8130   16.6850   48.4580 C.2    98  TYR98       0.2264
     62  O         57.2430   16.5690   47.3080 O.2    98  TYR98      -0.2867
     63  CB        55.6720   14.7850   49.6550 C.3    98  TYR98       0.0534
     64  CG        56.5750   13.7770   48.9900 C.ar   98  TYR98      -0.0201
     65  CD1       57.9300   13.7280   49.2890 C.ar   98  TYR98      -0.0009
     66  CD2       56.0750   12.8700   48.0670 C.ar   98  TYR98      -0.0009
     67  CE1       58.7610   12.8110   48.6830 C.ar   98  TYR98       0.0417
     68  CE2       56.9010   11.9500   47.4550 C.ar   98  TYR98       0.0417
     69  CZ        58.2410   11.9230   47.7690 C.ar   98  TYR98       0.1957
     70  OH        59.0660   11.0000   47.1680 O.3    98  TYR98      -0.2866
     71  N         53.3760   17.6360   52.4080 N.3   113  ASP113     -0.1225
     72  CA        52.8680   16.2980   52.1290 C.3   113  ASP113      0.1805
     73  C         51.3490   16.3600   52.1350 C.2   113  ASP113      0.2598
     74  O         50.7180   16.2230   53.1820 O.2   113  ASP113     -0.2718
     75  CB        53.3510   15.2810   53.1620 C.3   113  ASP113      0.1424
     76  CG        52.6860   13.9210   52.9960 C.2   113  ASP113      0.3668
     77  OD1       52.4120   13.2650   54.0220 O.co2 113  ASP113     -0.2456
     78  OD2       52.4300   13.5090   51.8430 O.co2 113  ASP113     -0.2456
     79  N         50.7640   16.5940   50.9650 N.am  114  GLN114     -0.1965
     80  CA        49.3150   16.6900   50.8430 C.3   114  GLN114      0.1733
     81  C         48.8210   15.8770   49.6620 C.2   114  GLN114      0.2617
     82  O         49.5660   15.6270   48.7150 O.2   114  GLN114     -0.2715
     83  CB        48.8860   18.1420   50.6810 C.3   114  GLN114      0.0408
     84  CG        49.5860   18.8690   49.5620 C.3   114  GLN114      0.0908
     85  CD        49.1290   20.3080   49.4580 C.2   114  GLN114      0.2608
     86  OE1       49.8910   21.1870   49.0630 O.2   114  GLN114     -0.2717
     87  NE2       47.8740   20.5560   49.8150 N.am  114  GLN114     -0.0878
     88  N         47.5560   15.4760   49.7120 N.am  115  SER115     -0.1936
     89  CA        47.0240   14.6000   48.6870 C.3   115  SER115      0.2055
     90  C         45.6040   14.9210   48.2520 C.2   115  SER115      0.2643
     91  O         44.8720   15.6510   48.9210 O.2   115  SER115     -0.2714
     92  CB        47.0890   13.1470   49.1460 C.3   115  SER115      0.2130
     93  OG        46.2290   12.9240   50.2500 O.3   115  SER115     -0.2179
     94  N         45.2280   14.3500   47.1150 N.am  116  ALA116     -0.1963
     95  CA        43.8730   14.4670   46.6140 C.3   116  ALA116      0.1728
     96  C         43.3040   13.0920   46.3050 C.2   116  ALA116      0.2616
     97  O         44.0430   12.1430   46.0400 O.2   116  ALA116     -0.2715
     98  CB        43.8390   15.3400   45.3780 C.3   116  ALA116      0.0334
     99  N         41.9820   12.9900   46.3500 N.am  117  TYR117     -0.1974
    100  CA        41.2980   11.8000   45.8720 C.3   117  TYR117      0.1639
    101  C         40.2010   12.2430   44.9220 C.2   117  TYR117      0.2290
    102  O         39.3270   13.0210   45.3020 O.2   117  TYR117     -0.2864
    103  CB        40.7270   10.9840   47.0330 C.3   117  TYR117      0.0560
    104  CG        40.0910    9.6780   46.6090 C.ar  117  TYR117     -0.0198
    105  CD1       40.8650    8.6190   46.1400 C.ar  117  TYR117     -0.0009
    106  CD2       38.7150    9.5010   46.6790 C.ar  117  TYR117     -0.0009
    107  CE1       40.2790    7.4220   45.7500 C.ar  117  TYR117      0.0417
    108  CE2       38.1240    8.3130   46.2920 C.ar  117  TYR117      0.0417
    109  CZ        38.9060    7.2760   45.8340 C.ar  117  TYR117      0.1957
    110  OH        38.3010    6.0970   45.4530 O.3   117  TYR117     -0.2866
    111  N         42.3360   15.5270   50.1010 N.3   122  TYR122     -0.1227
    112  CA        42.1300   14.3700   50.9570 C.3   122  TYR122      0.1736
    113  C         42.7520   14.6020   52.3340 C.2   122  TYR122      0.2595
    114  O         42.0410   14.8750   53.3000 O.2   122  TYR122     -0.2718
    115  CB        42.6740   13.0990   50.3040 C.3   122  TYR122      0.0548
    116  CG        42.3300   11.8480   51.0680 C.ar  122  TYR122     -0.0200
    117  CD1       41.0760   11.2590   50.9490 C.ar  122  TYR122     -0.0009
    118  CD2       43.2500   11.2600   51.9180 C.ar  122  TYR122     -0.0009
    119  CE1       40.7560   10.1130   51.6550 C.ar  122  TYR122      0.0417
    120  CE2       42.9390   10.1210   52.6250 C.ar  122  TYR122      0.0417
    121  CZ        41.6930    9.5520   52.4940 C.ar  122  TYR122      0.1957
    122  OH        41.3970    8.4100   53.2050 O.3   122  TYR122     -0.2866
    123  N         44.0750   14.5050   52.4220 N.am  123  ILE123     -0.1980
    124  CA        44.7690   14.7870   53.6770 C.3   123  ILE123      0.1595
    125  C         46.0730   15.5390   53.4330 C.2   123  ILE123      0.2287
    126  O         46.7690   15.3020   52.4450 O.2   123  ILE123     -0.2864
    127  CB        45.0170   13.5030   54.5220 C.3   123  ILE123      0.0276
    128  CG1       45.2550   13.8580   55.9960 C.3   123  ILE123      0.0022
    129  CG2       46.1590   12.6820   53.9490 C.3   123  ILE123      0.0022
    130  CD1       45.3840   12.6490   56.9150 C.3   123  ILE123      0.0001
    131  N         47.6250   16.7540   61.1340 N.3   132  TRP132     -0.1241
    132  CA        47.0660   16.5200   59.8070 C.3   132  TRP132      0.1605
    133  C         45.7600   17.2850   59.6030 C.2   132  TRP132      0.2264
    134  O         44.9910   17.4790   60.5460 O.2   132  TRP132     -0.2867
    135  CB        46.8120   15.0250   59.5920 C.3   132  TRP132      0.0550
    136  CG        48.0330   14.1750   59.7510 C.ar  132  TRP132      0.0003
    137  CD1       48.4550   13.5550   60.8880 C.ar  132  TRP132      0.0946
    138  CD2       48.9870   13.8450   58.7320 C.ar  132  TRP132      0.0152
    139  NE1       49.6140   12.8590   60.6440 N.ar  132  TRP132     -0.2442
    140  CE2       49.9640   13.0250   59.3290 C.ar  132  TRP132      0.0810
    141  CE3       49.1070   14.1630   57.3730 C.ar  132  TRP132      0.0012
    142  CZ2       51.0540   12.5200   58.6160 C.ar  132  TRP132      0.0191
    143  CZ3       50.1910   13.6640   56.6680 C.ar  132  TRP132      0.0001
    144  CH2       51.1490   12.8510   57.2910 C.ar  132  TRP132      0.0015
    145  N         41.8870    7.7970   57.8630 N.3   142  THR142     -0.1218
    146  CA        43.3190    7.7810   57.5930 C.3   142  THR142      0.1862
    147  C         44.0620    8.6190   58.6310 C.2   142  THR142      0.2287
    148  O         45.1880    8.2930   59.0130 O.2   142  THR142     -0.2866
    149  CB        43.6350    8.3110   56.1790 C.3   142  THR142      0.1770
    150  OG1       42.9430    7.5200   55.2050 O.3   142  THR142     -0.2211
    151  CG2       45.1270    8.2520   55.9010 C.3   142  THR142      0.0375
    152  N         47.2150    7.3360   60.9060 N.3   146  TRP146     -0.1241
    153  CA        48.5150    7.9860   60.7530 C.3   146  TRP146      0.1605
    154  C         49.0400    8.6000   62.0440 C.2   146  TRP146      0.2264
    155  O         50.2510    8.6670   62.2640 O.2   146  TRP146     -0.2867
    156  CB        48.4700    9.0300   59.6400 C.3   146  TRP146      0.0550
    157  CG        48.5060    8.4200   58.2780 C.ar  146  TRP146      0.0003
    158  CD1       48.4570    7.0870   57.9750 C.ar  146  TRP146      0.0946
    159  CD2       48.6080    9.1110   57.0300 C.ar  146  TRP146      0.0152
    160  NE1       48.5180    6.9080   56.6170 N.ar  146  TRP146     -0.2442
    161  CE2       48.6130    8.1340   56.0120 C.ar  146  TRP146      0.0810
    162  CE3       48.6890   10.4600   56.6730 C.ar  146  TRP146      0.0012
    163  CZ2       48.6920    8.4660   54.6610 C.ar  146  TRP146      0.0191
    164  CZ3       48.7770   10.7860   55.3320 C.ar  146  TRP146      0.0001
    165  CH2       48.7760    9.7960   54.3440 C.ar  146  TRP146      0.0015
    166  N         53.2570    8.5980   61.8130 N.3   151  VAL151     -0.1245
    167  CA        53.6430    8.8140   60.4290 C.3   151  VAL151      0.1561
    168  C         54.2600   10.1960   60.2330 C.2   151  VAL151      0.2260
    169  O         55.2580   10.3380   59.5250 O.2   151  VAL151     -0.2867
    170  CB        52.4390    8.6140   59.4930 C.3   151  VAL151      0.0252
    171  CG1       52.8150    8.9300   58.0560 C.3   151  VAL151      0.0019
    172  CG2       51.9240    7.1900   59.6170 C.3   151  VAL151      0.0019
    173  N         57.7450   11.4530   58.2390 N.3   155  LEU155     -0.1245
    174  CA        57.6840   12.4490   57.1750 C.3   155  LEU155      0.1561
    175  C         58.6220   13.6000   57.5040 C.2   155  LEU155      0.2260
    176  O         59.4510   14.0000   56.6840 O.2   155  LEU155     -0.2867
    177  CB        56.2580   12.9790   56.9970 C.3   155  LEU155      0.0270
    178  CG        55.4600   12.4290   55.8110 C.3   155  LEU155      0.0019
    179  CD1       56.2140   12.6500   54.5040 C.3   155  LEU155      0.0001
    180  CD2       55.1460   10.9560   56.0110 C.3   155  LEU155      0.0001
@<TRIPOS>BOND
     1     3     2    1
     2     3     4    2
     3     2     1    1
     4     2     5    1
     5    47    46    2
     6    44    45    1
     7    46    45    1
     8     5     6    1
     9     8    10   ar
    10     8     6   ar
    11    45    48    1
    12    10    11   ar
    13     6     7   ar
    14    48    49    1
    15    48    50    1
    16    55    54    2
    17   101   102    2
    18   101   100    1
    19    23    24    1
    20    23    20    1
    21    52    53    1
    22    11    12    1
    23    11     9   ar
    24     7     9   ar
    25    15    16    2
    26    15    14    1
    27    98    95    1
    28    21    22    2
    29    21    20    1
    30   110   109    1
    31    25    24   ar
    32    25    27   ar
    33    24    26   ar
    34    17    14    1
    35    17    18    1
    36    49    51    1
    37   107   109   ar
    38   107   105   ar
    39    13    14    1
    40   109   108   ar
    41    54    53    1
    42   100    99    1
    43   100   103    1
    44    27    29   ar
    45    97    96    2
    46    20    19    1
    47   105   104   ar
    48    53    56    1
    49   108   106   ar
    50    96    99   am
    51    96    95    1
    52    26    28   ar
    53   104   106   ar
    54   104   103    1
    55    95    94    1
    56    29    28   ar
    57    29    30    1
    58    56    58    1
    59    56    57    1
    60    94    90   am
    61    70    69    1
    62    62    61    2
    63    68    69   ar
    64    68    66   ar
    65    59    60    1
    66    69    67   ar
    67    66    64   ar
    68    33    34    2
    69    33    32    1
    70    90    89    1
    71    90    91    2
    72    31    32    1
    73    61    60    1
    74    43    40    1
    75    67    65   ar
    76    89    92    1
    77    89    88    1
    78    82    81    2
    79    32    35    1
    80    60    63    1
    81    41    42    2
    82    41    40    1
    83    35    36    1
    84    64    65   ar
    85    64    63    1
    86    86    85    2
    87    92    93    1
    88    85    84    1
    89    85    87   am
    90    40    39    1
    91    84    83    1
    92    81    88   am
    93    81    80    1
    94   111   112    1
    95    36    38   am
    96    36    37    2
    97   115   112    1
    98   115   116    1
    99    83    80    1
   100    80    79    1
   101   117   116   ar
   102   117   119   ar
   103   112   113    1
   104    79    73   am
   105   116   118   ar
   106   119   121   ar
   107    78    76   ar
   108   118   120   ar
   109    72    73    1
   110    72    71    1
   111    72    75    1
   112    73    74    2
   113   113   123   am
   114   113   114    2
   115   123   124    1
   116   126   125    2
   117   121   120   ar
   118   121   122    1
   119    76    75    1
   120    76    77   ar
   121   125   124    1
   122   124   127    1
   123   129   127    1
   124   165   163   ar
   125   165   164   ar
   126   179   178    1
   127   127   128    1
   128   163   161   ar
   129   150   149    1
   130   164   162   ar
   131   178   180    1
   132   178   177    1
   133   151   149    1
   134   128   130    1
   135   161   160   ar
   136   161   159   ar
   137   149   146    1
   138   160   158   ar
   139   143   144   ar
   140   143   141   ar
   141   162   159   ar
   142   176   175    2
   143   177   174    1
   144   159   157   ar
   145   174   175    1
   146   174   173    1
   147   144   142   ar
   148   141   138   ar
   149   146   145    1
   150   146   147    1
   151   158   157   ar
   152   171   170    1
   153   157   156    1
   154   142   140   ar
   155   147   148    2
   156   138   140   ar
   157   138   136   ar
   158   140   139   ar
   159   170   172    1
   160   170   167    1
   161   169   168    2
   162   135   136    1
   163   135   132    1
   164   133   132    1
   165   133   134    2
   166   156   153    1
   167   136   137   ar
   168   132   131    1
   169   168   167    1
   170   167   166    1
   171   139   137   ar
   172   153   152    1
   173   153   154    1
   174   154   155    2
