@<TRIPOS>MOLECULE
tmp/3uptA00.pdb
 160 152 0 0 0
SMALL
GASTEIGER

@<TRIPOS>ATOM
      1  N         44.3390   29.2740  -56.8510 N.3    27  HIS27      -0.1241
      2  CA        44.8550   30.5900  -56.5020 C.3    27  HIS27       0.1621
      3  C         46.3160   30.7430  -56.8680 C.2    27  HIS27       0.2264
      4  O         47.2000   30.2460  -56.1370 O.2    27  HIS27      -0.2867
      5  CB        44.6870   30.8120  -55.0060 C.3    27  HIS27       0.0745
      6  CG        43.2690   30.6790  -54.5090 C.ar   27  HIS27       0.0817
      7  ND1       42.6250   29.4770  -54.4200 N.ar   27  HIS27      -0.2268
      8  CD2       42.3830   31.6400  -53.9970 C.ar   27  HIS27       0.1154
      9  CE1       41.3940   29.6740  -53.8960 C.ar   27  HIS27       0.1986
     10  NE2       41.2470   30.9970  -53.6400 N.ar   27  HIS27      -0.2212
     11  N         49.0030   34.3440  -54.7410 N.3    30  MET30      -0.1245
     12  CA        49.8450   34.2720  -53.5360 C.3    30  MET30       0.1570
     13  C         51.1240   33.4570  -53.7880 C.2    30  MET30       0.2261
     14  O         52.2230   33.9320  -53.4840 O.2    30  MET30      -0.2867
     15  CB        49.0480   33.7370  -52.3400 C.3    30  MET30       0.0387
     16  CG        49.8760   33.5030  -51.0950 C.3    30  MET30       0.0595
     17  SD        50.8290   31.9820  -51.2260 S.3    30  MET30      -0.1393
     18  CE        50.4900   31.2590  -49.6140 C.3    30  MET30       0.0692
     19  N         47.7540   31.3000  -44.8110 N.3    65  ASN65      -0.1240
     20  CA        47.0390   31.7700  -45.9930 C.3    65  ASN65       0.1653
     21  C         46.8640   30.5770  -46.9090 C.2    65  ASN65       0.2266
     22  O         47.4660   30.5010  -47.9880 O.2    65  ASN65      -0.2867
     23  CB        47.7300   32.9550  -46.7090 C.3    65  ASN65       0.1155
     24  CG        49.2810   32.8450  -46.7580 C.2    65  ASN65       0.2627
     25  OD1       49.8760   31.8850  -46.2480 O.2    65  ASN65      -0.2716
     26  ND2       49.9320   33.8490  -47.3680 N.am   65  ASN65      -0.0877
     27  N         44.9420   29.2930  -49.0090 N.3    67  HIS67      -0.1241
     28  CA        44.4220   29.2820  -50.3570 C.3    67  HIS67       0.1621
     29  C         45.5710   29.1730  -51.3220 C.2    67  HIS67       0.2264
     30  O         45.4220   28.6190  -52.4330 O.2    67  HIS67      -0.2867
     31  CB        43.5630   30.5120  -50.6350 C.3    67  HIS67       0.0745
     32  CG        44.2520   31.8200  -50.3320 C.ar   67  HIS67       0.0817
     33  ND1       44.2800   32.3610  -49.0830 N.ar   67  HIS67      -0.2268
     34  CD2       44.9740   32.6880  -51.1570 C.ar   67  HIS67       0.1154
     35  CE1       44.9750   33.5130  -49.1180 C.ar   67  HIS67       0.1986
     36  NE2       45.3990   33.7100  -50.3850 N.ar   67  HIS67      -0.2212
     37  N         42.7840   23.3490  -50.5470 N.3   101  HIS101     -0.1241
     38  CA        43.4490   23.8380  -49.3430 C.3   101  HIS101      0.1621
     39  C         44.1410   22.6760  -48.6580 C.2   101  HIS101      0.2264
     40  O         43.6030   21.5670  -48.6370 O.2   101  HIS101     -0.2867
     41  CB        42.4670   24.5400  -48.4000 C.3   101  HIS101      0.0745
     42  CG        41.8150   25.7590  -49.0050 C.ar  101  HIS101      0.0817
     43  ND1       40.7570   25.6760  -49.8580 N.ar  101  HIS101     -0.2268
     44  CD2       42.1260   27.1100  -48.8960 C.ar  101  HIS101      0.1154
     45  CE1       40.4050   26.9020  -50.2620 C.ar  101  HIS101      0.1986
     46  NE2       41.2540   27.7850  -49.6900 N.ar  101  HIS101     -0.2212
     47  N         42.8040   27.0700  -44.7110 N.3   115  GLY115     -0.1210
     48  CA        41.6770   27.4160  -45.5960 C.3   115  GLY115      0.1940
     49  C         40.8130   28.4570  -44.9030 C.2   115  GLY115      0.2454
     50  O         40.5220   29.5370  -45.4710 O.2   115  GLY115     -0.2732
     51  N         40.3920   28.1450  -43.6640 N.am  116  PRO116     -0.2717
     52  CA        39.7110   29.1310  -42.8390 C.3   116  PRO116      0.1535
     53  C         40.7740   30.1110  -42.3310 C.2   116  PRO116      0.2598
     54  O         41.6500   29.7200  -41.5550 O.2   116  PRO116     -0.2715
     55  CB        39.1380   28.2860  -41.6830 C.3   116  PRO116      0.0310
     56  CG        39.2230   26.8600  -42.1270 C.3   116  PRO116      0.0237
     57  CD        40.4450   26.8230  -43.0060 C.3   116  PRO116      0.0939
     58  N         40.7290   31.3620  -42.7990 N.am  117  LEU117     -0.1978
     59  CA        41.7790   32.3470  -42.4880 C.3   117  LEU117      0.1596
     60  C         41.9680   32.5120  -40.9880 C.2   117  LEU117      0.2287
     61  O         41.0140   32.4580  -40.2240 O.2   117  LEU117     -0.2864
     62  CB        41.4770   33.6930  -43.1480 C.3   117  LEU117      0.0297
     63  CG        41.5760   33.6420  -44.7150 C.3   117  LEU117      0.0022
     64  CD1       40.8300   34.7550  -45.4240 C.3   117  LEU117      0.0001
     65  CD2       43.0180   33.5270  -45.2200 C.3   117  LEU117      0.0001
     66  N         48.8010   36.1710  -44.6230 N.3   155  GLY155     -0.1210
     67  CA        48.4870   37.3430  -45.4360 C.3   155  GLY155      0.1956
     68  C         47.5650   38.3570  -44.7730 C.2   155  GLY155      0.2612
     69  O         47.3590   38.3340  -43.5420 O.2   155  GLY155     -0.2717
     70  N         47.0030   39.2510  -45.5820 N.am  156  ASP156     -0.1959
     71  CA        46.0810   40.2570  -45.0710 C.3   156  ASP156      0.1840
     72  C         44.8510   39.6290  -44.4450 C.2   156  ASP156      0.2623
     73  O         44.3900   40.0980  -43.4000 O.2   156  ASP156     -0.2715
     74  CB        45.6910   41.2240  -46.1670 C.3   156  ASP156      0.1450
     75  CG        46.9010   41.9700  -46.7320 C.2   156  ASP156      0.3671
     76  OD1       47.4970   42.7720  -45.9780 O.co2 156  ASP156     -0.2456
     77  OD2       47.2620   41.7470  -47.9180 O.co2 156  ASP156     -0.2456
     78  N         44.3370   38.5610  -45.0450 N.am  157  GLY157     -0.1940
     79  CA        43.1480   37.8820  -44.5120 C.3   157  GLY157      0.2014
     80  C         43.2920   37.4240  -43.0630 C.2   157  GLY157      0.2639
     81  O         42.4350   37.7500  -42.1950 O.2   157  GLY157     -0.2714
     82  N         44.3870   36.6970  -42.7840 N.am  158  CYS158     -0.1967
     83  CA        44.6580   36.2110  -41.4280 C.3   158  CYS158      0.1712
     84  C         44.8040   37.3570  -40.4460 C.2   158  CYS158      0.2296
     85  O         44.3080   37.2760  -39.3290 O.2   158  CYS158     -0.2864
     86  CB        45.8850   35.2970  -41.3860 C.3   158  CYS158      0.0983
     87  SG        45.7460   33.8360  -42.4550 S.3   158  CYS158     -0.0798
     88  N         43.4860   40.4550  -40.6110 N.3   160  MET160     -0.1230
     89  CA        42.1780   41.0490  -40.3460 C.3   160  MET160      0.1702
     90  C         41.3270   40.2160  -39.3760 C.2   160  MET160      0.2592
     91  O         40.6290   40.7900  -38.5250 O.2   160  MET160     -0.2718
     92  CB        41.3920   41.3050  -41.6570 C.3   160  MET160      0.0401
     93  CG        41.8780   42.5230  -42.4280 C.3   160  MET160      0.0596
     94  SD        40.9580   42.8100  -43.9670 S.3   160  MET160     -0.1393
     95  CE        42.0520   42.1270  -45.2200 C.3   160  MET160      0.0692
     96  N         41.3500   38.8900  -39.5210 N.am  161  GLU161     -0.1979
     97  CA        40.5650   38.0010  -38.6240 C.3   161  GLU161      0.1602
     98  C         40.8900   38.2440  -37.1580 C.2   161  GLU161      0.2287
     99  O         42.0550   38.4170  -36.8070 O.2   161  GLU161     -0.2864
    100  CB        40.8070   36.5170  -38.9280 C.3   161  GLU161      0.0415
    101  CG        40.1240   36.0380  -40.1960 C.3   161  GLU161      0.1163
    102  CD        38.6100   35.9960  -40.0800 C.2   161  GLU161      0.3649
    103  OE1       38.0990   36.2480  -38.9560 O.co2 161  GLU161     -0.2457
    104  OE2       37.9270   35.7020  -41.1150 O.co2 161  GLU161     -0.2457
    105  N         53.0480   38.0710  -46.0050 N.3   184  ASP184     -0.1239
    106  CA        52.9310   38.3750  -47.4480 C.3   184  ASP184      0.1674
    107  C         52.1960   39.7120  -47.5890 C.2   184  ASP184      0.2266
    108  O         50.9720   39.7240  -47.7570 O.2   184  ASP184     -0.2867
    109  CB        52.1220   37.2770  -48.1730 C.3   184  ASP184      0.1410
    110  CG        52.1250   37.4450  -49.7230 C.2   184  ASP184      0.3668
    111  OD1       53.0490   38.0840  -50.2600 O.co2 184  ASP184     -0.2456
    112  OD2       51.2280   36.9150  -50.4070 O.co2 184  ASP184     -0.2456
    113  N         51.0660   42.4560  -49.5020 N.3   186  ASN186     -0.1240
    114  CA        50.9210   42.7940  -50.9280 C.3   186  ASN186      0.1653
    115  C         49.8510   43.8540  -51.2770 C.2   186  ASN186      0.2266
    116  O         49.6180   44.1600  -52.4710 O.2   186  ASN186     -0.2867
    117  CB        50.7610   41.5290  -51.7770 C.3   186  ASN186      0.1155
    118  CG        49.4990   40.7430  -51.4330 C.2   186  ASN186      0.2627
    119  OD1       48.5270   41.2960  -50.9090 O.2   186  ASN186     -0.2716
    120  ND2       49.5140   39.4450  -51.7340 N.am  186  ASN186     -0.0877
    121  N         46.6240   43.8760  -51.1350 N.3   188  ILE188     -0.1231
    122  CA        45.4340   43.4660  -51.8690 C.3   188  ILE188      0.1692
    123  C         44.6830   42.3130  -51.1850 C.2   188  ILE188      0.2593
    124  O         45.3070   41.3570  -50.6810 O.2   188  ILE188     -0.2718
    125  CB        45.8180   43.0800  -53.3280 C.3   188  ILE188      0.0266
    126  CG1       46.2130   44.3350  -54.1280 C.3   188  ILE188      0.0019
    127  CG2       44.7090   42.2920  -54.0260 C.3   188  ILE188      0.0020
    128  CD1       46.8610   44.0160  -55.4690 C.3   188  ILE188      0.0001
    129  N         43.3550   42.4070  -51.1500 N.am  189  SER189     -0.1938
    130  CA        42.5450   41.2830  -50.7050 C.3   189  SER189      0.2055
    131  C         41.5010   41.0570  -51.7770 C.2   189  SER189      0.2642
    132  O         41.6100   41.6700  -52.8520 O.2   189  SER189     -0.2714
    133  CB        41.9380   41.5170  -49.3190 C.3   189  SER189      0.2130
    134  OG        41.1000   42.6520  -49.2810 O.3   189  SER189     -0.2179
    135  N         40.5100   40.2000  -51.5340 N.am  190  ILE190     -0.1977
    136  CA        39.5940   39.8830  -52.6200 C.3   190  ILE190      0.1596
    137  C         38.8140   41.0920  -53.1750 C.2   190  ILE190      0.2287
    138  O         38.5770   41.1820  -54.3790 O.2   190  ILE190     -0.2864
    139  CB        38.6190   38.7360  -52.2730 C.3   190  ILE190      0.0276
    140  CG1       39.3920   37.4350  -52.0800 C.3   190  ILE190      0.0022
    141  CG2       37.5690   38.5810  -53.3750 C.3   190  ILE190      0.0022
    142  CD1       38.5150   36.2480  -51.7540 C.3   190  ILE190      0.0001
    143  N         51.3570   40.8180  -55.6570 N.3   247  ILE247     -0.1245
    144  CA        50.5470   39.6170  -55.8820 C.3   247  ILE247      0.1561
    145  C         50.6430   39.1680  -57.3390 C.2   247  ILE247      0.2260
    146  O         50.6420   39.9940  -58.2530 O.2   247  ILE247     -0.2867
    147  CB        49.0740   39.7730  -55.4300 C.3   247  ILE247      0.0252
    148  CG1       48.4240   38.3770  -55.2220 C.3   247  ILE247      0.0019
    149  CG2       48.3160   40.6800  -56.3830 C.3   247  ILE247      0.0019
    150  CD1       47.0030   38.4190  -54.7000 C.3   247  ILE247      0.0001
    151  N         44.1940   36.8790  -57.6110 N.3   261  HIS261     -0.1241
    152  CA        43.9730   36.2170  -56.3280 C.3   261  HIS261      0.1621
    153  C         43.5100   34.7720  -56.4470 C.2   261  HIS261      0.2264
    154  O         44.1190   33.8810  -55.8350 O.2   261  HIS261     -0.2867
    155  CB        42.9890   36.9750  -55.4420 C.3   261  HIS261      0.0745
    156  CG        42.4790   36.1280  -54.3040 C.ar  261  HIS261      0.0817
    157  ND1       43.2540   35.7930  -53.2500 N.ar  261  HIS261     -0.2268
    158  CD2       41.2780   35.4420  -54.1400 C.ar  261  HIS261      0.1154
    159  CE1       42.5700   34.9970  -52.4190 C.ar  261  HIS261      0.1986
    160  NE2       41.3570   34.7760  -52.9630 N.ar  261  HIS261     -0.2212
@<TRIPOS>BOND
     1   146   145    2
     2   151   152    1
     3   145   144    1
     4     3     2    1
     5     3     4    2
     6     1     2    1
     7     2     5    1
     8   153   152    1
     9   153   154    2
    10   149   147    1
    11   152   155    1
    12   144   143    1
    13   144   147    1
    14   128   126    1
    15   155   156    1
    16   147   148    1
    17   148   150    1
    18     5     6    1
    19    11    12    1
    20     6     7   ar
    21     6     8   ar
    22     7     9   ar
    23   138   137    2
    24   156   158   ar
    25   156   157   ar
    26   158   160   ar
    27   126   125    1
    28   127   125    1
    29     8    10   ar
    30     9    10   ar
    31    13    12    1
    32    13    14    2
    33    12    15    1
    34   141   139    1
    35   125   122    1
    36   157   159   ar
    37   137   136    1
    38   160   159   ar
    39   132   131    2
    40   136   139    1
    41   136   135    1
    42   116   115    2
    43    30    29    2
    44    15    16    1
    45   139   140    1
    46   140   142    1
    47   122   123    1
    48   122   121    1
    49   131   135   am
    50   131   130    1
    51   117   118    1
    52   117   114    1
    53   120   118   am
    54   118   119    2
    55    29    28    1
    56   115   114    1
    57    17    16    1
    58    17    18    1
    59   123   129   am
    60   123   124    2
    61    34    36   ar
    62    34    32   ar
    63   129   130    1
    64   114   113    1
    65   130   133    1
    66    31    28    1
    67    31    32    1
    68    37    38    1
    69   112   110   ar
    70    36    35   ar
    71    28    27    1
    72    32    33   ar
    73    45    43   ar
    74    45    46   ar
    75   111   110   ar
    76    43    42   ar
    77   110   109    1
    78    46    44   ar
    79    38    39    1
    80    38    41    1
    81   133   134    1
    82    35    33   ar
    83    42    44   ar
    84    42    41    1
    85    39    40    2
    86   109   106    1
    87    22    21    2
    88    77    75   ar
    89   108   107    2
    90   107   106    1
    91   106   105    1
    92    26    24   am
    93    21    20    1
    94    24    23    1
    95    24    25    2
    96    75    74    1
    97    75    76   ar
    98    23    20    1
    99    74    71    1
   100    20    19    1
   101    48    49    1
   102    48    47    1
   103    70    71    1
   104    70    68   am
   105    50    49    2
   106    67    68    1
   107    67    66    1
   108    64    63    1
   109    95    94    1
   110    65    63    1
   111    71    72    1
   112    78    79    1
   113    78    72   am
   114    49    51   am
   115    68    69    2
   116    63    62    1
   117    79    80    1
   118    72    73    2
   119    94    93    1
   120    51    57    1
   121    51    52    1
   122    62    59    1
   123    80    82   am
   124    80    81    2
   125    57    56    1
   126    52    53    1
   127    52    55    1
   128    58    59    1
   129    58    53   am
   130    82    83    1
   131    59    60    1
   132    87    86    1
   133    93    92    1
   134    53    54    2
   135    56    55    1
   136    92    89    1
   137    83    86    1
   138    83    84    1
   139   104   102   ar
   140    60    61    2
   141    88    89    1
   142    84    85    2
   143    89    90    1
   144   101   102    1
   145   101   100    1
   146   102   103   ar
   147    96    90   am
   148    96    97    1
   149    90    91    2
   150   100    97    1
   151    97    98    1
   152    98    99    2
