@<TRIPOS>MOLECULE
tmp/3upvA00.pdb
 180 169 0 0 0
SMALL
GASTEIGER

@<TRIPOS>ATOM
      1  N          1.8420  -16.9140    0.5010 N.3     8  ARG8       -0.1245
      2  CA         1.8390  -17.7250    1.7450 C.3     8  ARG8        0.1563
      3  C          2.8880  -18.8650    1.6080 C.2     8  ARG8        0.2260
      4  O          3.5710  -19.2110    2.5810 O.2     8  ARG8       -0.2867
      5  CB         0.4410  -18.3230    1.9240 C.3     8  ARG8        0.0307
      6  CG         0.2440  -19.2420    3.1910 C.3     8  ARG8        0.0489
      7  CD        -1.1470  -19.9110    3.2000 C.3     8  ARG8        0.2205
      8  NE        -1.1870  -21.0670    2.2990 N.pl3   8  ARG8       -0.0865
      9  CZ        -0.5740  -22.2270    2.5050 C.cat   8  ARG8        0.5346
     10  NH1       -0.6690  -23.1810    1.5850 N.pl3   8  ARG8        0.1354
     11  NH2        0.0950  -22.4590    3.6220 N.pl3   8  ARG8        0.1354
     12  N          6.2580  -19.4780    3.7710 N.3    12  LYS12      -0.1245
     13  CA         6.4790  -20.7140    4.4720 C.3    12  LYS12       0.1561
     14  C          7.8280  -21.2550    4.1240 C.2    12  LYS12       0.2260
     15  O          8.5570  -21.6540    5.0190 O.2    12  LYS12      -0.2867
     16  CB         5.3890  -21.7320    4.1620 C.3    12  LYS12       0.0271
     17  CG         5.7470  -23.1490    4.7220 C.3    12  LYS12       0.0035
     18  CD         4.4920  -24.0380    4.9820 C.3    12  LYS12       0.0206
     19  CE         3.6830  -24.4040    3.7020 C.3    12  LYS12       0.1093
     20  NZ         4.3390  -24.6830    2.3280 N.3    12  LYS12      -0.1314
     21  N         10.4600  -19.0730    5.8790 N.3    15  PHE15      -0.1227
     22  CA        10.4000  -19.2370    7.3280 C.3    15  PHE15       0.1736
     23  C         11.1290  -20.5600    7.6850 C.2    15  PHE15       0.2596
     24  O         11.9640  -20.6580    8.6350 O.2    15  PHE15      -0.2718
     25  CB         8.9310  -19.2020    7.8050 C.3    15  PHE15       0.0547
     26  CG         8.7930  -19.1580    9.2910 C.ar   15  PHE15      -0.0202
     27  CD1        8.7440  -17.9300    9.9230 C.ar   15  PHE15      -0.0042
     28  CD2        8.7790  -20.3300   10.0450 C.ar   15  PHE15      -0.0042
     29  CE1        8.6520  -17.8310   11.3080 C.ar   15  PHE15      -0.0003
     30  CE2        8.6740  -20.2650   11.4850 C.ar   15  PHE15      -0.0003
     31  CZ         8.6420  -19.0380   12.1120 C.ar   15  PHE15      -0.0000
     32  N         10.8650  -21.5610    6.8530 N.am   16  THR16      -0.1953
     33  CA        11.3760  -22.8920    7.0520 C.3    16  THR16       0.1897
     34  C         12.8890  -22.8540    7.0020 C.2    16  THR16       0.2313
     35  O         13.5590  -23.5970    7.7340 O.2    16  THR16      -0.2863
     36  CB        10.7560  -23.8250    6.0120 C.3    16  THR16       0.1794
     37  OG1        9.3600  -23.9730    6.3100 O.3    16  THR16      -0.2208
     38  CG2       11.3810  -25.1680    6.0590 C.3    16  THR16       0.0378
     39  N         14.1810  -14.8890    8.0740 N.3    20  TRP20      -0.1241
     40  CA        13.0670  -14.1180    8.6300 C.3    20  TRP20       0.1605
     41  C         12.7120  -12.8820    7.8190 C.2    20  TRP20       0.2264
     42  O         11.4990  -12.5680    7.6600 O.2    20  TRP20      -0.2867
     43  CB        13.3500  -13.7230   10.0640 C.3    20  TRP20       0.0550
     44  CG        13.9740  -14.8150   10.8570 C.ar   20  TRP20       0.0003
     45  CD1       15.1550  -14.7490   11.5660 C.ar   20  TRP20       0.0946
     46  CD2       13.4740  -16.1530   11.0360 C.ar   20  TRP20       0.0152
     47  NE1       15.4100  -15.9470   12.1690 N.ar   20  TRP20      -0.2442
     48  CE2       14.4160  -16.8420   11.8570 C.ar   20  TRP20       0.0810
     49  CE3       12.3260  -16.8390   10.5940 C.ar   20  TRP20       0.0012
     50  CZ2       14.2160  -18.1870   12.2780 C.ar   20  TRP20       0.0191
     51  CZ3       12.1420  -18.1740   10.9760 C.ar   20  TRP20       0.0001
     52  CH2       13.1000  -18.8570   11.8000 C.ar   20  TRP20       0.0015
     53  N          4.9390  -12.2960    3.7510 N.3    27  TYR27      -0.1241
     54  CA         3.6860  -12.2110    4.4800 C.3    27  TYR27       0.1605
     55  C          3.0560  -10.8300    4.3420 C.2    27  TYR27       0.2264
     56  O          1.8470  -10.6850    4.3760 O.2    27  TYR27      -0.2867
     57  CB         3.8390  -12.6550    5.9460 C.3    27  TYR27       0.0534
     58  CG         4.1940  -14.1280    6.0400 C.ar   27  TYR27      -0.0201
     59  CD1        3.4490  -15.0850    5.3060 C.ar   27  TYR27      -0.0009
     60  CD2        5.2400  -14.5880    6.8550 C.ar   27  TYR27      -0.0009
     61  CE1        3.7250  -16.4560    5.3710 C.ar   27  TYR27       0.0417
     62  CE2        5.4950  -16.0170    6.9440 C.ar   27  TYR27       0.0417
     63  CZ         4.7540  -16.9090    6.2210 C.ar   27  TYR27       0.1957
     64  OH         5.0400  -18.2510    6.3750 O.3    27  TYR27      -0.2866
     65  N         -4.3160  -15.4960    8.5780 N.3    39  ARG39      -0.1245
     66  CA        -3.0570  -16.2370    8.5680 C.3    39  ARG39       0.1563
     67  C         -1.9060  -15.3130    8.2040 C.2    39  ARG39       0.2260
     68  O         -0.7820  -15.5170    8.6840 O.2    39  ARG39      -0.2867
     69  CB        -3.0730  -17.4010    7.5810 C.3    39  ARG39       0.0307
     70  CG        -4.1230  -18.4480    7.9210 C.3    39  ARG39       0.0489
     71  CD        -4.1970  -19.5510    6.8740 C.3    39  ARG39       0.2205
     72  NE        -4.5940  -18.9680    5.5860 N.pl3  39  ARG39      -0.0865
     73  CZ        -4.5940  -19.6260    4.4290 C.cat  39  ARG39       0.5346
     74  NH1       -4.2440  -20.9290    4.3890 N.pl3  39  ARG39       0.1354
     75  NH2       -4.9970  -19.0020    3.3160 N.pl3  39  ARG39       0.1354
     76  N         -0.8240  -13.4060   11.4020 N.3    42  SER42      -0.1202
     77  CA        -0.2070  -14.3250   12.3480 C.3    42  SER42       0.2020
     78  C          1.1530  -14.7440   11.8060 C.2    42  SER42       0.2618
     79  O          2.1250  -14.8280   12.5680 O.2    42  SER42      -0.2717
     80  CB        -1.1020  -15.5400   12.6020 C.3    42  SER42       0.2103
     81  OG        -0.3750  -16.5260   13.3330 O.3    42  SER42      -0.2182
     82  N          1.2250  -15.0320   10.4840 N.am   43  ASN43      -0.1974
     83  CA         2.4580  -15.5210    9.8940 C.3    43  ASN43       0.1688
     84  C          3.5130  -14.4130    9.9080 C.2    43  ASN43       0.2292
     85  O          4.6640  -14.6430   10.3280 O.2    43  ASN43      -0.2864
     86  CB         2.2460  -16.0280    8.4590 C.3    43  ASN43       0.1181
     87  CG         1.4970  -17.3780    8.3770 C.2    43  ASN43       0.2629
     88  OD1        1.3390  -18.1460    9.3470 O.2    43  ASN43      -0.2716
     89  ND2        1.0660  -17.6770    7.1570 N.am   43  ASN43      -0.0877
     90  N          4.9470  -14.1770   13.2510 N.3    46  ALA46      -0.1245
     91  CA         5.8950  -15.2680   13.6020 C.3    46  ALA46       0.1562
     92  C          7.2880  -14.8650   13.1810 C.2    46  ALA46       0.2260
     93  O          8.2930  -15.1300   13.8970 O.2    46  ALA46      -0.2867
     94  CB         5.4660  -16.5920   12.9260 C.3    46  ALA46       0.0290
     95  N          8.6590  -11.8920   15.2460 N.3    49  ALA49      -0.1231
     96  CA         9.0290  -12.3480   16.5940 C.3    49  ALA49       0.1694
     97  C         10.4430  -12.9810   16.5290 C.2    49  ALA49       0.2591
     98  O         11.2830  -12.7500   17.4040 O.2    49  ALA49      -0.2718
     99  CB         7.9840  -13.3990   17.0800 C.3    49  ALA49       0.0304
    100  N         10.7460  -13.6920   15.4360 N.am   50  LYS50      -0.1980
    101  CA        12.0670  -14.3190   15.3320 C.3    50  LYS50       0.1596
    102  C         13.1120  -13.2440   15.2180 C.2    50  LYS50       0.2287
    103  O         14.2970  -13.4480   15.5790 O.2    50  LYS50      -0.2864
    104  CB        12.1910  -15.2510   14.1150 C.3    50  LYS50       0.0298
    105  CG        11.4180  -16.5730   14.2750 C.3    50  LYS50       0.0038
    106  CD        12.2270  -17.5060   15.2250 C.3    50  LYS50       0.0206
    107  CE        11.5980  -18.8900   15.2660 C.3    50  LYS50       0.1093
    108  NZ        12.3170  -19.9110   16.1090 N.3    50  LYS50      -0.1314
    109  N         -8.9830  -18.4080   15.3920 N.3    71  PHE71      -0.1241
    110  CA        -7.6030  -18.7020   15.0690 C.3    71  PHE71       0.1605
    111  C         -6.7780  -18.7720   16.3760 C.2    71  PHE71       0.2264
    112  O         -6.1470  -17.7750   16.8130 O.2    71  PHE71      -0.2867
    113  CB        -7.1270  -17.5810   14.1390 C.3    71  PHE71       0.0534
    114  CG        -5.8250  -17.8260   13.4640 C.ar   71  PHE71      -0.0203
    115  CD1       -5.2610  -19.1150   13.3580 C.ar   71  PHE71      -0.0042
    116  CD2       -5.1620  -16.7520   12.9110 C.ar   71  PHE71      -0.0042
    117  CE1       -4.0190  -19.2730   12.7220 C.ar   71  PHE71      -0.0003
    118  CE2       -3.9520  -16.9140   12.2550 C.ar   71  PHE71      -0.0003
    119  CZ        -3.3800  -18.1730   12.1660 C.ar   71  PHE71      -0.0000
    120  N         -3.9460  -20.0370   17.1500 N.3    73  ARG73      -0.1245
    121  CA        -2.4870  -19.8080   17.0530 C.3    73  ARG73       0.1563
    122  C         -2.1520  -18.3670   17.3040 C.2    73  ARG73       0.2260
    123  O         -1.1300  -18.0500   17.8970 O.2    73  ARG73      -0.2867
    124  CB        -1.9780  -20.1960   15.6830 C.3    73  ARG73       0.0307
    125  CG        -0.4490  -20.0670   15.6240 C.3    73  ARG73       0.0489
    126  CD         0.1110  -21.4890   15.3770 C.3    73  ARG73       0.2205
    127  NE        -0.0010  -21.8980   13.9940 N.pl3  73  ARG73      -0.0865
    128  CZ         0.1650  -23.1550   13.5300 C.cat  73  ARG73       0.5346
    129  NH1        0.4090  -24.1650   14.3480 N.pl3  73  ARG73       0.1354
    130  NH2        0.0740  -23.4060   12.2250 N.pl3  73  ARG73       0.1354
    131  N         -1.9590  -17.7800   20.9930 N.3    76  ILE76      -0.1231
    132  CA        -0.7930  -18.3490   21.6010 C.3    76  ILE76       0.1692
    133  C          0.4550  -17.5290   21.2230 C.2    76  ILE76       0.2591
    134  O          1.2990  -17.1260   22.0720 O.2    76  ILE76      -0.2718
    135  CB        -0.6000  -19.8030   21.2400 C.3    76  ILE76       0.0266
    136  CG1       -1.7650  -20.6020   21.8010 C.3    76  ILE76       0.0019
    137  CG2        0.7800  -20.2720   21.7990 C.3    76  ILE76       0.0020
    138  CD1       -1.8320  -22.0110   21.2910 C.3    76  ILE76       0.0001
    139  N          0.5170  -17.1580   19.9410 N.am   77  ARG77      -0.1980
    140  CA         1.6170  -16.2970   19.4920 C.3    77  ARG77       0.1597
    141  C          1.7100  -14.9710   20.2300 C.2    77  ARG77       0.2287
    142  O          2.8080  -14.4770   20.6040 O.2    77  ARG77      -0.2864
    143  CB         1.4320  -16.0620   18.0080 C.3    77  ARG77       0.0334
    144  CG         2.7060  -15.7480   17.4340 C.3    77  ARG77       0.0492
    145  CD         2.7060  -15.5290   15.9090 C.3    77  ARG77       0.2205
    146  NE         2.2180  -16.6520   15.0890 N.pl3  77  ARG77      -0.0865
    147  CZ         2.9390  -17.7500   14.8550 C.cat  77  ARG77       0.5346
    148  NH1        2.4820  -18.7500   14.0670 N.pl3  77  ARG77       0.1354
    149  NH2        4.1440  -17.8320   15.4060 N.pl3  77  ARG77       0.1354
    150  N          3.0050  -15.3780   23.7410 N.3    80  THR80      -0.1218
    151  CA         4.4670  -15.6490   23.7210 C.3    80  THR80       0.1862
    152  C          5.2230  -14.2970   23.5520 C.2    80  THR80       0.2287
    153  O          6.2050  -14.0550   24.2380 O.2    80  THR80      -0.2866
    154  CB         4.9230  -16.6800   22.6690 C.3    80  THR80       0.1770
    155  OG1        4.7260  -16.1730   21.3540 O.3    80  THR80      -0.2211
    156  CG2        4.1720  -17.9790   22.7890 C.3    80  THR80       0.0375
    157  N         -3.7860  -27.8820   21.7870 N.3   110  SER110     -0.1217
    158  CA        -2.6590  -27.0380   22.2020 C.3   110  SER110      0.1889
    159  C         -2.5670  -26.7870   23.6930 C.2   110  SER110      0.2288
    160  O         -1.8450  -25.8650   24.1230 O.2   110  SER110     -0.2866
    161  CB        -2.7000  -25.7150   21.4420 C.3   110  SER110      0.2089
    162  OG        -2.1760  -25.9200   20.1340 O.3   110  SER110     -0.2183
    163  N          0.9300  -26.6390   25.4010 N.3   113  GLU113     -0.1245
    164  CA         1.7360  -25.4610   25.1320 C.3   113  GLU113      0.1567
    165  C          1.1960  -24.2620   25.9200 C.2   113  GLU113      0.2260
    166  O          1.9480  -23.5130   26.5600 O.2   113  GLU113     -0.2867
    167  CB         1.7520  -25.1500   23.6460 C.3   113  GLU113      0.0388
    168  CG         2.5000  -23.7890   23.3970 C.3   113  GLU113      0.1160
    169  CD         2.7400  -23.4130   21.9410 C.2   113  GLU113      0.3649
    170  OE1        3.6630  -22.5370   21.7190 O.co2 113  GLU113     -0.2457
    171  OE2        2.0240  -23.9430   21.0710 O.co2 113  GLU113     -0.2457
    172  N          2.1410  -24.4200   29.6680 N.3   116  GLN116     -0.1245
    173  CA         3.5170  -24.0980   30.0260 C.3   116  GLN116      0.1566
    174  C          3.8390  -22.6020   29.8540 C.2   116  GLN116      0.2260
    175  O          4.6550  -22.0590   30.6170 O.2   116  GLN116     -0.2867
    176  CB         4.5440  -25.0080   29.3520 C.3   116  GLN116      0.0367
    177  CG         4.6200  -24.9060   27.8220 C.3   116  GLN116      0.0905
    178  CD         5.6450  -23.9250   27.3440 C.2   116  GLN116      0.2608
    179  OE1        6.6120  -23.6500   28.0150 O.2   116  GLN116     -0.2717
    180  NE2        5.4420  -23.3940   26.1430 N.am  116  GLN116     -0.0878
@<TRIPOS>BOND
     1     1     2    1
     2    10     9    1
     3     3     2    1
     4     3     4    2
     5     2     5    1
     6     5     6    1
     7     8     9    2
     8     8     7    1
     9    20    19    1
    10     9    11    1
    11     6     7    1
    12    75    73    1
    13    19    18    1
    14    53    54    1
    15    12    13    1
    16    14    13    1
    17    14    15    2
    18    16    13    1
    19    16    17    1
    20    55    56    2
    21    55    54    1
    22    74    73    1
    23    73    72    2
    24    54    57    1
    25    17    18    1
    26    59    61   ar
    27    59    58   ar
    28    61    63   ar
    29    72    71    1
    30    21    22    1
    31    57    58    1
    32    36    38    1
    33    36    37    1
    34    36    33    1
    35    58    60   ar
    36    63    64    1
    37    63    62   ar
    38    32    33    1
    39    32    23   am
    40    60    62   ar
    41    71    70    1
    42    34    33    1
    43    34    35    2
    44    89    87   am
    45    22    23    1
    46    22    25    1
    47    69    70    1
    48    69    66    1
    49    42    41    2
    50    23    24    2
    51    25    26    1
    52    41    40    1
    53    39    40    1
    54    67    66    1
    55    67    68    2
    56    87    86    1
    57    87    88    2
    58    86    83    1
    59    66    65    1
    60    40    43    1
    61    26    27   ar
    62    26    28   ar
    63    83    84    1
    64    83    82    1
    65    84    85    2
    66    27    29   ar
    67    28    30   ar
    68    43    44    1
    69    82    78   am
    70    49    51   ar
    71    49    46   ar
    72    44    46   ar
    73    44    45   ar
    74    51    52   ar
    75    46    48   ar
    76    29    31   ar
    77    76    77    1
    78    30    31   ar
    79    45    47   ar
    80    52    50   ar
    81    78    77    1
    82    78    79    2
    83    48    47   ar
    84    48    50   ar
    85   119   118   ar
    86   119   117   ar
    87   130   128    1
    88   118   116   ar
    89    77    80    1
    90    80    81    1
    91   117   115   ar
    92   116   114   ar
    93    94    91    1
    94    92    91    1
    95    92    93    2
    96    90    91    1
    97   115   114   ar
    98   114   113    1
    99   128   127    2
   100   128   129    1
   101   127   126    1
   102   148   147    1
   103   104   105    1
   104   104   101    1
   105   113   110    1
   106   105   106    1
   107   147   146    2
   108   147   149    1
   109   110   109    1
   110   110   111    1
   111   146   145    1
   112   102   101    1
   113   102   103    2
   114   106   107    1
   115    95    96    1
   116   107   108    1
   117   101   100    1
   118   126   125    1
   119   100    97   am
   120   125   124    1
   121   124   121    1
   122   145   144    1
   123   111   112    2
   124    97    96    1
   125    97    98    2
   126    96    99    1
   127   121   120    1
   128   121   122    1
   129   122   123    2
   130   144   143    1
   131   143   140    1
   132   140   139    1
   133   140   141    1
   134   139   133   am
   135   162   161    1
   136   141   142    2
   137   131   132    1
   138   171   169   ar
   139   133   132    1
   140   133   134    2
   141   135   132    1
   142   135   137    1
   143   135   136    1
   144   138   136    1
   145   155   154    1
   146   161   158    1
   147   170   169   ar
   148   157   158    1
   149   169   168    1
   150   158   159    1
   151   154   156    1
   152   154   151    1
   153   168   167    1
   154   152   151    1
   155   152   153    2
   156   167   164    1
   157   159   160    2
   158   151   150    1
   159   164   163    1
   160   164   165    1
   161   165   166    2
   162   180   178   am
   163   178   177    1
   164   178   179    2
   165   177   176    1
   166   176   173    1
   167   172   173    1
   168   174   173    1
   169   174   175    2
