@<TRIPOS>MOLECULE
tmp/3upwA03.pdb
 119 113 0 0 0
SMALL
GASTEIGER

@<TRIPOS>ATOM
      1  N         32.5110  -25.2070    2.4360 N.3    34  THR34      -0.1218
      2  CA        32.8760  -26.2400    1.4660 C.3    34  THR34       0.1862
      3  C         31.7070  -26.5510    0.5190 C.2    34  THR34       0.2287
      4  O         30.5950  -26.8320    0.9830 O.2    34  THR34      -0.2866
      5  CB        33.3010  -27.5140    2.2260 C.3    34  THR34       0.1770
      6  OG1       34.5630  -27.2760    2.8760 O.3    34  THR34      -0.2211
      7  CG2       33.4220  -28.7220    1.2860 C.3    34  THR34       0.0375
      8  N         37.2380  -24.4200    2.8030 N.3    67  ALA67      -0.1245
      9  CA        38.4870  -25.0100    3.2480 C.3    67  ALA67       0.1562
     10  C         39.2900  -25.3810    2.0130 C.2    67  ALA67       0.2260
     11  O         38.7630  -25.9360    1.0520 O.2    67  ALA67      -0.2867
     12  CB        38.2210  -26.2370    4.0950 C.3    67  ALA67       0.0290
     13  N         39.2730  -35.7890    0.2900 N.3    77  TYR77      -0.1241
     14  CA        37.8480  -35.7880   -0.0360 C.3    77  TYR77       0.1605
     15  C         37.6420  -36.4790   -1.3770 C.2    77  TYR77       0.2264
     16  O         38.5030  -36.3940   -2.2580 O.2    77  TYR77      -0.2867
     17  CB        37.3430  -34.3620   -0.1820 C.3    77  TYR77       0.0534
     18  CG        37.0090  -33.6490    1.1010 C.ar   77  TYR77      -0.0201
     19  CD1       36.3010  -34.2810    2.1110 C.ar   77  TYR77      -0.0009
     20  CD2       37.3880  -32.3300    1.2890 C.ar   77  TYR77      -0.0009
     21  CE1       35.9790  -33.6110    3.2830 C.ar   77  TYR77       0.0417
     22  CE2       37.0780  -31.6580    2.4550 C.ar   77  TYR77       0.0417
     23  CZ        36.3740  -32.3060    3.4460 C.ar   77  TYR77       0.1957
     24  OH        36.0600  -31.6340    4.5950 O.3    77  TYR77      -0.2866
     25  N         40.8510  -20.1370    3.9700 N.3   110  GLN110     -0.1245
     26  CA        40.9670  -21.1000    5.0600 C.3   110  GLN110      0.1566
     27  C         41.8020  -22.3040    4.6450 C.2   110  GLN110      0.2260
     28  O         41.4440  -23.0270    3.7170 O.2   110  GLN110     -0.2867
     29  CB        39.5970  -21.5760    5.5390 C.3   110  GLN110      0.0367
     30  CG        39.7230  -22.3350    6.8500 C.3   110  GLN110      0.0905
     31  CD        38.4550  -23.0350    7.2320 C.2   110  GLN110      0.2608
     32  OE1       37.8920  -23.7910    6.4340 O.2   110  GLN110     -0.2717
     33  NE2       37.9930  -22.8020    8.4630 N.am  110  GLN110     -0.0878
     34  N         43.1340  -25.9080    5.1970 N.3   112  ILE112     -0.1245
     35  CA        42.7330  -27.1320    5.8940 C.3   112  ILE112      0.1561
     36  C         43.7240  -28.2560    5.6390 C.2   112  ILE112      0.2260
     37  O         44.4760  -28.2360    4.6570 O.2   112  ILE112     -0.2867
     38  CB        41.3140  -27.5880    5.4840 C.3   112  ILE112      0.0252
     39  CG1       40.7270  -28.5390    6.5340 C.3   112  ILE112      0.0019
     40  CG2       41.3380  -28.2490    4.0940 C.3   112  ILE112      0.0019
     41  CD1       39.2860  -28.9590    6.2270 C.3   112  ILE112      0.0001
     42  N         42.7310  -23.6540    9.9510 N.3   187  HIS187     -0.1241
     43  CA        41.5370  -24.4170   10.3240 C.3   187  HIS187      0.1621
     44  C         41.8800  -25.3130   11.5110 C.2   187  HIS187      0.2264
     45  O         42.4970  -26.3670   11.3400 O.2   187  HIS187     -0.2867
     46  CB        41.0680  -25.2780    9.1430 C.3   187  HIS187      0.0745
     47  CG        39.6850  -25.8440    9.3090 C.ar  187  HIS187      0.0817
     48  ND1       39.1730  -26.2080   10.5270 N.ar  187  HIS187     -0.2268
     49  CD2       38.7260  -26.1210    8.3870 C.ar  187  HIS187      0.1154
     50  CE1       37.9380  -26.6750   10.3620 C.ar  187  HIS187      0.1986
     51  NE2       37.6520  -26.6380    9.0780 N.ar  187  HIS187     -0.2212
     52  N         36.4350  -28.4610   14.0850 N.3   190  HIS190     -0.1241
     53  CA        35.6430  -29.5090   13.4370 C.3   190  HIS190      0.1621
     54  C         36.3340  -30.8630   13.2810 C.2   190  HIS190      0.2264
     55  O         35.9460  -31.6780   12.4360 O.2   190  HIS190     -0.2867
     56  CB        35.1050  -28.9950   12.0880 C.3   190  HIS190      0.0745
     57  CG        34.2140  -27.7880   12.2100 C.ar  190  HIS190      0.0817
     58  ND1       34.0720  -26.8650   11.1940 N.ar  190  HIS190     -0.2268
     59  CD2       33.4250  -27.3550   13.2220 C.ar  190  HIS190      0.1154
     60  CE1       33.2340  -25.9170   11.5740 C.ar  190  HIS190      0.1986
     61  NE2       32.8250  -26.1860   12.8030 N.ar  190  HIS190     -0.2212
     62  N         39.3350  -31.6970   12.2760 N.3   192  TYR192     -0.1241
     63  CA        40.3690  -31.8810   11.2520 C.3   192  TYR192      0.1605
     64  C         41.7680  -31.8450   11.9000 C.2   192  TYR192      0.2264
     65  O         41.8690  -31.9080   13.1200 O.2   192  TYR192     -0.2867
     66  CB        40.2000  -30.8630   10.1210 C.3   192  TYR192      0.0534
     67  CG        38.8940  -31.0630    9.3540 C.ar  192  TYR192     -0.0201
     68  CD1       38.7830  -32.0420    8.3730 C.ar  192  TYR192     -0.0009
     69  CD2       37.7720  -30.2910    9.6290 C.ar  192  TYR192     -0.0009
     70  CE1       37.5840  -32.2330    7.6660 C.ar  192  TYR192      0.0417
     71  CE2       36.5750  -30.4830    8.9400 C.ar  192  TYR192      0.0417
     72  CZ        36.4920  -31.4520    7.9600 C.ar  192  TYR192      0.1957
     73  OH        35.3100  -31.6290    7.2580 O.3   192  TYR192     -0.2866
     74  N         40.4740  -20.5640   13.1750 N.3   239  ARG239     -0.1245
     75  CA        39.1210  -20.9340   13.5540 C.3   239  ARG239      0.1563
     76  C         39.1340  -22.0990   14.5240 C.2   239  ARG239      0.2260
     77  O         39.8700  -23.0650   14.3320 O.2   239  ARG239     -0.2867
     78  CB        38.2770  -21.3150   12.3300 C.3   239  ARG239      0.0307
     79  CG        36.7830  -21.4330   12.6840 C.3   239  ARG239      0.0489
     80  CD        35.8860  -21.6870   11.4750 C.3   239  ARG239      0.2205
     81  NE        34.5940  -21.0250   11.6670 N.pl3 239  ARG239     -0.0865
     82  CZ        33.4900  -21.3050   10.9870 C.cat 239  ARG239      0.5346
     83  NH1       33.4960  -22.2770   10.0820 N.pl3 239  ARG239      0.1354
     84  NH2       32.3730  -20.6140   11.2290 N.pl3 239  ARG239      0.1354
     85  N         31.6470  -32.7280   16.0210 N.3   246  PHE246     -0.1241
     86  CA        31.7500  -33.1090   14.6130 C.3   246  PHE246      0.1605
     87  C         32.9570  -34.0290   14.4120 C.2   246  PHE246      0.2264
     88  O         34.0040  -33.8330   15.0260 O.2   246  PHE246     -0.2867
     89  CB        31.8820  -31.8310   13.7670 C.3   246  PHE246      0.0534
     90  CG        31.7110  -32.0390   12.2820 C.ar  246  PHE246     -0.0203
     91  CD1       30.4610  -32.3350   11.7360 C.ar  246  PHE246     -0.0042
     92  CD2       32.7900  -31.8890   11.4250 C.ar  246  PHE246     -0.0042
     93  CE1       30.3060  -32.5000   10.3580 C.ar  246  PHE246     -0.0003
     94  CE2       32.6390  -32.0490   10.0500 C.ar  246  PHE246     -0.0003
     95  CZ        31.3990  -32.3580    9.5180 C.ar  246  PHE246     -0.0000
     96  N         29.9390  -28.3270   13.4600 N.3   291  GLY291     -0.1210
     97  CA        30.2620  -28.6410   12.0760 C.3   291  GLY291      0.1956
     98  C         29.1340  -28.1490   11.1750 C.2   291  GLY291      0.2611
     99  O         28.9550  -26.9410   11.0060 O.2   291  GLY291     -0.2717
    100  N         28.3700  -29.0770   10.6030 N.am  292  ASN292     -0.1974
    101  CA        27.2000  -28.7100    9.8020 C.3   292  ASN292      0.1688
    102  C         25.8860  -29.1470   10.4580 C.2   292  ASN292      0.2292
    103  O         24.8440  -29.2400    9.7920 O.2   292  ASN292     -0.2864
    104  CB        27.3070  -29.2910    8.3850 C.3   292  ASN292      0.1181
    105  CG        27.4690  -30.8030    8.3820 C.2   292  ASN292      0.2629
    106  OD1       27.2840  -31.4610    9.4130 O.2   292  ASN292     -0.2716
    107  ND2       27.8160  -31.3660    7.2230 N.am  292  ASN292     -0.0877
    108  N         26.6160  -30.0180   -1.4870 N.3   373  TYR373     -0.1241
    109  CA        27.8580  -30.7390   -1.7750 C.3   373  TYR373      0.1605
    110  C         27.9010  -31.4540   -3.1250 C.2   373  TYR373      0.2264
    111  O         28.7730  -32.3010   -3.3500 O.2   373  TYR373     -0.2867
    112  CB        28.1410  -31.7710   -0.6810 C.3   373  TYR373      0.0534
    113  CG        28.0390  -31.2340    0.7260 C.ar  373  TYR373     -0.0201
    114  CD1       29.0240  -30.4020    1.2510 C.ar  373  TYR373     -0.0009
    115  CD2       26.9650  -31.5710    1.5390 C.ar  373  TYR373     -0.0009
    116  CE1       28.9340  -29.9260    2.5430 C.ar  373  TYR373      0.0417
    117  CE2       26.8690  -31.0920    2.8340 C.ar  373  TYR373      0.0417
    118  CZ        27.8560  -30.2750    3.3320 C.ar  373  TYR373      0.1957
    119  OH        27.7520  -29.7930    4.6280 O.3   373  TYR373     -0.2866
@<TRIPOS>BOND
     1   111   110    2
     2   110   109    1
     3    16    15    2
     4   109   108    1
     5   109   112    1
     6    15    14    1
     7   112   113    1
     8    17    14    1
     9    17    18    1
    10    14    13    1
    11     3     4    2
    12     3     2    1
    13   113   114   ar
    14   113   115   ar
    15    11    10    2
    16    18    20   ar
    17    18    19   ar
    18   114   116   ar
    19     7     5    1
    20    20    22   ar
    21     2     5    1
    22     2     1    1
    23   115   117   ar
    24    10     9    1
    25    19    21   ar
    26     5     6    1
    27    22    23   ar
    28   116   118   ar
    29     8     9    1
    30   117   118   ar
    31     9    12    1
    32    21    23   ar
    33   118   119    1
    34    23    24    1
    35    28    27    2
    36    25    26    1
    37    40    38    1
    38    27    26    1
    39    37    36    2
    40    26    29    1
    41    34    35    1
    42    38    35    1
    43    38    39    1
    44    29    30    1
    45    36    35    1
    46    41    39    1
    47    32    31    2
    48    30    31    1
    49   107   105   am
    50    31    33   am
    51    73    72    1
    52    70    72   ar
    53    70    68   ar
    54    72    71   ar
    55    68    67   ar
    56   105   104    1
    57   105   106    2
    58   104   101    1
    59    49    51   ar
    60    49    47   ar
    61    71    69   ar
    62    51    50   ar
    63    46    47    1
    64    46    43    1
    65    47    48   ar
    66    67    69   ar
    67    67    66    1
    68    95    94   ar
    69    95    93   ar
    70   103   102    2
    71   101   102    1
    72   101   100    1
    73    42    43    1
    74    94    92   ar
    75    83    82    1
    76    66    63    1
    77    43    44    1
    78    93    91   ar
    79    50    48   ar
    80   100    98   am
    81    82    84    1
    82    82    81    2
    83    99    98    2
    84    98    97    1
    85    58    60   ar
    86    58    57   ar
    87    63    64    1
    88    63    62    1
    89    45    44    2
    90    92    90   ar
    91    80    81    1
    92    80    79    1
    93    60    61   ar
    94    91    90   ar
    95    64    65    2
    96    97    96    1
    97    56    57    1
    98    56    53    1
    99    57    59   ar
   100    90    89    1
   101    78    79    1
   102    78    75    1
   103    55    54    2
   104    61    59   ar
   105    74    75    1
   106    54    53    1
   107    53    52    1
   108    75    76    1
   109    89    86    1
   110    77    76    2
   111    87    86    1
   112    87    88    2
   113    86    85    1
