@<TRIPOS>MOLECULE
tmp/3upxA00.pdb
 156 144 0 0 0
SMALL
GASTEIGER

@<TRIPOS>ATOM
      1  N         31.0000   16.6410   35.4590 N.3    14  LEU14      -0.1231
      2  CA        31.0480   16.1890   34.0660 C.3    14  LEU14       0.1693
      3  C         30.9010   17.3470   33.0720 C.2    14  LEU14       0.2593
      4  O         31.5480   17.3680   32.0310 O.2    14  LEU14      -0.2718
      5  CB        29.9460   15.1510   33.8210 C.3    14  LEU14       0.0284
      6  CG        30.1080   13.8200   34.5540 C.3    14  LEU14       0.0019
      7  CD1       28.8200   13.0240   34.5120 C.3    14  LEU14       0.0001
      8  CD2       31.2590   13.0040   33.9740 C.3    14  LEU14       0.0001
      9  N         30.0330   18.2970   33.3920 N.am   15  GLY15      -0.1942
     10  CA        29.7970   19.4410   32.5250 C.3    15  GLY15       0.2014
     11  C         28.5380   20.1780   32.9240 C.2    15  GLY15       0.2639
     12  O         27.8980   19.8420   33.9190 O.2    15  GLY15      -0.2714
     13  N         28.1950   21.1950   32.1450 N.am   16  LYS16      -0.1963
     14  CA        27.0110   22.0040   32.3830 C.3    16  LYS16       0.1728
     15  C         26.0790   21.8310   31.1960 C.2    16  LYS16       0.2616
     16  O         26.3150   22.3850   30.1270 O.2    16  LYS16      -0.2715
     17  CB        27.3960   23.4730   32.5540 C.3    16  LYS16       0.0311
     18  CG        26.2320   24.4560   32.6120 C.3    16  LYS16       0.0038
     19  CD        25.5060   24.4230   33.9500 C.3    16  LYS16       0.0206
     20  CE        24.4090   25.4800   34.0170 C.3    16  LYS16       0.1093
     21  NZ        23.3180   25.2400   33.0310 N.3    16  LYS16      -0.1314
     22  N         25.0320   21.0380   31.3820 N.am   17  GLY17      -0.1955
     23  CA        23.9910   20.9200   30.3800 C.3    17  GLY17       0.1869
     24  C         22.9360   21.9830   30.6080 C.2    17  GLY17       0.2309
     25  O         23.0820   22.8530   31.4750 O.2    17  GLY17      -0.2863
     26  N         25.8100   18.6570   35.4980 N.3    22  VAL22      -0.1245
     27  CA        25.7130   17.2110   35.5860 C.3    22  VAL22       0.1561
     28  C         26.9090   16.7080   36.3680 C.2    22  VAL22       0.2260
     29  O         28.0360   17.0600   36.0540 O.2    22  VAL22      -0.2867
     30  CB        25.6860   16.5440   34.2000 C.3    22  VAL22       0.0252
     31  CG1       25.5670   15.0430   34.3550 C.3    22  VAL22       0.0019
     32  CG2       24.5260   17.0710   33.3790 C.3    22  VAL22       0.0019
     33  N         24.9040    9.5870   36.0470 N.3    35  ALA35      -0.1245
     34  CA        25.0100   11.0000   35.6670 C.3    35  ALA35       0.1562
     35  C         23.8420   11.7610   36.3000 C.2    35  ALA35       0.2260
     36  O         22.6840   11.5640   35.9250 O.2    35  ALA35      -0.2867
     37  CB        24.9790   11.1410   34.1590 C.3    35  ALA35       0.0290
     38  N         21.9030   15.1450   36.8870 N.3    37  LYS37      -0.1245
     39  CA        21.6590   16.5570   36.5720 C.3    37  LYS37       0.1561
     40  C         21.0330   17.1920   37.7920 C.2    37  LYS37       0.2260
     41  O         20.0360   16.6980   38.3130 O.2    37  LYS37      -0.2867
     42  CB        20.7480   16.7420   35.3530 C.3    37  LYS37       0.0271
     43  CG        20.5050   18.2090   34.9760 C.3    37  LYS37       0.0035
     44  CD        19.9930   18.3920   33.5390 C.3    37  LYS37       0.0206
     45  CE        21.1170   18.2780   32.5150 C.3    37  LYS37       0.1093
     46  NZ        20.7820   18.6660   31.1100 N.3    37  LYS37      -0.1314
     47  N         18.1110    8.3320   26.9600 N.3    69  MET69      -0.1245
     48  CA        18.7200    8.2360   28.2910 C.3    69  MET69       0.1570
     49  C         17.7890    7.5070   29.2700 C.2    69  MET69       0.2261
     50  O         16.5850    7.7930   29.3610 O.2    69  MET69      -0.2867
     51  CB        19.1000    9.6160   28.8590 C.3    69  MET69       0.0387
     52  CG        19.9850    9.5420   30.1070 C.3    69  MET69       0.0595
     53  SD        19.7930   10.8860   31.3150 S.3    69  MET69      -0.1393
     54  CE        18.0660   10.7350   31.7900 C.3    69  MET69       0.0692
     55  N         16.4330    6.9660   32.7900 N.3    71  LEU71      -0.1245
     56  CA        16.2770    7.7280   34.0240 C.3    71  LEU71       0.1561
     57  C         15.9540    6.7670   35.1580 C.2    71  LEU71       0.2260
     58  O         14.9560    6.0460   35.1050 O.2    71  LEU71      -0.2867
     59  CB        15.1520    8.7690   33.8740 C.3    71  LEU71       0.0270
     60  CG        14.7640    9.6030   35.1190 C.3    71  LEU71       0.0019
     61  CD1       15.8150   10.6630   35.4270 C.3    71  LEU71       0.0001
     62  CD2       13.4000   10.2630   34.9490 C.3    71  LEU71       0.0001
     63  N         18.0210   14.7260   39.0110 N.3    83  LEU83      -0.1245
     64  CA        17.6510   13.7320   38.0140 C.3    83  LEU83       0.1561
     65  C         18.8180   12.7610   37.8680 C.2    83  LEU83       0.2260
     66  O         19.9080   13.1540   37.4280 O.2    83  LEU83      -0.2867
     67  CB        17.3890   14.4030   36.6680 C.3    83  LEU83       0.0270
     68  CG        16.5250   15.6490   36.7010 C.3    83  LEU83       0.0019
     69  CD1       16.2310   16.1380   35.2890 C.3    83  LEU83       0.0001
     70  CD2       15.2490   15.3310   37.4390 C.3    83  LEU83       0.0001
     71  N         20.3710    9.6930   36.0500 N.3    85  GLY85      -0.1210
     72  CA        20.3090    8.8370   34.8700 C.3    85  GLY85       0.1956
     73  C         21.6040    8.1130   34.5760 C.2    85  GLY85       0.2612
     74  O         22.6180    8.3180   35.2450 O.2    85  GLY85      -0.2717
     75  N         21.5680    7.2510   33.5700 N.am   86  GLU86      -0.1965
     76  CA        22.6990    6.4060   33.2490 C.3    86  GLU86       0.1733
     77  C         23.8060    7.3160   32.7290 C.2    86  GLU86       0.2616
     78  O         23.5130    8.3440   32.1200 O.2    86  GLU86      -0.2715
     79  CB        22.2770    5.3860   32.1900 C.3    86  GLU86       0.0429
     80  CG        23.2850    4.2640   31.8870 C.3    86  GLU86       0.1163
     81  CD        22.8030    3.2860   30.8050 C.2    86  GLU86       0.3649
     82  OE1       21.7070    3.4800   30.2200 O.co2  86  GLU86      -0.2457
     83  OE2       23.5390    2.3130   30.5180 O.co2  86  GLU86      -0.2457
     84  N         25.0640    6.9570   32.9640 N.am   87  VAL87      -0.1963
     85  CA        26.1890    7.7600   32.4810 C.3    87  VAL87       0.1727
     86  C         26.7410    7.1620   31.1970 C.2    87  VAL87       0.2616
     87  O         26.9250    5.9530   31.1220 O.2    87  VAL87      -0.2715
     88  CB        27.3260    7.8490   33.5210 C.3    87  VAL87       0.0290
     89  CG1       27.9120    6.4790   33.8070 C.3    87  VAL87       0.0023
     90  CG2       28.4130    8.8100   33.0540 C.3    87  VAL87       0.0023
     91  N         27.0070    8.0130   30.2050 N.am   88  TYR88      -0.1974
     92  CA        27.5740    7.5820   28.9220 C.3    88  TYR88       0.1639
     93  C         28.9800    8.1500   28.7120 C.2    88  TYR88       0.2290
     94  O         29.2950    9.2400   29.1690 O.2    88  TYR88      -0.2864
     95  CB        26.6300    7.9450   27.7600 C.3    88  TYR88       0.0560
     96  CG        25.2120    7.4750   28.0090 C.ar   88  TYR88      -0.0198
     97  CD1       24.9350    6.1320   28.1530 C.ar   88  TYR88      -0.0009
     98  CD2       24.1620    8.3760   28.1370 C.ar   88  TYR88      -0.0009
     99  CE1       23.6570    5.6810   28.4080 C.ar   88  TYR88       0.0417
    100  CE2       22.8670    7.9320   28.3900 C.ar   88  TYR88       0.0417
    101  CZ        22.6250    6.5770   28.5290 C.ar   88  TYR88       0.1957
    102  OH        21.3580    6.1020   28.7860 O.3    88  TYR88      -0.2866
    103  N         30.8840   10.5270   24.5460 N.3    91  GLY91      -0.1210
    104  CA        30.9670   11.9630   24.2810 C.3    91  GLY91       0.1956
    105  C         29.8540   12.4290   23.3630 C.2    91  GLY91       0.2611
    106  O         28.9600   11.6540   23.0160 O.2    91  GLY91      -0.2717
    107  N         29.9100   13.6990   22.9720 N.am   92  GLU92      -0.1979
    108  CA        28.9060   14.2830   22.0970 C.3    92  GLU92       0.1602
    109  C         29.1130   13.7600   20.6750 C.2    92  GLU92       0.2287
    110  O         30.2320   13.5090   20.2620 O.2    92  GLU92      -0.2864
    111  CB        28.9780   15.8160   22.1590 C.3    92  GLU92       0.0415
    112  CG        28.4260   16.3990   23.4490 C.3    92  GLU92       0.1163
    113  CD        28.9300   17.7990   23.7670 C.2    92  GLU92       0.3649
    114  OE1       29.0080   18.6680   22.8610 O.co2  92  GLU92      -0.2457
    115  OE2       29.2320   18.0440   24.9530 O.co2  92  GLU92      -0.2457
    116  N         24.4580   18.8540   21.0630 N.3   135  GLU135     -0.1245
    117  CA        24.8740   18.7380   22.4750 C.3   135  GLU135      0.1567
    118  C         24.0740   17.6760   23.2410 C.2   135  GLU135      0.2260
    119  O         24.5630   17.1170   24.2090 O.2   135  GLU135     -0.2867
    120  CB        24.7190   20.1050   23.1790 C.3   135  GLU135      0.0388
    121  CG        25.6970   20.3880   24.3110 C.3   135  GLU135      0.1160
    122  CD        25.8540   21.8820   24.5900 C.2   135  GLU135      0.3649
    123  OE1       24.8270   22.5460   24.8950 O.co2 135  GLU135     -0.2457
    124  OE2       27.0050   22.3910   24.5030 O.co2 135  GLU135     -0.2457
    125  N         24.4750   11.9830   22.7370 N.3   138  LEU138     -0.1245
    126  CA        25.6610   11.3810   23.3270 C.3   138  LEU138      0.1561
    127  C         25.8460    9.9780   22.7880 C.2   138  LEU138      0.2260
    128  O         24.8750    9.2590   22.6330 O.2   138  LEU138     -0.2867
    129  CB        25.5100   11.3000   24.8410 C.3   138  LEU138      0.0270
    130  CG        25.1850   12.5940   25.5620 C.3   138  LEU138      0.0019
    131  CD1       25.3230   12.3780   27.0570 C.3   138  LEU138      0.0001
    132  CD2       26.1060   13.7160   25.0900 C.3   138  LEU138      0.0001
    133  N         19.5910   12.9110   25.3750 N.3   151  ILE151     -0.1231
    134  CA        19.3840   13.3720   26.7450 C.3   151  ILE151      0.1692
    135  C         18.3680   14.5190   26.7800 C.2   151  ILE151      0.2592
    136  O         18.1340   15.1970   25.7730 O.2   151  ILE151     -0.2718
    137  CB        20.7010   13.8050   27.4470 C.3   151  ILE151      0.0266
    138  CG1       21.4430   14.8730   26.6540 C.3   151  ILE151      0.0019
    139  CG2       21.6320   12.6110   27.6540 C.3   151  ILE151      0.0020
    140  CD1       22.5430   15.5810   27.4350 C.3   151  ILE151      0.0001
    141  N         17.7740   14.7120   27.9600 N.am  152  ASP152     -0.1974
    142  CA        16.9230   15.8670   28.2790 C.3   152  ASP152      0.1709
    143  C         15.5120   15.8360   27.7040 C.2   152  ASP152      0.2293
    144  O         14.8070   16.8250   27.7970 O.2   152  ASP152     -0.2864
    145  CB        17.6070   17.1920   27.9180 C.3   152  ASP152      0.1436
    146  CG        18.6050   17.6400   28.9690 C.2   152  ASP152      0.3671
    147  OD1       18.7870   16.9220   29.9820 O.co2 152  ASP152     -0.2456
    148  OD2       19.1980   18.7320   28.7810 O.co2 152  ASP152     -0.2456
    149  N         12.1430   17.5080   29.7190 N.3   155  LEU155     -0.1245
    150  CA        12.4740   18.5310   30.7080 C.3   155  LEU155      0.1561
    151  C         11.9540   19.9280   30.3510 C.2   155  LEU155      0.2260
    152  O         11.5170   20.6720   31.2380 O.2   155  LEU155     -0.2867
    153  CB        13.9850   18.5810   30.9250 C.3   155  LEU155      0.0270
    154  CG        14.5750   17.3130   31.5510 C.3   155  LEU155      0.0019
    155  CD1       16.0890   17.4100   31.6300 C.3   155  LEU155      0.0001
    156  CD2       13.9770   17.0780   32.9320 C.3   155  LEU155      0.0001
@<TRIPOS>BOND
     1   110   109    2
     2   109   108    1
     3   116   117    1
     4   108   111    1
     5   108   107    1
     6   111   112    1
     7   117   120    1
     8   117   118    1
     9   128   127    2
    10   125   126    1
    11   127   126    1
    12   114   113   ar
    13   107   105   am
    14   106   105    2
    15   120   121    1
    16   118   119    2
    17   126   129    1
    18   105   104    1
    19   112   113    1
    20   113   115   ar
    21   104   103    1
    22   121   122    1
    23   124   122   ar
    24   122   123   ar
    25   129   130    1
    26   132   130    1
    27   133   134    1
    28   130   131    1
    29   136   135    2
    30   138   140    1
    31   138   137    1
    32   134   135    1
    33   134   137    1
    34   135   141   am
    35    47    48    1
    36   137   139    1
    37   143   144    2
    38   143   142    1
    39    95    96    1
    40    95    92    1
    41   145   142    1
    42   145   146    1
    43   141   142    1
    44    96    98   ar
    45    96    97   ar
    46    98   100   ar
    47    97    99   ar
    48    48    51    1
    49    48    49    1
    50   100   101   ar
    51    99   101   ar
    52   101   102    1
    53    93    92    1
    54    93    94    2
    55   148   146   ar
    56    51    52    1
    57    92    91    1
    58   146   147   ar
    59    49    50    2
    60   149   150    1
    61    52    53    1
    62    16    15    2
    63    91    86   am
    64    82    81   ar
    65   151   150    1
    66   151   152    2
    67    23    24    1
    68    23    22    1
    69    83    81   ar
    70    24    25    2
    71   150   153    1
    72    81    80    1
    73   153   154    1
    74    46    45    1
    75    87    86    2
    76    15    22   am
    77    15    14    1
    78    86    85    1
    79    53    54    1
    80   154   155    1
    81   154   156    1
    82    80    79    1
    83     4     3    2
    84    78    77    2
    85    13    14    1
    86    13    11   am
    87    79    76    1
    88    14    17    1
    89    85    84    1
    90    85    88    1
    91    45    44    1
    92    10    11    1
    93    10     9    1
    94    17    18    1
    95    18    19    1
    96    77    84   am
    97    77    76    1
    98    55    56    1
    99    11    12    2
   100    21    20    1
   101    90    88    1
   102     3     9   am
   103     3     2    1
   104    76    75    1
   105    32    30    1
   106    88    89    1
   107    44    43    1
   108    75    73   am
   109     5     2    1
   110     5     6    1
   111    59    56    1
   112    59    60    1
   113    19    20    1
   114     8     6    1
   115    56    57    1
   116     2     1    1
   117    37    34    1
   118    30    31    1
   119    30    27    1
   120     7     6    1
   121    73    72    1
   122    73    74    2
   123    72    71    1
   124    62    60    1
   125    43    42    1
   126    58    57    2
   127    60    61    1
   128    69    68    1
   129    42    39    1
   130    26    27    1
   131    27    28    1
   132    34    33    1
   133    34    35    1
   134    36    35    2
   135    29    28    2
   136    39    38    1
   137    39    40    1
   138    67    68    1
   139    67    64    1
   140    68    70    1
   141    66    65    2
   142    40    41    2
   143    65    64    1
   144    64    63    1
