@<TRIPOS>MOLECULE
tmp/3upyA00.pdb
 98 92 0 0 0
SMALL
GASTEIGER

@<TRIPOS>ATOM
      1  N          1.5670   -3.9130   12.3320 N.3   166  ASP166     -0.1225
      2  CA         2.5070   -4.9500   12.7460 C.3   166  ASP166      0.1805
      3  C          2.7860   -5.8430   11.5240 C.2   166  ASP166      0.2597
      4  O          1.9970   -5.8420   10.5760 O.2   166  ASP166     -0.2718
      5  CB         1.8820   -5.7470   13.8920 C.3   166  ASP166      0.1424
      6  CG         2.8570   -6.5360   14.7090 C.2   166  ASP166      0.3668
      7  OD1        4.0740   -6.3660   14.6740 O.co2 166  ASP166     -0.2456
      8  OD2        2.3390   -7.4110   15.4770 O.co2 166  ASP166     -0.2456
      9  N          3.8830   -6.6080   11.5460 N.am  167  GLU167     -0.1979
     10  CA         4.3340   -7.3270   10.3350 C.3   167  GLU167      0.1602
     11  C          3.2530   -8.1790    9.7100 C.2   167  GLU167      0.2287
     12  O          3.0940   -8.1670    8.4760 O.2   167  GLU167     -0.2864
     13  CB         5.6380   -8.1230   10.5910 C.3   167  GLU167      0.0415
     14  CG         6.8500   -7.2450   10.8070 C.3   167  GLU167      0.1163
     15  CD         7.1610   -7.0300   12.2890 C.2   167  GLU167      0.3649
     16  OE1        6.1600   -6.8530   13.0840 O.co2 167  GLU167     -0.2457
     17  OE2        8.3510   -6.9950   12.6520 O.co2 167  GLU167     -0.2457
     18  N          9.0450  -11.4860    6.9010 N.3   190  LYS190     -0.1231
     19  CA         9.6630  -10.3010    7.4940 C.3   190  LYS190      0.1693
     20  C         11.1870  -10.5220    7.5440 C.2   190  LYS190      0.2593
     21  O         11.6320  -11.6630    7.3410 O.2   190  LYS190     -0.2718
     22  CB         9.1080  -10.0960    8.8970 C.3   190  LYS190      0.0285
     23  CG         9.4450  -11.2380    9.8390 C.3   190  LYS190      0.0035
     24  CD         8.9290  -11.0520   11.2790 C.3   190  LYS190      0.0206
     25  CE         9.7710   -9.9920   12.0400 C.3   190  LYS190      0.1093
     26  NZ         9.5960   -9.8920   13.5620 N.3   190  LYS190     -0.1314
     27  N         11.9820   -9.4870    7.7600 N.am  191  GLY191     -0.1942
     28  CA        13.4490   -9.7110    7.9880 C.3   191  GLY191      0.2014
     29  C         13.9880   -9.5120    9.4380 C.2   191  GLY191      0.2638
     30  O         13.3260   -8.9630   10.2690 O.2   191  GLY191     -0.2714
     31  N         15.2050   -9.9920    9.6900 N.am  192  LYS192     -0.1977
     32  CA        15.9810   -9.6240   10.9090 C.3   192  LYS192      0.1596
     33  C         17.4330   -9.3190   10.5620 C.2   192  LYS192      0.2287
     34  O         18.0940  -10.0840    9.7920 O.2   192  LYS192     -0.2864
     35  CB        15.9480  -10.7440   11.9430 C.3   192  LYS192      0.0298
     36  CG        14.5580  -11.0620   12.4900 C.3   192  LYS192      0.0038
     37  CD        14.3730  -10.5860   13.9420 C.3   192  LYS192      0.0206
     38  CE        14.9240  -11.6200   14.9350 C.3   192  LYS192      0.1093
     39  NZ        14.8830  -11.1100   16.4010 N.3   192  LYS192     -0.1314
     40  N         11.9460  -11.0390   21.1330 N.3   222  PHE222     -0.1241
     41  CA        12.4030  -10.5660   19.8500 C.3   222  PHE222      0.1605
     42  C         13.6990  -11.4050   19.4610 C.2   222  PHE222      0.2264
     43  O         13.7520  -12.0480   18.4920 O.2   222  PHE222     -0.2867
     44  CB        12.6390   -9.0090   19.8640 C.3   222  PHE222      0.0534
     45  CG        11.3830   -8.1060   20.2130 C.ar  222  PHE222     -0.0203
     46  CD1       10.0840   -8.5940   20.2290 C.ar  222  PHE222     -0.0042
     47  CD2       11.5320   -6.7330   20.4750 C.ar  222  PHE222     -0.0042
     48  CE1        9.0200   -7.8080   20.5200 C.ar  222  PHE222     -0.0003
     49  CE2       10.4340   -5.9010   20.7680 C.ar  222  PHE222     -0.0003
     50  CZ         9.1630   -6.4270   20.7730 C.ar  222  PHE222     -0.0000
     51  N          8.6900  -13.8940   18.8160 N.3   227  LYS227     -0.1231
     52  CA         7.8150  -12.9700   18.1110 C.3   227  LYS227      0.1693
     53  C          7.7410  -13.2440   16.5770 C.2   227  LYS227      0.2592
     54  O          6.6580  -13.1500   15.9630 O.2   227  LYS227     -0.2718
     55  CB         8.3320  -11.5580   18.3160 C.3   227  LYS227      0.0285
     56  CG         7.4500  -10.5050   17.6900 C.3   227  LYS227      0.0035
     57  CD         6.0220  -10.5280   18.2570 C.3   227  LYS227      0.0206
     58  CE         5.8180   -9.7920   19.5080 C.3   227  LYS227      0.1093
     59  NZ         4.3460   -9.9050   19.7270 N.3   227  LYS227     -0.1314
     60  N          8.8700  -13.5980   15.9920 N.am  228  THR228     -0.1953
     61  CA         8.9180  -13.9710   14.6020 C.3   228  THR228      0.1897
     62  C          8.0630  -15.2100   14.2820 C.2   228  THR228      0.2313
     63  O          7.3360  -15.2290   13.2640 O.2   228  THR228     -0.2863
     64  CB        10.3630  -14.1060   14.0820 C.3   228  THR228      0.1794
     65  OG1       10.9660  -12.7890   14.1120 O.3   228  THR228     -0.2208
     66  CG2       10.3970  -14.6690   12.6610 C.3   228  THR228      0.0378
     67  N          4.3320  -14.0670   14.5360 N.3   231  GLU231     -0.1245
     68  CA         3.9280  -13.1900   13.4150 C.3   231  GLU231      0.1567
     69  C          3.7870  -13.9800   12.1200 C.2   231  GLU231      0.2260
     70  O          2.8410  -13.7630   11.3310 O.2   231  GLU231     -0.2867
     71  CB         4.9270  -12.0700   13.2150 C.3   231  GLU231      0.0388
     72  CG         4.7000  -10.9960   14.2670 C.3   231  GLU231      0.1160
     73  CD         5.7280   -9.8610   14.2720 C.2   231  GLU231      0.3649
     74  OE1        6.7080   -9.8640   13.5170 O.co2 231  GLU231     -0.2457
     75  OE2        5.5500   -8.9520   15.0990 O.co2 231  GLU231     -0.2457
     76  N         14.3170   -5.5520    7.2120 N.3   286  SER286     -0.1217
     77  CA        13.7030   -4.8200    8.3400 C.3   286  SER286      0.1889
     78  C         13.9920   -3.3060    8.2270 C.2   286  SER286      0.2288
     79  O         15.0270   -2.9570    7.7670 O.2   286  SER286     -0.2866
     80  CB        14.2860   -5.3470    9.6510 C.3   286  SER286      0.2089
     81  OG        13.7390   -4.6800   10.7660 O.3   286  SER286     -0.2183
     82  N          6.7060   -0.4240    8.8010 N.3   322  HIS322     -0.1241
     83  CA         5.4220   -0.7100    9.4510 C.3   322  HIS322      0.1621
     84  C          5.4930    0.1160   10.7270 C.2   322  HIS322      0.2264
     85  O          6.5290    0.2310   11.2840 O.2   322  HIS322     -0.2867
     86  CB         5.2380   -2.2050    9.7280 C.3   322  HIS322      0.0745
     87  CG         6.4100   -2.8360   10.4100 C.ar  322  HIS322      0.0817
     88  ND1        6.3740   -3.2710   11.7170 N.ar  322  HIS322     -0.2268
     89  CD2        7.6680   -3.0750    9.9690 C.ar  322  HIS322      0.1154
     90  CE1        7.5520   -3.7680   12.0450 C.ar  322  HIS322      0.1986
     91  NE2        8.3600   -3.6490   11.0050 N.ar  322  HIS322     -0.2212
     92  N          3.7480   -0.0220   13.6850 N.3   324  THR324     -0.1218
     93  CA         3.1790   -0.6540   14.8680 C.3   324  THR324      0.1862
     94  C          1.8710    0.0450   15.2830 C.2   324  THR324      0.2287
     95  O          0.9680    0.2360   14.4300 O.2   324  THR324     -0.2866
     96  CB         4.2190   -0.7900   16.0220 C.3   324  THR324      0.1770
     97  OG1        4.5790    0.5160   16.5410 O.3   324  THR324     -0.2211
     98  CG2        5.4680   -1.5400   15.4950 C.3   324  THR324      0.0375
@<TRIPOS>BOND
     1    18    19    1
     2    76    77    1
     3    21    20    2
     4    19    20    1
     5    19    22    1
     6    20    27   am
     7    27    28    1
     8    79    78    2
     9    28    29    1
    10    78    77    1
    11    77    80    1
    12    12    11    2
    13    82    83    1
    14    22    23    1
    15    29    31   am
    16    29    30    2
    17    83    86    1
    18    83    84    1
    19    80    81    1
    20    31    32    1
    21    11    10    1
    22    86    87    1
    23    34    33    2
    24    23    24    1
    25    89    87   ar
    26    89    91   ar
    27    10    13    1
    28    10     9    1
    29    87    88   ar
    30    33    32    1
    31     4     3    2
    32    13    14    1
    33    84    85    2
    34    14    15    1
    35    32    35    1
    36    91    90   ar
    37    24    25    1
    38    70    69    2
    39     3     9   am
    40     3     2    1
    41    88    90   ar
    42    35    36    1
    43    25    26    1
    44    69    68    1
    45    15    17   ar
    46    15    16   ar
    47     1     2    1
    48    36    37    1
    49    66    64    1
    50     2     5    1
    51    71    68    1
    52    71    72    1
    53    63    62    2
    54    68    67    1
    55    74    73   ar
    56    92    93    1
    57     5     6    1
    58    37    38    1
    59    64    65    1
    60    64    61    1
    61    72    73    1
    62    73    75   ar
    63    62    61    1
    64    95    94    2
    65    61    60    1
    66     7     6   ar
    67     6     8   ar
    68    93    94    1
    69    93    96    1
    70    38    39    1
    71    98    96    1
    72    54    53    2
    73    60    53   am
    74    96    97    1
    75    53    52    1
    76    56    57    1
    77    56    55    1
    78    52    55    1
    79    52    51    1
    80    57    58    1
    81    43    42    2
    82    42    41    1
    83    58    59    1
    84    41    44    1
    85    41    40    1
    86    44    45    1
    87    45    46   ar
    88    45    47   ar
    89    46    48   ar
    90    47    49   ar
    91    48    50   ar
    92    49    50   ar
