@<TRIPOS>MOLECULE
tmp/3upzA00.pdb
 124 115 0 0 0
SMALL
GASTEIGER

@<TRIPOS>ATOM
      1  N         21.6820   16.8330   67.7770 N.3    14  LEU14      -0.1231
      2  CA        21.5860   16.3250   66.4000 C.3    14  LEU14       0.1693
      3  C         21.4090   17.4550   65.3880 C.2    14  LEU14       0.2593
      4  O         21.7190   17.2940   64.2100 O.2    14  LEU14      -0.2718
      5  CB        20.4440   15.3160   66.2720 C.3    14  LEU14       0.0284
      6  CG        20.7650   13.9190   66.7990 C.3    14  LEU14       0.0019
      7  CD1       19.4910   13.1550   67.1200 C.3    14  LEU14       0.0001
      8  CD2       21.6110   13.1600   65.7850 C.3    14  LEU14       0.0001
      9  N         20.9090   18.5970   65.8480 N.am   15  GLY15      -0.1942
     10  CA        20.7730   19.7720   64.9970 C.3    15  GLY15       0.2014
     11  C         19.4580   20.4960   65.1840 C.2    15  GLY15       0.2639
     12  O         18.6770   20.1890   66.0820 O.2    15  GLY15      -0.2714
     13  N         19.2200   21.4610   64.3090 N.am   16  LYS16      -0.1963
     14  CA        18.0670   22.3360   64.4000 C.3    16  LYS16       0.1728
     15  C         17.0420   21.9150   63.3610 C.2    16  LYS16       0.2616
     16  O         17.3720   21.7350   62.1890 O.2    16  LYS16      -0.2715
     17  CB        18.5090   23.7860   64.1690 C.3    16  LYS16       0.0311
     18  CG        17.3850   24.8080   64.1020 C.3    16  LYS16       0.0038
     19  CD        17.9330   26.2240   64.2290 C.3    16  LYS16       0.0206
     20  CE        17.0270   27.2450   63.5610 C.3    16  LYS16       0.1093
     21  NZ        17.1440   27.2200   62.0750 N.3    16  LYS16      -0.1314
     22  N         15.8030   21.7410   63.8070 N.am   17  GLY17      -0.1955
     23  CA        14.6860   21.4650   62.9190 C.3    17  GLY17       0.1869
     24  C         13.6520   22.5610   63.0290 C.2    17  GLY17       0.2309
     25  O         13.8690   23.5600   63.7150 O.2    17  GLY17      -0.2863
     26  N         16.8050   19.3290   67.9450 N.3    22  VAL22      -0.1245
     27  CA        16.6860   17.8840   68.0230 C.3    22  VAL22       0.1561
     28  C         17.9070   17.3330   68.7580 C.2    22  VAL22       0.2260
     29  O         19.0430   17.5800   68.3540 O.2    22  VAL22      -0.2867
     30  CB        16.5560   17.2560   66.6230 C.3    22  VAL22       0.0252
     31  CG1       16.3160   15.7620   66.7270 C.3    22  VAL22       0.0019
     32  CG2       15.4200   17.9160   65.8570 C.3    22  VAL22       0.0019
     33  N         15.6570   10.1480   68.6120 N.3    35  ALA35      -0.1245
     34  CA        15.8070   11.5520   68.2290 C.3    35  ALA35       0.1562
     35  C         14.6740   12.3340   68.8970 C.2    35  ALA35       0.2260
     36  O         13.5100   12.1310   68.5620 O.2    35  ALA35      -0.2867
     37  CB        15.7370   11.7000   66.7160 C.3    35  ALA35       0.0290
     38  N         12.8130   15.8280   69.5160 N.3    37  LYS37      -0.1245
     39  CA        12.5960   17.2230   69.1830 C.3    37  LYS37       0.1561
     40  C         11.9770   17.9420   70.3840 C.2    37  LYS37       0.2260
     41  O         10.9230   17.5430   70.8820 O.2    37  LYS37      -0.2867
     42  CB        11.7030   17.3530   67.9480 C.3    37  LYS37       0.0271
     43  CG        11.4580   18.7920   67.5200 C.3    37  LYS37       0.0035
     44  CD        10.9400   18.8870   66.0920 C.3    37  LYS37       0.0206
     45  CE        12.0630   18.7580   65.0720 C.3    37  LYS37       0.1093
     46  NZ        11.6050   19.0430   63.6830 N.3    37  LYS37      -0.1314
     47  N          8.8250    9.1630   59.2840 N.3    69  MET69      -0.1245
     48  CA         9.4920    9.0680   60.5980 C.3    69  MET69       0.1570
     49  C          8.5590    8.4200   61.6200 C.2    69  MET69       0.2261
     50  O          7.3770    8.7520   61.6980 O.2    69  MET69      -0.2867
     51  CB         9.9620   10.4370   61.1150 C.3    69  MET69       0.0387
     52  CG        10.5040   10.4190   62.5520 C.3    69  MET69       0.0595
     53  SD        11.2810   11.9580   63.1170 S.3    69  MET69      -0.1393
     54  CE        11.8260   11.5100   64.7650 C.3    69  MET69       0.0692
     55  N         12.2910    7.9020   66.1960 N.3    86  GLU86      -0.1231
     56  CA        13.4110    7.0960   65.7380 C.3    86  GLU86       0.1699
     57  C         14.5490    7.9630   65.1960 C.2    86  GLU86       0.2592
     58  O         14.2990    8.9550   64.5010 O.2    86  GLU86      -0.2718
     59  CB        12.9200    6.1490   64.6400 C.3    86  GLU86       0.0402
     60  CG        13.8970    5.0570   64.2320 C.3    86  GLU86       0.1161
     61  CD        13.3240    4.1370   63.1630 C.2    86  GLU86       0.3649
     62  OE1       12.2830    4.4740   62.5490 O.co2  86  GLU86      -0.2457
     63  OE2       13.9230    3.0720   62.9290 O.co2  86  GLU86      -0.2457
     64  N         15.7880    7.5730   65.5070 N.am   87  VAL87      -0.1966
     65  CA        16.9800    8.2500   64.9870 C.3    87  VAL87       0.1727
     66  C         17.2800    7.7920   63.5620 C.2    87  VAL87       0.2616
     67  O         17.2430    6.5940   63.2780 O.2    87  VAL87      -0.2715
     68  CB        18.2440    7.9290   65.8150 C.3    87  VAL87       0.0290
     69  CG1       19.4110    8.7840   65.3380 C.3    87  VAL87       0.0023
     70  CG2       18.0080    8.1350   67.3020 C.3    87  VAL87       0.0023
     71  N         17.6060    8.7460   62.6890 N.am   88  TYR88      -0.1974
     72  CA        18.1100    8.4570   61.3410 C.3    88  TYR88       0.1639
     73  C         19.4750    9.1090   61.1530 C.2    88  TYR88       0.2290
     74  O         19.7000   10.2170   61.6170 O.2    88  TYR88      -0.2864
     75  CB        17.1140    8.9340   60.2860 C.3    88  TYR88       0.0560
     76  CG        15.7380    8.3580   60.5270 C.ar   88  TYR88      -0.0198
     77  CD1       15.5570    6.9810   60.6210 C.ar   88  TYR88      -0.0009
     78  CD2       14.6260    9.1810   60.6910 C.ar   88  TYR88      -0.0009
     79  CE1       14.3090    6.4380   60.8630 C.ar   88  TYR88       0.0417
     80  CE2       13.3710    8.6450   60.9330 C.ar   88  TYR88       0.0417
     81  CZ        13.2210    7.2700   61.0170 C.ar   88  TYR88       0.1957
     82  OH        11.9910    6.7160   61.2580 O.3    88  TYR88      -0.2866
     83  N         20.6340   14.6190   55.2640 N.3    92  GLU92      -0.1245
     84  CA        19.6770   15.1670   54.3090 C.3    92  GLU92       0.1567
     85  C         19.8750   14.5810   52.9110 C.2    92  GLU92       0.2260
     86  O         21.0020   14.3590   52.4820 O.2    92  GLU92      -0.2867
     87  CB        19.7850   16.6940   54.2810 C.3    92  GLU92       0.0388
     88  CG        19.3350   17.3390   55.5820 C.3    92  GLU92       0.1160
     89  CD        19.6310   18.8270   55.6560 C.2    92  GLU92       0.3649
     90  OE1       19.5970   19.5140   54.6090 O.co2  92  GLU92      -0.2457
     91  OE2       19.8800   19.3090   56.7780 O.co2  92  GLU92      -0.2457
     92  N         15.0180   19.5620   53.4580 N.3   135  GLU135     -0.1245
     93  CA        15.5320   19.3650   54.8310 C.3   135  GLU135      0.1567
     94  C         14.6780   18.4280   55.6860 C.2   135  GLU135      0.2260
     95  O         15.1430   17.9610   56.7290 O.2   135  GLU135     -0.2867
     96  CB        15.6670   20.7130   55.5550 C.3   135  GLU135      0.0388
     97  CG        16.8830   21.5230   55.1310 C.3   135  GLU135      0.1160
     98  CD        16.9090   22.9200   55.7310 C.2   135  GLU135      0.3649
     99  OE1       15.8350   23.4370   56.1110 O.co2 135  GLU135     -0.2457
    100  OE2       18.0120   23.5060   55.8170 O.co2 135  GLU135     -0.2457
    101  N         15.1640   12.8970   55.2220 N.3   138  LEU138     -0.1245
    102  CA        16.3890   12.3070   55.7690 C.3   138  LEU138      0.1561
    103  C         16.5310   10.8680   55.2930 C.2   138  LEU138      0.2260
    104  O         15.5510   10.1380   55.2530 O.2   138  LEU138     -0.2867
    105  CB        16.3450   12.2920   57.3010 C.3   138  LEU138      0.0270
    106  CG        16.2170   13.5960   58.0890 C.3   138  LEU138      0.0019
    107  CD1       16.3910   13.2990   59.5720 C.3   138  LEU138      0.0001
    108  CD2       17.2290   14.6380   57.6290 C.3   138  LEU138      0.0001
    109  N         10.1530   13.7830   57.7520 N.3   151  ILE151     -0.1231
    110  CA        10.0120   14.1950   59.1500 C.3   151  ILE151      0.1692
    111  C          9.0370   15.3650   59.3040 C.2   151  ILE151      0.2592
    112  O          8.7590   16.0870   58.3440 O.2   151  ILE151     -0.2718
    113  CB        11.3890   14.5080   59.8000 C.3   151  ILE151      0.0266
    114  CG1       12.0000   15.7970   59.2600 C.3   151  ILE151      0.0019
    115  CG2       12.3600   13.3490   59.5710 C.3   151  ILE151      0.0020
    116  CD1       13.3150   16.1700   59.9230 C.3   151  ILE151      0.0001
    117  N          8.5030   15.5090   60.5170 N.am  152  ASP152     -0.1974
    118  CA         7.5920   16.5960   60.8900 C.3   152  ASP152      0.1709
    119  C          6.1920   16.5310   60.2530 C.2   152  ASP152      0.2293
    120  O          5.4740   17.5300   60.2540 O.2   152  ASP152     -0.2864
    121  CB         8.2270   17.9730   60.6180 C.3   152  ASP152      0.1436
    122  CG         9.3490   18.3110   61.5880 C.2   152  ASP152      0.3671
    123  OD1        9.5970   17.5470   62.5520 O.co2 152  ASP152     -0.2456
    124  OD2        9.9870   19.3680   61.3810 O.co2 152  ASP152     -0.2456
@<TRIPOS>BOND
     1    86    85    2
     2    85    84    1
     3    92    93    1
     4    87    84    1
     5    87    88    1
     6    84    83    1
     7    90    89   ar
     8    93    96    1
     9    93    94    1
    10    97    96    1
    11    97    98    1
    12   101   102    1
    13   104   103    2
    14   103   102    1
    15    88    89    1
    16    89    91   ar
    17    94    95    2
    18    98   100   ar
    19    98    99   ar
    20   102   105    1
    21   105   106    1
    22   108   106    1
    23   109   110    1
    24   106   107    1
    25   112   111    2
    26   110   111    1
    27   110   113    1
    28   114   113    1
    29   114   116    1
    30    47    48    1
    31   111   117   am
    32   115   113    1
    33   119   120    2
    34   119   118    1
    35    75    76    1
    36    75    72    1
    37   117   118    1
    38    76    77   ar
    39    76    78   ar
    40    48    51    1
    41    48    49    1
    42   121   118    1
    43   121   122    1
    44    77    79   ar
    45    78    80   ar
    46    79    81   ar
    47    80    81   ar
    48    81    82    1
    49    51    52    1
    50    73    72    1
    51    73    74    2
    52    72    71    1
    53   124   122   ar
    54   122   123   ar
    55    49    50    2
    56    21    20    1
    57    16    15    2
    58    62    61   ar
    59    52    53    1
    60    71    66   am
    61    23    24    1
    62    23    22    1
    63    63    61   ar
    64    24    25    2
    65    53    54    1
    66    61    60    1
    67    67    66    2
    68    15    22   am
    69    15    14    1
    70    20    19    1
    71    66    65    1
    72    46    45    1
    73    18    17    1
    74    18    19    1
    75    17    14    1
    76     4     3    2
    77    60    59    1
    78    13    14    1
    79    13    11   am
    80    58    57    2
    81    59    56    1
    82    65    64    1
    83    65    68    1
    84    10    11    1
    85    10     9    1
    86    45    44    1
    87    11    12    2
    88    57    64   am
    89    57    56    1
    90    69    68    1
    91     3     9   am
    92     3     2    1
    93    56    55    1
    94     8     6    1
    95    68    70    1
    96    32    30    1
    97    44    43    1
    98     5     2    1
    99     5     6    1
   100     2     1    1
   101    30    31    1
   102    30    27    1
   103    37    34    1
   104     6     7    1
   105    43    42    1
   106    26    27    1
   107    42    39    1
   108    27    28    1
   109    34    33    1
   110    34    35    1
   111    29    28    2
   112    36    35    2
   113    39    38    1
   114    39    40    1
   115    40    41    2
