@<TRIPOS>MOLECULE
tmp/3uq3A00.pdb
 148 138 0 0 0
SMALL
GASTEIGER

@<TRIPOS>ATOM
      1  N         -0.0930    1.4360   -2.8870 N.3     9  LYS9       -0.1245
      2  CA         0.4780    0.2170   -3.4560 C.3     9  LYS9        0.1561
      3  C         -0.1140   -0.0590   -4.8210 C.2     9  LYS9        0.2260
      4  O          0.6280   -0.2820   -5.7850 O.2     9  LYS9       -0.2867
      5  CB         0.2130   -0.9910   -2.5560 C.3     9  LYS9        0.0271
      6  CG         0.8730   -2.2770   -3.0370 C.3     9  LYS9        0.0035
      7  CD         0.2290   -3.5250   -2.4470 C.3     9  LYS9        0.0206
      8  CE        -1.0140   -3.9280   -3.2240 C.3     9  LYS9        0.1093
      9  NZ        -1.5770   -5.2240   -2.7610 N.3     9  LYS9       -0.1314
     10  N          1.6820   -0.4120   -8.3940 N.3    13  ASN13      -0.1240
     11  CA         1.4570   -1.5060   -9.3420 C.3    13  ASN13       0.1653
     12  C          0.9690   -1.0600  -10.7310 C.2    13  ASN13       0.2266
     13  O          1.3280   -1.6800  -11.7410 O.2    13  ASN13      -0.2867
     14  CB         0.4890   -2.5470   -8.7600 C.3    13  ASN13       0.1155
     15  CG         1.0190   -3.2030   -7.4970 C.2    13  ASN13       0.2627
     16  OD1        2.1790   -3.0230   -7.1130 O.2    13  ASN13      -0.2716
     17  ND2        0.1630   -3.9710   -6.8400 N.am   13  ASN13      -0.0877
     18  N          4.1870    0.5790  -12.1730 N.3    16  TYR16      -0.1227
     19  CA         5.1510   -0.5090  -12.3700 C.3    16  TYR16       0.1736
     20  C          4.8650   -1.2770  -13.6580 C.2    16  TYR16       0.2595
     21  O          5.7780   -1.5550  -14.4380 O.2    16  TYR16      -0.2718
     22  CB         5.1420   -1.4640  -11.1670 C.3    16  TYR16       0.0548
     23  CG         6.1130   -2.6300  -11.2850 C.ar   16  TYR16      -0.0200
     24  CD1        7.4600   -2.4840  -10.9340 C.ar   16  TYR16      -0.0009
     25  CD2        5.6860   -3.8790  -11.7520 C.ar   16  TYR16      -0.0009
     26  CE1        8.3460   -3.5410  -11.0430 C.ar   16  TYR16       0.0417
     27  CE2        6.5700   -4.9380  -11.8640 C.ar   16  TYR16       0.0417
     28  CZ         7.8970   -4.7630  -11.5070 C.ar   16  TYR16       0.1957
     29  OH         8.7760   -5.8190  -11.6110 O.3    16  TYR16      -0.2866
     30  N          3.5850   -1.5890  -13.8700 N.am   17  LYS17      -0.1980
     31  CA         3.1030   -2.3360  -15.0360 C.3    17  LYS17       0.1596
     32  C          3.3170   -1.5880  -16.3640 C.2    17  LYS17       0.2287
     33  O          3.4430   -2.2160  -17.4200 O.2    17  LYS17      -0.2864
     34  CB         1.6220   -2.6890  -14.8400 C.3    17  LYS17       0.0298
     35  CG         1.1560   -3.9760  -15.5050 C.3    17  LYS17       0.0038
     36  CD         0.4750   -3.7170  -16.8420 C.3    17  LYS17       0.0206
     37  CE        -0.2630   -4.9520  -17.3400 C.3    17  LYS17       0.1093
     38  NZ        -1.4910   -5.2180  -16.5370 N.3    17  LYS17      -0.1314
     39  N          5.9370    0.2820  -16.7910 N.3    19  ARG19      -0.1245
     40  CA         7.3970    0.4630  -16.7740 C.3    19  ARG19       0.1563
     41  C          7.8320    1.8660  -16.3440 C.2    19  ARG19       0.2260
     42  O          8.8880    2.3600  -16.7450 O.2    19  ARG19      -0.2867
     43  CB         8.0230    0.0600  -18.1200 C.3    19  ARG19       0.0307
     44  CG         8.0540   -1.4440  -18.3340 C.3    19  ARG19       0.0489
     45  CD         9.0070   -1.8640  -19.4440 C.3    19  ARG19       0.2205
     46  NE         9.6250   -3.1650  -19.1600 N.pl3  19  ARG19      -0.0865
     47  CZ         9.0360   -4.3510  -19.3340 C.cat  19  ARG19       0.5346
     48  NH1        9.6920   -5.4650  -19.0390 N.pl3  19  ARG19       0.1354
     49  NH2        7.7940   -4.4330  -19.8000 N.pl3  19  ARG19       0.1354
     50  N          9.0810    3.3460  -13.3620 N.3    21  PHE21      -0.1241
     51  CA         9.6090    2.7640  -12.1380 C.3    21  PHE21       0.1605
     52  C          9.8020    3.7260  -10.9760 C.2    21  PHE21       0.2264
     53  O          9.5100    3.3780   -9.8340 O.2    21  PHE21      -0.2867
     54  CB        10.8760    1.9500  -12.4190 C.3    21  PHE21       0.0534
     55  CG        10.6630    0.8040  -13.3770 C.ar   21  PHE21      -0.0203
     56  CD1       11.3720    0.7370  -14.5740 C.ar   21  PHE21      -0.0042
     57  CD2        9.7550   -0.2060  -13.0850 C.ar   21  PHE21      -0.0042
     58  CE1       11.1790   -0.3140  -15.4580 C.ar   21  PHE21      -0.0003
     59  CE2        9.5530   -1.2590  -13.9660 C.ar   21  PHE21      -0.0003
     60  CZ        10.2660   -1.3160  -15.1530 C.ar   21  PHE21      -0.0000
     61  N          5.0930    3.2710   -3.6840 N.3    28  TYR28      -0.1241
     62  CA         5.4530    2.2170   -2.7380 C.3    28  TYR28       0.1605
     63  C          5.9610    2.7830   -1.4100 C.2    28  TYR28       0.2264
     64  O          5.6140    2.2660   -0.3480 O.2    28  TYR28      -0.2867
     65  CB         6.4510    1.2120   -3.3410 C.3    28  TYR28       0.0534
     66  CG         5.8870    0.3850   -4.4850 C.ar   28  TYR28      -0.0201
     67  CD1        6.6890    0.0110   -5.5650 C.ar   28  TYR28      -0.0009
     68  CD2        4.5500   -0.0080   -4.5010 C.ar   28  TYR28      -0.0009
     69  CE1        6.1770   -0.7360   -6.6190 C.ar   28  TYR28       0.0417
     70  CE2        4.0330   -0.7540   -5.5520 C.ar   28  TYR28       0.0417
     71  CZ         4.8490   -1.1140   -6.6060 C.ar   28  TYR28       0.1957
     72  OH         4.3370   -1.8600   -7.6380 O.3    28  TYR28      -0.2866
     73  N          5.5320   -5.8030    2.4080 N.3    39  THR39      -0.1218
     74  CA         5.0900   -6.0240    1.0260 C.3    39  THR39       0.1862
     75  C          5.4690   -4.8190    0.1720 C.2    39  THR39       0.2287
     76  O          6.0550   -4.9530   -0.9120 O.2    39  THR39      -0.2866
     77  CB         3.5600   -6.2440    0.9340 C.3    39  THR39       0.1770
     78  OG1        3.1620   -7.2790    1.8410 O.3    39  THR39      -0.2211
     79  CG2        3.1440   -6.6360   -0.4700 C.3    39  THR39       0.0375
     80  N          7.9120   -4.6510   -3.1110 N.3    43  ASN43      -0.1240
     81  CA         7.4810   -4.0480   -4.3680 C.3    43  ASN43       0.1653
     82  C          8.4130   -2.9540   -4.8660 C.2    43  ASN43       0.2266
     83  O          8.6330   -2.8190   -6.0730 O.2    43  ASN43      -0.2867
     84  CB         6.0540   -3.5400   -4.2560 C.3    43  ASN43       0.1155
     85  CG         5.0440   -4.6490   -4.3950 C.2    43  ASN43       0.2627
     86  OD1        5.4080   -5.8140   -4.5610 O.2    43  ASN43      -0.2716
     87  ND2        3.7620   -4.2980   -4.3360 N.am   43  ASN43      -0.0877
     88  N         11.2800   -4.5420   -6.4630 N.3    46  ALA46      -0.1245
     89  CA        10.9530   -5.0080   -7.8110 C.3    46  ALA46       0.1562
     90  C         11.2000   -3.8870   -8.8100 C.2    46  ALA46       0.2260
     91  O         11.8430   -4.0870   -9.8390 O.2    46  ALA46      -0.2867
     92  CB         9.5080   -5.4800   -7.8830 C.3    46  ALA46       0.0290
     93  N         14.9450   -3.3050   -9.0390 N.3    49  TYR49      -0.1227
     94  CA        15.4790   -4.3890   -9.8620 C.3    49  TYR49       0.1736
     95  C         15.2610   -4.1270  -11.3580 C.2    49  TYR49       0.2595
     96  O         16.2100   -4.1780  -12.1490 O.2    49  TYR49      -0.2718
     97  CB        14.8310   -5.7140   -9.4370 C.3    49  TYR49       0.0548
     98  CG        15.1890   -6.9390  -10.2610 C.ar   49  TYR49      -0.0200
     99  CD1       16.1440   -7.8530   -9.8090 C.ar   49  TYR49      -0.0009
    100  CD2       14.5440   -7.2040  -11.4740 C.ar   49  TYR49      -0.0009
    101  CE1       16.4570   -8.9850  -10.5500 C.ar   49  TYR49       0.0417
    102  CE2       14.8520   -8.3300  -12.2240 C.ar   49  TYR49       0.0417
    103  CZ        15.8040   -9.2180  -11.7580 C.ar   49  TYR49       0.1957
    104  OH        16.1030  -10.3340  -12.5020 O.3    49  TYR49      -0.2866
    105  N         14.0140   -3.8370  -11.7320 N.am   50  GLU50      -0.1979
    106  CA        13.6510   -3.6020  -13.1310 C.3    50  GLU50       0.1602
    107  C         14.3610   -2.4030  -13.7410 C.2    50  GLU50       0.2287
    108  O         14.5680   -2.3550  -14.9510 O.2    50  GLU50      -0.2864
    109  CB        12.1390   -3.4540  -13.2920 C.3    50  GLU50       0.0415
    110  CG        11.3320   -4.7200  -13.0310 C.3    50  GLU50       0.1163
    111  CD        11.7770   -5.9170  -13.8580 C.2    50  GLU50       0.3649
    112  OE1       12.4590   -5.7260  -14.8890 O.co2  50  GLU50      -0.2457
    113  OE2       11.4400   -7.0590  -13.4750 O.co2  50  GLU50      -0.2457
    114  N          6.1490  -14.1550    2.5830 N.3    77  VAL77      -0.1245
    115  CA         6.5950  -12.8670    2.0420 C.3    77  VAL77       0.1561
    116  C          8.0940  -12.6350    2.2540 C.2    77  VAL77       0.2260
    117  O          8.7730  -12.1470    1.3500 O.2    77  VAL77      -0.2867
    118  CB         5.6760  -11.6710    2.4420 C.3    77  VAL77       0.0252
    119  CG1        4.5990  -12.1000    3.4250 C.3    77  VAL77       0.0019
    120  CG2        6.4650  -10.4800    2.9670 C.3    77  VAL77       0.0019
    121  N          9.9750  -14.4080   -0.2590 N.3    80  LYS80      -0.1245
    122  CA        10.0450  -13.6520   -1.5160 C.3    80  LYS80       0.1561
    123  C         11.1890  -12.6410   -1.4980 C.2    80  LYS80       0.2260
    124  O         11.8640  -12.4420   -2.5110 O.2    80  LYS80      -0.2867
    125  CB         8.7260  -12.9400   -1.8220 C.3    80  LYS80       0.0271
    126  CG         7.5860  -13.8520   -2.2400 C.3    80  LYS80       0.0035
    127  CD         6.2420  -13.1790   -1.9990 C.3    80  LYS80       0.0206
    128  CE         5.1100  -13.9800   -2.6250 C.3    80  LYS80       0.1093
    129  NZ         3.7920  -13.2990   -2.5390 N.3    80  LYS80      -0.1314
    130  N         14.1170  -12.6020   -4.1690 N.3    84  ARG84      -0.1245
    131  CA        14.4400  -11.4730   -5.0330 C.3    84  ARG84       0.1563
    132  C         15.9010  -11.0550   -4.8950 C.2    84  ARG84       0.2260
    133  O         16.5180  -10.6400   -5.8780 O.2    84  ARG84      -0.2867
    134  CB        13.4940  -10.2940   -4.8100 C.3    84  ARG84       0.0307
    135  CG        13.6250   -9.2040   -5.8650 C.3    84  ARG84       0.0489
    136  CD        12.3740   -8.3520   -5.9280 C.3    84  ARG84       0.2205
    137  NE        11.2840   -9.0540   -6.5990 N.pl3  84  ARG84      -0.0865
    138  CZ         9.9970   -8.9060   -6.3030 C.cat  84  ARG84       0.5346
    139  NH1        9.6210   -8.0910   -5.3260 N.pl3  84  ARG84       0.1354
    140  NH2        9.0840   -9.5840   -6.9800 N.pl3  84  ARG84       0.1354
    141  N         17.6180  -13.3460   -7.2220 N.3    87  ASN87      -0.1240
    142  CA        17.5060  -12.8330   -8.5850 C.3    87  ASN87       0.1653
    143  C         18.4830  -11.6910   -8.8620 C.2    87  ASN87       0.2266
    144  O         19.1870  -11.7040   -9.8740 O.2    87  ASN87      -0.2867
    145  CB        16.0770  -12.3670   -8.8720 C.3    87  ASN87       0.1155
    146  CG        15.0860  -13.5160   -8.9730 C.2    87  ASN87       0.2627
    147  OD1       15.4170  -14.6770   -8.7130 O.2    87  ASN87      -0.2716
    148  ND2       13.8560  -13.1920   -9.3510 N.am   87  ASN87      -0.0877
@<TRIPOS>BOND
     1    49    47    1
     2    45    46    1
     3    45    44    1
     4    47    46    2
     5    47    48    1
     6    44    43    1
     7    43    40    1
     8    33    32    2
     9    37    36    1
    10    37    38    1
    11    36    35    1
    12    39    40    1
    13    40    41    1
    14    42    41    2
    15    32    31    1
    16    35    34    1
    17    58    60   ar
    18    58    56   ar
    19    60    59   ar
    20    31    34    1
    21    31    30    1
    22   108   107    2
    23   112   111   ar
    24    56    55   ar
    25    21    20    2
    26    59    57   ar
    27    30    20   am
    28   111   113   ar
    29   111   110    1
    30   107   106    1
    31    20    19    1
    32    55    57   ar
    33    55    54    1
    34    50    51    1
    35   109   106    1
    36   109   110    1
    37   106   105    1
    38   104   103    1
    39    54    51    1
    40    19    18    1
    41    19    22    1
    42   102   103   ar
    43   102   100   ar
    44    96    95    2
    45    51    52    1
    46    27    25   ar
    47    27    28   ar
    48   103   101   ar
    49    25    23   ar
    50    13    12    2
    51   105    95   am
    52    29    28    1
    53    28    26   ar
    54   100    98   ar
    55    95    94    1
    56    23    22    1
    57    23    24   ar
    58    26    24   ar
    59    52    53    2
    60    12    11    1
    61   101    99   ar
    62    98    99   ar
    63    98    97    1
    64   144   143    2
    65    94    97    1
    66    94    93    1
    67    91    90    2
    68   148   146   am
    69    11    14    1
    70    11    10    1
    71   146   145    1
    72   146   147    2
    73   145   142    1
    74   143   142    1
    75    90    89    1
    76    14    15    1
    77   142   141    1
    78    92    89    1
    79    89    88    1
    80    72    71    1
    81    15    16    2
    82    15    17   am
    83   140   138    1
    84    69    71   ar
    85    69    67   ar
    86    71    70   ar
    87   137   138    2
    88   137   136    1
    89   138   139    1
    90    83    82    2
    91   136   135    1
    92   133   132    2
    93   135   134    1
    94     4     3    2
    95    67    66   ar
    96    70    68   ar
    97   131   132    1
    98   131   134    1
    99   131   130    1
   100    82    81    1
   101     3     2    1
   102    86    85    2
   103    68    66   ar
   104    66    65    1
   105    85    87   am
   106    85    84    1
   107    81    84    1
   108    81    80    1
   109    61    62    1
   110     2     1    1
   111     2     5    1
   112    65    62    1
   113     8     9    1
   114     8     7    1
   115     6     5    1
   116     6     7    1
   117    62    63    1
   118   128   129    1
   119   128   127    1
   120   124   123    2
   121   126   127    1
   122   126   125    1
   123   125   122    1
   124   122   123    1
   125   122   121    1
   126    63    64    2
   127    76    75    2
   128    79    77    1
   129    75    74    1
   130    77    74    1
   131    77    78    1
   132    74    73    1
   133   117   116    2
   134   115   116    1
   135   115   118    1
   136   115   114    1
   137   118   120    1
   138   118   119    1
