@<TRIPOS>MOLECULE
tmp/3uq3A01.pdb
 106 99 0 0 0
SMALL
GASTEIGER

@<TRIPOS>ATOM
      1  N         50.2700  -34.2250  -17.4730 N.3   143  ARG143     -0.1245
      2  CA        50.7370  -35.1380  -18.5190 C.3   143  ARG143      0.1563
      3  C         52.0990  -35.7300  -18.1520 C.2   143  ARG143      0.2260
      4  O         52.3630  -36.9050  -18.4220 O.2   143  ARG143     -0.2867
      5  CB        50.8180  -34.4340  -19.8780 C.3   143  ARG143      0.0307
      6  CG        50.9950  -35.3730  -21.0640 C.3   143  ARG143      0.0489
      7  CD        51.2590  -34.6140  -22.3570 C.3   143  ARG143      0.2205
      8  NE        52.5580  -33.9390  -22.3430 N.pl3 143  ARG143     -0.0865
      9  CZ        53.7190  -34.5100  -22.6700 C.cat 143  ARG143      0.5346
     10  NH1       53.7690  -35.7800  -23.0550 N.pl3 143  ARG143      0.1354
     11  NH2       54.8400  -33.8040  -22.6150 N.pl3 143  ARG143      0.1354
     12  N         52.9190  -39.8590  -17.0890 N.3   147  LYS147     -0.1245
     13  CA        53.9480  -40.6630  -17.7520 C.3   147  LYS147      0.1561
     14  C         54.9170  -41.2580  -16.7270 C.2   147  LYS147      0.2260
     15  O         55.4190  -42.3710  -16.9050 O.2   147  LYS147     -0.2867
     16  CB        54.6970  -39.8360  -18.8060 C.3   147  LYS147      0.0271
     17  CG        55.6720  -40.6330  -19.6690 C.3   147  LYS147      0.0035
     18  CD        56.2700  -39.7760  -20.7790 C.3   147  LYS147      0.0206
     19  CE        57.6720  -40.2300  -21.1720 C.3   147  LYS147      0.1093
     20  NZ        57.7130  -41.5590  -21.8450 N.3   147  LYS147     -0.1314
     21  N         53.0540  -44.0640  -15.1150 N.3   150  PHE150     -0.1241
     22  CA        52.8920  -45.1150  -16.1170 C.3   150  PHE150      0.1605
     23  C         54.1920  -45.8940  -16.3250 C.2   150  PHE150      0.2264
     24  O         54.1590  -47.1060  -16.5450 O.2   150  PHE150     -0.2867
     25  CB        52.3890  -44.5380  -17.4490 C.3   150  PHE150      0.0534
     26  CG        51.6740  -45.5430  -18.3110 C.ar  150  PHE150     -0.0203
     27  CD1       50.2970  -45.7130  -18.2060 C.ar  150  PHE150     -0.0042
     28  CD2       52.3750  -46.3230  -19.2240 C.ar  150  PHE150     -0.0042
     29  CE1       49.6330  -46.6410  -18.9910 C.ar  150  PHE150     -0.0003
     30  CE2       51.7150  -47.2550  -20.0140 C.ar  150  PHE150     -0.0003
     31  CZ        50.3430  -47.4130  -19.8970 C.ar  150  PHE150     -0.0000
     32  N         45.9420  -38.4790  -15.0370 N.3   162  TYR162     -0.1241
     33  CA        45.3700  -38.2520  -16.3520 C.3   162  TYR162      0.1605
     34  C         43.9690  -37.6430  -16.2930 C.2   162  TYR162      0.2264
     35  O         43.5490  -36.9590  -17.2290 O.2   162  TYR162     -0.2867
     36  CB        45.4370  -39.5310  -17.1920 C.3   162  TYR162      0.0534
     37  CG        46.8460  -39.8390  -17.6970 C.ar  162  TYR162     -0.0201
     38  CD1       47.6630  -38.8240  -18.2160 C.ar  162  TYR162     -0.0009
     39  CD2       47.3580  -41.1390  -17.6680 C.ar  162  TYR162     -0.0009
     40  CE1       48.9450  -39.0910  -18.6770 C.ar  162  TYR162      0.0417
     41  CE2       48.6410  -41.4170  -18.1360 C.ar  162  TYR162      0.0417
     42  CZ        49.4250  -40.3880  -18.6420 C.ar  162  TYR162      0.1957
     43  OH        50.6890  -40.6490  -19.1140 O.3   162  TYR162     -0.2866
     44  N         44.8330  -36.5430  -25.8050 N.3   174  ARG174     -0.1245
     45  CA        45.8490  -37.3420  -25.1070 C.3   174  ARG174      0.1563
     46  C         45.4530  -37.7410  -23.6890 C.2   174  ARG174      0.2260
     47  O         45.8430  -38.8070  -23.2200 O.2   174  ARG174     -0.2867
     48  CB        47.1950  -36.6160  -25.0800 C.3   174  ARG174      0.0307
     49  CG        47.8430  -36.4530  -26.4500 C.3   174  ARG174      0.0489
     50  CD        49.0510  -35.5360  -26.3960 C.3   174  ARG174      0.2205
     51  NE        48.7010  -34.2110  -25.8880 N.pl3 174  ARG174     -0.0865
     52  CZ        49.5810  -33.2610  -25.5880 C.cat 174  ARG174      0.5346
     53  NH1       50.8830  -33.4710  -25.7410 N.pl3 174  ARG174      0.1354
     54  NH2       49.1640  -32.0970  -25.1240 N.pl3 174  ARG174      0.1354
     55  N         42.9840  -40.8270  -24.0210 N.3   177  SER177     -0.1202
     56  CA        43.7310  -41.9730  -24.5130 C.3   177  SER177      0.2020
     57  C         44.6640  -42.5070  -23.4300 C.2   177  SER177      0.2618
     58  O         44.7840  -43.7210  -23.2410 O.2   177  SER177     -0.2717
     59  CB        44.5270  -41.5780  -25.7480 C.3   177  SER177      0.2103
     60  OG        45.5560  -42.5140  -26.0110 O.3   177  SER177     -0.2182
     61  N         45.3100  -41.5850  -22.7190 N.am  178  ASN178     -0.1974
     62  CA        46.2060  -41.9200  -21.6190 C.3   178  ASN178      0.1688
     63  C         45.4870  -42.5710  -20.4390 C.2   178  ASN178      0.2292
     64  O         45.9310  -43.6130  -19.9470 O.2   178  ASN178     -0.2864
     65  CB        46.9630  -40.6800  -21.1650 C.3   178  ASN178      0.1181
     66  CG        48.0440  -40.2700  -22.1370 C.2   178  ASN178      0.2629
     67  OD1       48.4310  -41.0480  -23.0070 O.2   178  ASN178     -0.2716
     68  ND2       48.5430  -39.0380  -21.9940 N.am  178  ASN178     -0.0877
     69  N         44.6860  -45.9960  -21.4650 N.3   181  ALA181     -0.1245
     70  CA        45.8340  -46.9000  -21.3380 C.3   181  ALA181      0.1562
     71  C         45.9620  -47.4640  -19.9200 C.2   181  ALA181      0.2260
     72  O         46.0960  -48.6750  -19.7510 O.2   181  ALA181     -0.2867
     73  CB        47.1260  -46.2080  -21.7510 C.3   181  ALA181      0.0290
     74  N         43.5160  -39.3350  -34.4070 N.3   206  PHE206     -0.1241
     75  CA        44.4190  -39.8290  -33.3740 C.3   206  PHE206      0.1605
     76  C         44.4400  -41.3510  -33.3810 C.2   206  PHE206      0.2264
     77  O         43.5600  -41.9920  -32.8090 O.2   206  PHE206     -0.2867
     78  CB        43.9920  -39.2710  -32.0110 C.3   206  PHE206      0.0534
     79  CG        44.9810  -39.5120  -30.9030 C.ar  206  PHE206     -0.0203
     80  CD1       46.3470  -39.3540  -31.1090 C.ar  206  PHE206     -0.0042
     81  CD2       44.5340  -39.8570  -29.6320 C.ar  206  PHE206     -0.0042
     82  CE1       47.2500  -39.5690  -30.0790 C.ar  206  PHE206     -0.0003
     83  CE2       45.4320  -40.0690  -28.5990 C.ar  206  PHE206     -0.0003
     84  CZ        46.7930  -39.9300  -28.8220 C.ar  206  PHE206     -0.0000
     85  N         46.5470  -43.9010  -32.2340 N.3   208  ARG208     -0.1245
     86  CA        46.8160  -44.6640  -31.0160 C.3   208  ARG208      0.1563
     87  C         45.5290  -44.9670  -30.2410 C.2   208  ARG208      0.2260
     88  O         45.3960  -46.0400  -29.6440 O.2   208  ARG208     -0.2867
     89  CB        47.8480  -43.9140  -30.1550 C.3   208  ARG208      0.0307
     90  CG        48.2210  -44.5350  -28.8080 C.3   208  ARG208      0.0489
     91  CD        48.5870  -46.0110  -28.8990 C.3   208  ARG208      0.2205
     92  NE        49.7280  -46.2580  -29.7760 N.pl3 208  ARG208     -0.0865
     93  CZ        50.1110  -47.4650  -30.1930 C.cat 208  ARG208      0.5346
     94  NH1       49.4390  -48.5490  -29.8190 N.pl3 208  ARG208      0.1354
     95  NH2       51.1680  -47.5900  -30.9880 N.pl3 208  ARG208      0.1354
     96  N         44.0440  -48.6820  -29.0270 N.3   212  ARG212     -0.1245
     97  CA        43.6330  -49.0150  -27.6630 C.3   212  ARG212      0.1563
     98  C         42.1990  -49.5180  -27.6080 C.2   212  ARG212      0.2260
     99  O         41.9260  -50.5300  -26.9690 O.2   212  ARG212     -0.2867
    100  CB        43.7750  -47.8200  -26.7330 C.3   212  ARG212      0.0307
    101  CG        45.2020  -47.4300  -26.4410 C.3   212  ARG212      0.0489
    102  CD        45.2900  -46.6100  -25.1700 C.3   212  ARG212      0.2205
    103  NE        46.4250  -45.7000  -25.2530 N.pl3 212  ARG212     -0.0865
    104  CZ        47.6950  -46.0650  -25.1010 C.cat 212  ARG212      0.5346
    105  NH1       48.6590  -45.1630  -25.2090 N.pl3 212  ARG212      0.1354
    106  NH2       48.0020  -47.3270  -24.8360 N.pl3 212  ARG212      0.1354
@<TRIPOS>BOND
     1    74    75    1
     2    76    75    1
     3    76    77    2
     4    75    78    1
     5    85    86    1
     6    78    79    1
     7    80    79   ar
     8    80    82   ar
     9    86    87    1
    10    86    89    1
    11    95    93    1
    12    79    81   ar
    13    87    88    2
    14    93    94    1
    15    93    92    2
    16    89    90    1
    17    82    84   ar
    18    92    91    1
    19    81    83   ar
    20    96    97    1
    21    91    90    1
    22    84    83   ar
    23    97    98    1
    24    97   100    1
    25    98    99    2
    26   100   101    1
    27    49    50    1
    28    49    48    1
    29   101   102    1
    30    50    51    1
    31    60    59    1
    32    51    52    2
    33    44    45    1
    34    59    56    1
    35    53    52    1
    36    52    54    1
    37   103   102    1
    38   103   104    2
    39   105   104    1
    40    45    48    1
    41    45    46    1
    42   104   106    1
    43    56    55    1
    44    56    57    1
    45    46    47    2
    46    57    58    2
    47    57    61   am
    48    10     9    1
    49    67    66    2
    50    61    62    1
    51     9    11    1
    52     9     8    2
    53     7     8    1
    54     7     6    1
    55    66    68   am
    56    66    65    1
    57    20    19    1
    58    73    70    1
    59    62    65    1
    60    62    63    1
    61    69    70    1
    62    70    71    1
    63    19    18    1
    64     6     5    1
    65    18    17    1
    66    63    64    2
    67    30    31   ar
    68    30    28   ar
    69    71    72    2
    70    31    29   ar
    71     5     2    1
    72    17    16    1
    73    28    26   ar
    74    43    42    1
    75    29    27   ar
    76    16    13    1
    77    40    42   ar
    78    40    38   ar
    79    42    41   ar
    80     2     3    1
    81     2     1    1
    82     4     3    2
    83    26    27   ar
    84    26    25    1
    85    38    37   ar
    86    41    39   ar
    87    13    12    1
    88    13    14    1
    89    37    39   ar
    90    37    36    1
    91    25    22    1
    92    35    34    2
    93    36    33    1
    94    15    14    2
    95    24    23    2
    96    33    34    1
    97    33    32    1
    98    23    22    1
    99    22    21    1
