@<TRIPOS>MOLECULE
tmp/3uq6B01.pdb
 123 113 0 0 0
SMALL
GASTEIGER

@<TRIPOS>ATOM
      1  N         25.5110  -28.4470  -37.6670 N.3   215  ASN215     -0.1240
      2  CA        24.5970  -27.7420  -38.5560 C.3   215  ASN215      0.1653
      3  C         25.2690  -27.3530  -39.8700 C.2   215  ASN215      0.2266
      4  O         26.4180  -27.7160  -40.1160 O.2   215  ASN215     -0.2867
      5  CB        23.9690  -26.5250  -37.8630 C.3   215  ASN215      0.1155
      6  CG        24.9970  -25.5000  -37.4110 C.2   215  ASN215      0.2627
      7  OD1       26.0590  -25.3480  -38.0150 O.2   215  ASN215     -0.2716
      8  ND2       24.6770  -24.7810  -36.3410 N.am  215  ASN215     -0.0877
      9  N         22.0380  -30.8370  -39.4310 N.3   258  THR258     -0.1203
     10  CA        20.8000  -30.0790  -39.5580 C.3   258  THR258      0.1994
     11  C         21.0140  -28.8680  -40.4600 C.2   258  THR258      0.2618
     12  O         22.1110  -28.3140  -40.5160 O.2   258  THR258     -0.2717
     13  CB        20.2760  -29.6200  -38.1850 C.3   258  THR258      0.1784
     14  OG1       21.2510  -28.7830  -37.5510 O.3   258  THR258     -0.2211
     15  CG2       19.9940  -30.8240  -37.2960 C.3   258  THR258      0.0376
     16  N         19.9710  -28.4700  -41.1810 N.am  259  ARG259     -0.1965
     17  CA        20.0680  -27.3350  -42.0930 C.3   259  ARG259      0.1729
     18  C         18.8740  -26.3980  -41.9390 C.2   259  ARG259      0.2617
     19  O         18.1950  -26.0770  -42.9140 O.2   259  ARG259     -0.2715
     20  CB        20.1840  -27.8160  -43.5440 C.3   259  ARG259      0.0348
     21  CG        21.3120  -28.8120  -43.7770 C.3   259  ARG259      0.0492
     22  CD        21.3470  -29.3090  -45.2120 C.3   259  ARG259      0.2205
     23  NE        22.2960  -28.5620  -46.0330 N.pl3 259  ARG259     -0.0865
     24  CZ        22.5670  -28.8470  -47.3030 C.cat 259  ARG259      0.5346
     25  NH1       21.9590  -29.8630  -47.9010 N.pl3 259  ARG259      0.1354
     26  NH2       23.4470  -28.1170  -47.9760 N.pl3 259  ARG259      0.1354
     27  N         18.6250  -25.9680  -40.7050 N.am  260  GLY260     -0.1940
     28  CA        17.5510  -25.0340  -40.4170 C.3   260  GLY260      0.2014
     29  C         16.1720  -25.5800  -40.7340 C.2   260  GLY260      0.2638
     30  O         15.7500  -26.5910  -40.1730 O.2   260  GLY260     -0.2714
     31  N         15.4680  -24.9020  -41.6340 N.am  261  LYS261     -0.1977
     32  CA        14.1350  -25.3250  -42.0480 C.3   261  LYS261      0.1596
     33  C         14.2220  -26.3170  -43.2020 C.2   261  LYS261      0.2287
     34  O         13.2530  -27.0080  -43.5170 O.2   261  LYS261     -0.2864
     35  CB        13.2910  -24.1150  -42.4520 C.3   261  LYS261      0.0298
     36  CG        13.9030  -23.2780  -43.5640 C.3   261  LYS261      0.0038
     37  CD        13.0840  -22.0230  -43.8330 C.3   261  LYS261      0.0206
     38  CE        13.7420  -21.1510  -44.8900 C.3   261  LYS261      0.1093
     39  NZ        12.9760  -19.8970  -45.1390 N.3   261  LYS261     -0.1314
     40  N         17.4190  -32.0490  -43.1270 N.3   264  LEU264     -0.1245
     41  CA        18.7160  -32.3580  -42.5490 C.3   264  LEU264      0.1561
     42  C         19.3560  -33.5260  -43.2870 C.2   264  LEU264      0.2260
     43  O         18.6860  -34.2530  -44.0190 O.2   264  LEU264     -0.2867
     44  CB        18.5810  -32.6660  -41.0540 C.3   264  LEU264      0.0270
     45  CG        17.6790  -33.8290  -40.6340 C.3   264  LEU264      0.0019
     46  CD1       18.4720  -35.1220  -40.4910 C.3   264  LEU264      0.0001
     47  CD2       16.9490  -33.4980  -39.3420 C.3   264  LEU264      0.0001
     48  N         12.1600  -31.6340  -42.5390 N.3   279  VAL279     -0.1231
     49  CA        11.7480  -31.0800  -41.2560 C.3   279  VAL279      0.1692
     50  C         10.3770  -30.4260  -41.3750 C.2   279  VAL279      0.2591
     51  O         10.2190  -29.4100  -42.0470 O.2   279  VAL279     -0.2718
     52  CB        12.7650  -30.0540  -40.7280 C.3   279  VAL279      0.0266
     53  CG1       12.2650  -29.4280  -39.4350 C.3   279  VAL279      0.0020
     54  CG2       14.1200  -30.7140  -40.5180 C.3   279  VAL279      0.0020
     55  N          9.3880  -31.0220  -40.7200 N.am  280  GLU280     -0.1979
     56  CA         8.0160  -30.5390  -40.7960 C.3   280  GLU280      0.1602
     57  C          7.7650  -29.4190  -39.7930 C.2   280  GLU280      0.2287
     58  O          7.5410  -28.2700  -40.1750 O.2   280  GLU280     -0.2864
     59  CB         7.0380  -31.6920  -40.5630 C.3   280  GLU280      0.0415
     60  CG         7.1920  -32.8340  -41.5540 C.3   280  GLU280      0.1163
     61  CD         6.4240  -34.0750  -41.1420 C.2   280  GLU280      0.3649
     62  OE1        5.8750  -34.0910  -40.0190 O.co2 280  GLU280     -0.2457
     63  OE2        6.3710  -35.0350  -41.9400 O.co2 280  GLU280     -0.2457
     64  N          5.9280  -20.0820  -32.3110 N.3   281  ILE281     -0.1245
     65  CA         7.3580  -19.8830  -32.5200 C.3   281  ILE281      0.1561
     66  C          7.8460  -18.6190  -31.8200 C.2   281  ILE281      0.2260
     67  O          7.5950  -17.5060  -32.2820 O.2   281  ILE281     -0.2867
     68  CB         7.7030  -19.7970  -34.0180 C.3   281  ILE281      0.0252
     69  CG1        7.2230  -21.0430  -34.7500 C.3   281  ILE281      0.0019
     70  CG2        9.2040  -19.5900  -34.1950 C.3   281  ILE281      0.0019
     71  CD1        7.3590  -20.8210  -36.2630 C.3   281  ILE281      0.0001
     72  N         14.3860  -19.3570  -31.2320 N.3   284  THR284     -0.1218
     73  CA        15.1170  -20.5090  -31.7550 C.3   284  THR284      0.1862
     74  C         16.4680  -20.6780  -31.0650 C.2   284  THR284      0.2287
     75  O         17.3150  -21.4520  -31.5140 O.2   284  THR284     -0.2866
     76  CB        15.3470  -20.3930  -33.2750 C.3   284  THR284      0.1770
     77  OG1       16.2700  -19.3290  -33.5420 O.3   284  THR284     -0.2211
     78  CG2       14.0350  -20.1200  -33.9950 C.3   284  THR284      0.0375
     79  N         17.8190  -24.4390  -30.2660 N.3   287  ALA287     -0.1231
     80  CA        17.0440  -25.4350  -30.9940 C.3   287  ALA287      0.1694
     81  C         17.9060  -26.6510  -31.3130 C.2   287  ALA287      0.2592
     82  O         17.4280  -27.7850  -31.2940 O.2   287  ALA287     -0.2718
     83  CB        16.4710  -24.8360  -32.2690 C.3   287  ALA287      0.0304
     84  N         19.1790  -26.4030  -31.6000 N.am  288  GLY288     -0.1957
     85  CA        20.1280  -27.4670  -31.8690 C.3   288  GLY288      0.1869
     86  C         20.3930  -28.3260  -30.6480 C.2   288  GLY288      0.2309
     87  O         20.5420  -29.5450  -30.7580 O.2   288  GLY288     -0.2863
     88  N         17.4360  -30.5540  -30.3000 N.3   291  PHE291     -0.1241
     89  CA        17.4520  -31.5840  -31.3310 C.3   291  PHE291      0.1605
     90  C         18.2960  -32.7620  -30.8680 C.2   291  PHE291      0.2264
     91  O         17.8740  -33.9140  -30.9570 O.2   291  PHE291     -0.2867
     92  CB        18.0070  -31.0260  -32.6440 C.3   291  PHE291      0.0534
     93  CG        18.0220  -32.0240  -33.7750 C.ar  291  PHE291     -0.0203
     94  CD1       16.9310  -32.1460  -34.6200 C.ar  291  PHE291     -0.0042
     95  CD2       19.1300  -32.8280  -33.9990 C.ar  291  PHE291     -0.0042
     96  CE1       16.9410  -33.0550  -35.6640 C.ar  291  PHE291     -0.0003
     97  CE2       19.1440  -33.7420  -35.0400 C.ar  291  PHE291     -0.0003
     98  CZ        18.0480  -33.8550  -35.8730 C.ar  291  PHE291     -0.0000
     99  N         13.2410  -33.6250  -33.8900 N.3   313  VAL313     -0.1245
    100  CA        12.5340  -32.4760  -34.4430 C.3   313  VAL313      0.1561
    101  C         11.4280  -32.0230  -33.4910 C.2   313  VAL313      0.2260
    102  O         11.1850  -30.8270  -33.3290 O.2   313  VAL313     -0.2867
    103  CB        11.9440  -32.7960  -35.8340 C.3   313  VAL313      0.0252
    104  CG1       11.1020  -31.6390  -36.3460 C.3   313  VAL313      0.0019
    105  CG2       13.0590  -33.1170  -36.8180 C.3   313  VAL313      0.0019
    106  N         13.0860  -29.9850  -30.6830 N.3   316  ALA316     -0.1231
    107  CA        13.4940  -28.6680  -31.1600 C.3   316  ALA316      0.1694
    108  C         12.2920  -27.7450  -31.3350 C.2   316  ALA316      0.2591
    109  O         12.3650  -26.5560  -31.0300 O.2   316  ALA316     -0.2718
    110  CB        14.2690  -28.7890  -32.4660 C.3   316  ALA316      0.0304
    111  N         11.1860  -28.3040  -31.8170 N.am  317  ALA317     -0.1980
    112  CA         9.9660  -27.5340  -32.0390 C.3   317  ALA317      0.1597
    113  C          9.3560  -27.0470  -30.7280 C.2   317  ALA317      0.2287
    114  O          8.7310  -25.9870  -30.6810 O.2   317  ALA317     -0.2864
    115  CB         8.9540  -28.3580  -32.8220 C.3   317  ALA317      0.0319
    116  N         11.4310  -24.0710  -29.5580 N.3   320  ILE320     -0.1245
    117  CA        11.1360  -22.9620  -30.4590 C.3   320  ILE320      0.1561
    118  C          9.9250  -22.1480  -29.9970 C.2   320  ILE320      0.2260
    119  O          9.9400  -20.9170  -30.0390 O.2   320  ILE320     -0.2867
    120  CB        10.9290  -23.4680  -31.9050 C.3   320  ILE320      0.0252
    121  CG1       12.2820  -23.7710  -32.5510 C.3   320  ILE320      0.0019
    122  CG2       10.1680  -22.4520  -32.7390 C.3   320  ILE320      0.0019
    123  CD1       12.1800  -24.2660  -33.9720 C.3   320  ILE320      0.0001
@<TRIPOS>BOND
     1    26    24    1
     2    25    24    1
     3    24    23    2
     4    23    22    1
     5    22    21    1
     6    39    38    1
     7    38    37    1
     8    43    42    2
     9    37    36    1
    10    21    20    1
    11    36    35    1
    12    20    17    1
    13    34    33    2
    14    42    41    1
    15    33    32    1
    16    40    41    1
    17    19    18    2
    18    41    44    1
    19    48    49    1
    20    35    32    1
    21    17    18    1
    22    17    16    1
    23    32    31    1
    24    51    50    2
    25    63    61   ar
    26    18    27   am
    27    31    29   am
    28    60    61    1
    29    60    59    1
    30    50    49    1
    31    50    55   am
    32    49    52    1
    33    16    11   am
    34    61    62   ar
    35    44    45    1
    36    56    55    1
    37    56    59    1
    38    56    57    1
    39    29    28    1
    40    29    30    2
    41    52    54    1
    42    52    53    1
    43    27    28    1
    44    45    46    1
    45    45    47    1
    46    12    11    2
    47    11    10    1
    48    58    57    2
    49     4     3    2
    50     3     2    1
    51    10     9    1
    52    10    13    1
    53     2     5    1
    54     2     1    1
    55    13    14    1
    56    13    15    1
    57     7     6    2
    58     5     6    1
    59     6     8   am
    60   105   103    1
    61   104   103    1
    62    71    69    1
    63    98    96   ar
    64    98    97   ar
    65   103   100    1
    66    96    94   ar
    67    97    95   ar
    68    69    68    1
    69    94    93   ar
    70   100    99    1
    71   100   101    1
    72    70    68    1
    73    68    65    1
    74    95    93   ar
    75    78    76    1
    76   123   121    1
    77    93    92    1
    78    77    76    1
    79   101   102    2
    80    76    73    1
    81   115   112    1
    82   122   120    1
    83    92    89    1
    84   121   120    1
    85    65    64    1
    86    65    66    1
    87   110   107    1
    88    67    66    2
    89    83    80    1
    90   112   111    1
    91   112   113    1
    92   120   117    1
    93    85    84    1
    94    85    86    1
    95   111   108   am
    96    73    72    1
    97    73    74    1
    98    84    81   am
    99    75    74    2
   100   108   107    1
   101   108   109    2
   102    89    90    1
   103    89    88    1
   104    81    82    2
   105    81    80    1
   106   107   106    1
   107    80    79    1
   108    91    90    2
   109    87    86    2
   110   113   114    2
   111   117   118    1
   112   117   116    1
   113   119   118    2
