@<TRIPOS>MOLECULE
tmp/3uq8A01.pdb
 142 132 0 0 0
SMALL
GASTEIGER

@<TRIPOS>ATOM
      1  N         53.8490   55.4780   59.5120 N.3    78  LEU78      -0.1245
      2  CA        53.0540   54.9390   60.5920 C.3    78  LEU78       0.1561
      3  C         53.5920   53.5410   61.0480 C.2    78  LEU78       0.2260
      4  O         54.2830   52.8310   60.2740 O.2    78  LEU78      -0.2867
      5  CB        51.6070   54.7820   60.1080 C.3    78  LEU78       0.0270
      6  CG        50.8630   56.1240   59.7830 C.3    78  LEU78       0.0019
      7  CD1       49.4300   55.8010   59.3090 C.3    78  LEU78       0.0001
      8  CD2       50.8870   57.0480   61.0570 C.3    78  LEU78       0.0001
      9  N         52.3370   49.6580   62.4670 N.3    80  LEU80      -0.1245
     10  CA        51.2950   48.7420   61.9910 C.3    80  LEU80       0.1561
     11  C         50.8710   47.9010   63.1930 C.2    80  LEU80       0.2260
     12  O         51.7130   47.2450   63.7870 O.2    80  LEU80      -0.2867
     13  CB        51.8500   47.8740   60.8290 C.3    80  LEU80       0.0270
     14  CG        50.8390   46.9150   60.1410 C.3    80  LEU80       0.0019
     15  CD1       49.5600   47.5850   59.7180 C.3    80  LEU80       0.0001
     16  CD2       51.4680   46.2080   58.8900 C.3    80  LEU80       0.0001
     17  N         47.5210   41.7280   51.2600 N.3   112  GLU112     -0.1231
     18  CA        48.8790   41.4330   50.8210 C.3   112  GLU112      0.1684
     19  C         49.5180   40.4050   51.7580 C.2   112  GLU112      0.2434
     20  O         49.2780   40.4370   52.9620 O.2   112  GLU112     -0.2733
     21  CB        49.7500   42.6820   50.9370 C.3   112  GLU112      0.0402
     22  CG        49.2410   43.9220   50.1390 C.3   112  GLU112      0.1161
     23  CD        50.1720   45.1130   50.2860 C.2   112  GLU112      0.3649
     24  OE1       51.3560   45.0120   50.7320 O.co2 112  GLU112     -0.2457
     25  OE2       49.6500   46.2290   49.9550 O.co2 112  GLU112     -0.2457
     26  N         50.4160   39.5620   51.2300 N.am  113  PRO113     -0.2718
     27  CA        51.3270   38.7970   52.0330 C.3   113  PRO113      0.1535
     28  C         52.3190   39.7630   52.6910 C.2   113  PRO113      0.2598
     29  O         52.6580   40.8130   52.0950 O.2   113  PRO113     -0.2715
     30  CB        52.0300   37.8720   51.0310 C.3   113  PRO113      0.0310
     31  CG        51.6980   38.3850   49.6750 C.3   113  PRO113      0.0237
     32  CD        50.6660   39.4590   49.7680 C.3   113  PRO113      0.0939
     33  N         52.6360   39.4800   53.9530 N.am  114  LYS114     -0.1964
     34  CA        53.5950   40.2780   54.6860 C.3   114  LYS114      0.1728
     35  C         54.9180   39.5110   54.5650 C.2   114  LYS114      0.2616
     36  O         55.0360   38.3980   55.1190 O.2   114  LYS114     -0.2715
     37  CB        53.1890   40.3630   56.1900 C.3   114  LYS114      0.0311
     38  CG        53.8040   41.5180   57.0210 C.3   114  LYS114      0.0038
     39  CD        55.2180   41.4600   57.1940 C.3   114  LYS114      0.0206
     40  CE        55.6260   42.5090   58.3510 C.3   114  LYS114      0.1093
     41  NZ        57.1100   42.4300   58.1280 N.3   114  LYS114     -0.1314
     42  N         55.8730   40.0180   53.7710 N.am  115  LEU115     -0.1977
     43  CA        57.1120   39.3000   53.4550 C.3   115  LEU115      0.1596
     44  C         57.9940   39.2520   54.6920 C.2   115  LEU115      0.2287
     45  O         58.1910   40.2450   55.3520 O.2   115  LEU115     -0.2864
     46  CB        57.8840   39.9700   52.2440 C.3   115  LEU115      0.0297
     47  CG        57.3580   39.6960   50.7920 C.3   115  LEU115      0.0022
     48  CD1       57.4570   38.1690   50.5030 C.3   115  LEU115      0.0001
     49  CD2       55.9120   40.1600   50.5700 C.3   115  LEU115      0.0001
     50  N         61.0770   39.6940   55.9720 N.3   117  GLY117     -0.1210
     51  CA        62.3870   40.2460   55.5450 C.3   117  GLY117      0.1956
     52  C         62.7420   41.5240   56.3410 C.2   117  GLY117      0.2612
     53  O         62.5020   41.5950   57.5760 O.2   117  GLY117     -0.2717
     54  N         63.2490   42.5480   55.6490 N.am  118  LEU118     -0.1965
     55  CA        63.5520   43.8140   56.2870 C.3   118  LEU118      0.1728
     56  C         62.8490   44.8840   55.4600 C.2   118  LEU118      0.2616
     57  O         62.9280   44.8550   54.2080 O.2   118  LEU118     -0.2715
     58  CB        65.1030   44.0500   56.3510 C.3   118  LEU118      0.0311
     59  CG        65.5450   45.3580   57.0410 C.3   118  LEU118      0.0022
     60  CD1       65.1980   45.0500   58.5070 C.3   118  LEU118      0.0001
     61  CD2       67.0080   45.6350   56.8810 C.3   118  LEU118      0.0001
     62  N         62.1700   45.8190   56.1350 N.am  119  ALA119     -0.1977
     63  CA        61.4150   46.8660   55.4200 C.3   119  ALA119      0.1597
     64  C         62.3900   47.9980   55.0370 C.2   119  ALA119      0.2287
     65  O         63.3290   48.3470   55.7730 O.2   119  ALA119     -0.2864
     66  CB        60.3300   47.4270   56.3300 C.3   119  ALA119      0.0319
     67  N         63.7190   51.0280   56.8660 N.3   135  ARG135     -0.1245
     68  CA        62.5890   51.6700   57.5340 C.3   135  ARG135      0.1563
     69  C         63.0150   52.0310   58.9460 C.2   135  ARG135      0.2260
     70  O         62.6300   53.0870   59.4600 O.2   135  ARG135     -0.2867
     71  CB        61.3960   50.7250   57.5630 C.3   135  ARG135      0.0307
     72  CG        60.1980   51.3450   58.3130 C.3   135  ARG135      0.0489
     73  CD        58.9340   50.4610   58.1710 C.3   135  ARG135      0.2205
     74  NE        57.8800   51.0190   59.0300 N.pl3 135  ARG135     -0.0865
     75  CZ        57.8430   50.9360   60.3710 C.cat 135  ARG135      0.5346
     76  NH1       58.7980   50.2550   61.0460 N.pl3 135  ARG135      0.1354
     77  NH2       56.8990   51.5590   61.0370 N.pl3 135  ARG135      0.1354
     78  N         59.5330   45.4550   51.2410 N.3   172  GLU172     -0.1245
     79  CA        60.2130   44.5010   52.0920 C.3   172  GLU172      0.1567
     80  C         61.2760   43.8090   51.1770 C.2   172  GLU172      0.2260
     81  O         60.9700   43.4120   50.0320 O.2   172  GLU172     -0.2867
     82  CB        59.2350   43.4080   52.6100 C.3   172  GLU172      0.0388
     83  CG        59.8670   42.5920   53.7180 C.3   172  GLU172      0.1160
     84  CD        59.7380   43.1910   55.1110 C.2   172  GLU172      0.3649
     85  OE1       60.3490   42.5800   55.9710 O.co2 172  GLU172     -0.2457
     86  OE2       59.0140   44.1500   55.5230 O.co2 172  GLU172     -0.2457
     87  N         64.5820   35.5030   57.2700 N.3   199  ARG199     -0.1245
     88  CA        64.3660   36.9110   57.7030 C.3   199  ARG199      0.1563
     89  C         65.7130   37.5340   58.1760 C.2   199  ARG199      0.2260
     90  O         66.1360   38.6100   57.7430 O.2   199  ARG199     -0.2867
     91  CB        63.3130   36.9970   58.8720 C.3   199  ARG199      0.0307
     92  CG        63.1320   38.4520   59.3580 C.3   199  ARG199      0.0489
     93  CD        62.1560   38.3420   60.5300 C.3   199  ARG199      0.2205
     94  NE        61.8240   39.6620   61.0110 N.pl3 199  ARG199     -0.0865
     95  CZ        60.8700   40.4460   60.4790 C.cat 199  ARG199      0.5346
     96  NH1       60.0770   40.0070   59.5050 N.pl3 199  ARG199      0.1354
     97  NH2       60.6880   41.6520   61.0070 N.pl3 199  ARG199      0.1354
     98  N         55.3490   47.4730   48.8080 N.3   224  TYR224     -0.1241
     99  CA        54.0300   47.4950   49.4090 C.3   224  TYR224      0.1605
    100  C         53.4040   48.8690   49.3570 C.2   224  TYR224      0.2264
    101  O         52.2120   49.0010   49.6070 O.2   224  TYR224     -0.2867
    102  CB        54.1010   46.9590   50.8660 C.3   224  TYR224      0.0534
    103  CG        54.7870   47.9180   51.8760 C.ar  224  TYR224     -0.0201
    104  CD1       54.2320   49.1710   52.2100 C.ar  224  TYR224     -0.0009
    105  CD2       55.9680   47.5340   52.5030 C.ar  224  TYR224     -0.0009
    106  CE1       54.8450   50.0280   53.1350 C.ar  224  TYR224      0.0417
    107  CE2       56.6360   48.3880   53.4220 C.ar  224  TYR224      0.0417
    108  CZ        56.0560   49.5990   53.7640 C.ar  224  TYR224      0.1957
    109  OH        56.7050   50.4340   54.6610 O.3   224  TYR224     -0.2866
    110  N         55.2610   35.9200   56.7750 N.3   284  ASP284     -0.1239
    111  CA        55.0220   36.0850   58.2110 C.3   284  ASP284      0.1674
    112  C         53.5200   36.1860   58.5870 C.2   284  ASP284      0.2266
    113  O         53.1580   35.9720   59.7520 O.2   284  ASP284     -0.2867
    114  CB        55.7600   37.4420   58.5670 C.3   284  ASP284      0.1410
    115  CG        55.9980   37.6330   60.0370 C.2   284  ASP284      0.3668
    116  OD1       56.1800   38.7880   60.3930 O.co2 284  ASP284     -0.2456
    117  OD2       55.9500   36.6680   60.8310 O.co2 284  ASP284     -0.2456
    118  N         48.9770   41.6680   55.3690 N.3   287  VAL287     -0.1245
    119  CA        48.6570   43.0630   55.7050 C.3   287  VAL287      0.1561
    120  C         47.3700   43.3850   54.9350 C.2   287  VAL287      0.2260
    121  O         47.2830   43.2170   53.7200 O.2   287  VAL287     -0.2867
    122  CB        49.7510   44.0820   55.3470 C.3   287  VAL287      0.0252
    123  CG1       49.3140   45.4210   55.9280 C.3   287  VAL287      0.0019
    124  CG2       51.0580   43.6760   56.0030 C.3   287  VAL287      0.0019
    125  N         44.4000   45.9230   54.0370 N.3   289  LYS289     -0.1245
    126  CA        44.3050   47.4060   53.9460 C.3   289  LYS289      0.1561
    127  C         43.0050   47.8110   53.3110 C.2   289  LYS289      0.2260
    128  O         42.6230   47.2930   52.2210 O.2   289  LYS289     -0.2867
    129  CB        45.4170   47.9540   53.0150 C.3   289  LYS289      0.0271
    130  CG        46.7840   47.5200   53.4420 C.3   289  LYS289      0.0035
    131  CD        47.8420   48.0620   52.4510 C.3   289  LYS289      0.0206
    132  CE        49.2120   47.5420   52.9420 C.3   289  LYS289      0.1093
    133  NZ        50.3290   47.8660   51.9910 N.3   289  LYS289     -0.1314
    134  N         48.8270   38.2610   61.6600 N.3   313  LYS313     -0.1245
    135  CA        50.0460   37.4780   61.7070 C.3   313  LYS313      0.1561
    136  C         49.7110   35.9990   61.7880 C.2   313  LYS313      0.2260
    137  O         48.6540   35.6430   62.3430 O.2   313  LYS313     -0.2867
    138  CB        50.7920   37.8290   63.0000 C.3   313  LYS313      0.0271
    139  CG        51.5020   39.1600   62.9730 C.3   313  LYS313      0.0035
    140  CD        52.7370   39.1150   62.0300 C.3   313  LYS313      0.0206
    141  CE        53.8230   40.2000   62.3620 C.3   313  LYS313      0.1093
    142  NZ        53.6460   41.3950   61.4560 N.3   313  LYS313     -0.1314
@<TRIPOS>BOND
     1    98    99    1
     2   100    99    1
     3   100   101    2
     4    99   102    1
     5    31    32    1
     6    31    30    1
     7    32    26    1
     8    25    23   ar
     9    81    80    2
    10    22    23    1
    11    22    21    1
    12    23    24   ar
    13    48    47    1
    14    49    47    1
    15    47    46    1
    16    18    21    1
    17    18    17    1
    18    18    19    1
    19   102   103    1
    20    30    27    1
    21    80    79    1
    22    26    19   am
    23    26    27    1
    24    78    79    1
    25    19    20    2
    26   103   104   ar
    27   103   105   ar
    28   133   132    1
    29    27    28    1
    30    79    82    1
    31    29    28    2
    32   104   106   ar
    33   128   127    2
    34    46    43    1
    35   131   132    1
    36   131   130    1
    37   105   107   ar
    38    82    83    1
    39    28    33   am
    40   129   130    1
    41   129   126    1
    42   106   108   ar
    43   127   126    1
    44   107   108   ar
    45    43    42    1
    46    43    44    1
    47    83    84    1
    48   121   120    2
    49   108   109    1
    50    42    35   am
    51   126   125    1
    52    33    34    1
    53    57    56    2
    54    35    34    1
    55    35    36    2
    56    34    37    1
    57    44    45    2
    58   120   119    1
    59    64    63    1
    60    64    65    2
    61    84    86   ar
    62    84    85   ar
    63   122   119    1
    64   122   123    1
    65   122   124    1
    66   118   119    1
    67    63    62    1
    68    63    66    1
    69    56    62   am
    70    56    55    1
    71    51    50    1
    72    51    52    1
    73    54    55    1
    74    54    52   am
    75    37    38    1
    76    55    58    1
    77    52    53    2
    78    58    59    1
    79   110   111    1
    80    67    68    1
    81    61    59    1
    82    38    39    1
    83    59    60    1
    84    39    40    1
    85    87    88    1
    86    68    71    1
    87    68    69    1
    88    71    72    1
    89    88    89    1
    90    88    91    1
    91    90    89    2
    92    41    40    1
    93    73    72    1
    94    73    74    1
    95   111   114    1
    96   111   112    1
    97   114   115    1
    98   112   113    2
    99    91    92    1
   100    16    14    1
   101    69    70    2
   102    74    75    2
   103     7     6    1
   104    92    93    1
   105    96    95    1
   106     1     2    1
   107    15    14    1
   108     6     5    1
   109     6     8    1
   110   115   116   ar
   111   115   117   ar
   112     5     2    1
   113    14    13    1
   114     4     3    2
   115    75    77    1
   116    75    76    1
   117    95    97    1
   118    95    94    2
   119    93    94    1
   120     2     3    1
   121    13    10    1
   122   142   141    1
   123   134   135    1
   124   135   136    1
   125   135   138    1
   126   136   137    2
   127    10     9    1
   128    10    11    1
   129   140   141    1
   130   140   139    1
   131   139   138    1
   132    11    12    2
