@<TRIPOS>MOLECULE
tmp/3uq8A00.pdb
 149 148 0 0 0
SMALL
GASTEIGER

@<TRIPOS>ATOM
      1  N         64.5520   43.8040   29.4530 N.3    16  TYR16      -0.1227
      2  CA        64.6800   42.4030   29.7820 C.3    16  TYR16       0.1736
      3  C         64.6430   42.2020   31.3040 C.2    16  TYR16       0.2595
      4  O         63.9960   41.2520   31.7600 O.2    16  TYR16      -0.2718
      5  CB        66.0340   41.8530   29.2940 C.3    16  TYR16       0.0548
      6  CG        66.1820   41.8520   27.7450 C.ar   16  TYR16      -0.0200
      7  CD1       65.0660   41.9360   26.9020 C.ar   16  TYR16      -0.0009
      8  CD2       67.4410   41.7340   27.1920 C.ar   16  TYR16      -0.0009
      9  CE1       65.2380   41.8700   25.4820 C.ar   16  TYR16       0.0417
     10  CE2       67.6240   41.6620   25.8060 C.ar   16  TYR16       0.0417
     11  CZ        66.5290   41.7270   24.9820 C.ar   16  TYR16       0.1957
     12  OH        66.7640   41.6500   23.6350 O.3    16  TYR16      -0.2866
     13  N         65.3400   43.0920   32.0580 N.am   17  GLU17      -0.1979
     14  CA        65.2850   43.0280   33.5310 C.3    17  GLU17       0.1602
     15  C         63.8550   43.1710   34.0590 C.2    17  GLU17       0.2287
     16  O         63.4130   42.3680   34.9200 O.2    17  GLU17      -0.2864
     17  CB        66.2220   44.0610   34.2020 C.3    17  GLU17       0.0415
     18  CG        67.6800   43.6740   33.9420 C.3    17  GLU17       0.1163
     19  CD        68.6550   44.7880   34.1520 C.2    17  GLU17       0.3649
     20  OE1       68.2670   45.9640   34.4010 O.co2  17  GLU17      -0.2457
     21  OE2       69.8830   44.4570   34.1270 O.co2  17  GLU17      -0.2457
     22  N         61.0270   42.4220   32.2980 N.3    19  GLU19      -0.1231
     23  CA        60.3000   41.2120   31.9120 C.3    19  GLU19       0.1699
     24  C         60.6520   40.0510   32.8040 C.2    19  GLU19       0.2592
     25  O         59.7860   39.2670   33.1580 O.2    19  GLU19      -0.2718
     26  CB        60.6340   40.8350   30.4390 C.3    19  GLU19       0.0402
     27  CG        60.1900   41.9240   29.5160 C.3    19  GLU19       0.1161
     28  CD        60.7120   41.7350   28.0450 C.2    19  GLU19       0.3649
     29  OE1       61.6530   40.9670   27.8500 O.co2  19  GLU19      -0.2457
     30  OE2       60.2040   42.4700   27.1360 O.co2  19  GLU19      -0.2457
     31  N         61.9510   39.8930   33.1500 N.am   20  TYR20      -0.1962
     32  CA        62.3620   38.7220   33.8380 C.3    20  TYR20       0.1771
     33  C         62.0010   38.8530   35.3490 C.2    20  TYR20       0.2619
     34  O         61.4640   37.8930   35.9390 O.2    20  TYR20      -0.2715
     35  CB        63.8840   38.5700   33.6980 C.3    20  TYR20       0.0574
     36  CG        64.4900   37.4000   34.4540 C.ar   20  TYR20      -0.0198
     37  CD1       64.6200   36.1320   33.8490 C.ar   20  TYR20      -0.0009
     38  CD2       64.9690   37.5480   35.7810 C.ar   20  TYR20      -0.0009
     39  CE1       65.2120   35.0420   34.5150 C.ar   20  TYR20       0.0417
     40  CE2       65.5630   36.4350   36.4560 C.ar   20  TYR20       0.0417
     41  CZ        65.6530   35.2190   35.8320 C.ar   20  TYR20       0.1957
     42  OH        66.2130   34.1830   36.4960 O.3    20  TYR20      -0.2866
     43  N         62.2840   40.0170   35.9400 N.am   21  HIS21      -0.1973
     44  CA        62.1670   40.1590   37.4210 C.3    21  HIS21       0.1656
     45  C         60.8120   40.6520   37.7900 C.2    21  HIS21       0.2291
     46  O         60.3240   40.2550   38.8740 O.2    21  HIS21      -0.2864
     47  CB        63.1810   41.1620   37.9510 C.3    21  HIS21       0.0771
     48  CG        64.6080   40.7020   37.8450 C.ar   21  HIS21       0.0820
     49  ND1       65.0990   39.6450   38.5890 N.ar   21  HIS21      -0.2267
     50  CD2       65.6450   41.1620   37.0980 C.ar   21  HIS21       0.1154
     51  CE1       66.3820   39.4660   38.2960 C.ar   21  HIS21       0.1986
     52  NE2       66.7410   40.3770   37.3910 N.ar   21  HIS21      -0.2212
     53  N         59.9810   36.5880   30.5870 N.3    26  PRO26      -0.2116
     54  CA        61.0890   37.0960   29.7560 C.3    26  PRO26       0.1372
     55  C         60.7650   36.8830   28.2820 C.2    26  PRO26       0.2244
     56  O         60.0740   35.9040   27.9160 O.2    26  PRO26      -0.2868
     57  CB        62.3190   36.2460   30.2230 C.3    26  PRO26       0.0268
     58  CG        61.7910   35.0520   30.8870 C.3    26  PRO26       0.0207
     59  CD        60.3770   35.4000   31.3550 C.3    26  PRO26       0.0892
     60  N         63.2890   36.9480   26.0400 N.3    28  VAL28      -0.1231
     61  CA        64.4970   36.3530   25.3890 C.3    28  VAL28       0.1678
     62  C         65.0920   35.4140   26.4130 C.2    28  VAL28       0.2434
     63  O         64.8140   35.6120   27.6210 O.2    28  VAL28      -0.2733
     64  CB        65.5950   37.4010   24.9330 C.3    28  VAL28       0.0265
     65  CG1       64.9940   38.4510   23.9850 C.3    28  VAL28       0.0020
     66  CG2       66.1640   38.1920   26.2260 C.3    28  VAL28       0.0020
     67  N         65.8620   34.3960   25.9770 N.am   29  PRO29      -0.2718
     68  CA        66.5840   33.4520   26.7640 C.3    29  PRO29       0.1535
     69  C         67.6110   34.1880   27.6560 C.2    29  PRO29       0.2598
     70  O         68.1180   35.2740   27.3210 O.2    29  PRO29      -0.2715
     71  CB        67.2680   32.5560   25.7090 C.3    29  PRO29       0.0310
     72  CG        66.3450   32.6440   24.5850 C.3    29  PRO29       0.0237
     73  CD        65.9990   34.0860   24.5390 C.3    29  PRO29       0.0939
     74  N         67.8670   33.6000   28.8200 N.am   30  ASP30      -0.1972
     75  CA        68.9350   34.1310   29.6700 C.3    30  ASP30       0.1709
     76  C         70.2320   34.3650   28.8690 C.2    30  ASP30       0.2293
     77  O         70.9260   35.3790   29.1330 O.2    30  ASP30      -0.2864
     78  CB        69.2140   33.1590   30.8340 C.3    30  ASP30       0.1436
     79  CG        68.0230   33.0610   31.7830 C.2    30  ASP30       0.3671
     80  OD1       67.9990   32.1150   32.6250 O.co2  30  ASP30      -0.2456
     81  OD2       67.0630   33.8520   31.6430 O.co2  30  ASP30      -0.2456
     82  N         70.3120   37.8400   27.3250 N.3    33  TYR33      -0.1227
     83  CA        70.5070   38.8840   28.3270 C.3    33  TYR33       0.1736
     84  C         71.9800   38.8860   28.7520 C.2    33  TYR33       0.2595
     85  O         72.6280   39.9460   28.7880 O.2    33  TYR33      -0.2718
     86  CB        69.5820   38.5990   29.5540 C.3    33  TYR33       0.0548
     87  CG        69.9010   39.4990   30.7340 C.ar   33  TYR33      -0.0200
     88  CD1       70.7250   39.0210   31.7860 C.ar   33  TYR33      -0.0009
     89  CD2       69.4680   40.8410   30.7020 C.ar   33  TYR33      -0.0009
     90  CE1       71.0660   39.8780   32.8330 C.ar   33  TYR33       0.0417
     91  CE2       69.7650   41.7350   31.7810 C.ar   33  TYR33       0.0417
     92  CZ        70.5420   41.2300   32.8340 C.ar   33  TYR33       0.1957
     93  OH        70.8350   42.0700   33.8730 O.3    33  TYR33      -0.2866
     94  N         72.5370   37.7100   29.0390 N.am   34  ASP34      -0.1974
     95  CA        73.9590   37.5980   29.4120 C.3    34  ASP34       0.1709
     96  C         74.9180   38.1620   28.3680 C.2    34  ASP34       0.2293
     97  O         75.7790   38.9110   28.7040 O.2    34  ASP34      -0.2864
     98  CB        74.3380   36.1340   29.6980 C.3    34  ASP34       0.1436
     99  CG        73.5530   35.5460   30.8490 C.2    34  ASP34       0.3671
    100  OD1       72.8880   36.2990   31.6240 O.co2  34  ASP34      -0.2456
    101  OD2       73.6060   34.2970   30.9720 O.co2  34  ASP34      -0.2456
    102  N         74.5440   41.9740   28.2150 N.3    37  PHE37      -0.1227
    103  CA        75.2400   42.5900   29.3960 C.3    37  PHE37       0.1736
    104  C         76.7450   42.6600   29.1070 C.2    37  PHE37       0.2595
    105  O         77.3990   43.7140   29.2880 O.2    37  PHE37      -0.2718
    106  CB        74.9270   41.7330   30.6090 C.3    37  PHE37       0.0547
    107  CG        74.9290   42.4420   31.9270 C.ar   37  PHE37      -0.0202
    108  CD1       74.1780   41.8970   32.9770 C.ar   37  PHE37      -0.0042
    109  CD2       75.6480   43.5450   32.1480 C.ar   37  PHE37      -0.0042
    110  CE1       74.2100   42.4900   34.2520 C.ar   37  PHE37      -0.0003
    111  CE2       75.6590   44.1570   33.4280 C.ar   37  PHE37      -0.0003
    112  CZ        74.9360   43.6360   34.4500 C.ar   37  PHE37      -0.0000
    113  N         77.3120   41.5900   28.5850 N.am   38  HIS38      -0.1975
    114  CA        78.7390   41.5890   28.1810 C.3    38  HIS38       0.1656
    115  C         79.0370   42.6170   27.1020 C.2    38  HIS38       0.2291
    116  O         80.0790   43.2650   27.1230 O.2    38  HIS38      -0.2864
    117  CB        79.1410   40.1700   27.6540 C.3    38  HIS38       0.0771
    118  CG        79.0590   39.1270   28.7070 C.ar   38  HIS38       0.0820
    119  ND1       78.9280   37.7730   28.4450 N.ar   38  HIS38      -0.2267
    120  CD2       78.9890   39.2470   30.0490 C.ar   38  HIS38       0.1154
    121  CE1       78.8360   37.1010   29.5870 C.ar   38  HIS38       0.1986
    122  NE2       78.9130   37.9730   30.5680 N.ar   38  HIS38      -0.2212
    123  N         79.0420   46.0810   28.5330 N.3    41  LYS41      -0.1245
    124  CA        80.2400   46.3010   29.3640 C.3    41  LYS41       0.1561
    125  C         81.4600   46.5580   28.4680 C.2    41  LYS41       0.2260
    126  O         82.2310   47.5050   28.7300 O.2    41  LYS41      -0.2867
    127  CB        80.4370   45.0980   30.2670 C.3    41  LYS41       0.0271
    128  CG        81.6380   45.2290   31.2150 C.3    41  LYS41       0.0035
    129  CD        81.5060   46.5040   32.0580 C.3    41  LYS41       0.0206
    130  CE        82.6500   46.4920   33.0550 C.3    41  LYS41       0.1093
    131  NZ        82.5600   47.6860   34.0100 N.3    41  LYS41      -0.1314
    132  N         75.4720   47.9660   34.3880 N.3    57  THR57      -0.1218
    133  CA        76.7800   47.4680   34.8470 C.3    57  THR57       0.1862
    134  C         77.3040   48.1110   36.1090 C.2    57  THR57       0.2287
    135  O         78.3730   47.7230   36.5860 O.2    57  THR57      -0.2866
    136  CB        77.8670   47.7730   33.7480 C.3    57  THR57       0.1770
    137  OG1       77.9020   49.2110   33.6040 O.3    57  THR57      -0.2211
    138  CG2       77.4330   47.0630   32.3740 C.3    57  THR57       0.0375
    139  N         68.9100   42.5290   42.3160 N.3   152  ARG152     -0.1245
    140  CA        68.6480   42.4610   40.8780 C.3   152  ARG152      0.1563
    141  C         67.2640   42.9640   40.4030 C.2   152  ARG152      0.2260
    142  O         67.1530   43.5250   39.2650 O.2   152  ARG152     -0.2867
    143  CB        68.8750   41.0340   40.3710 C.3   152  ARG152      0.0307
    144  CG        70.1990   40.4320   40.7590 C.3   152  ARG152      0.0489
    145  CD        71.3760   41.3350   40.3190 C.3   152  ARG152      0.2205
    146  NE        72.6200   40.5670   40.5330 N.pl3 152  ARG152     -0.0865
    147  CZ        73.1870   40.2680   41.7100 C.cat 152  ARG152      0.5346
    148  NH1       72.7270   40.7570   42.8850 N.pl3 152  ARG152      0.1354
    149  NH2       74.2560   39.5070   41.6880 N.pl3 152  ARG152      0.1354
@<TRIPOS>BOND
     1    12    11    1
     2    65    64    1
     3    73    72    1
     4    73    67    1
     5    72    71    1
     6    64    61    1
     7    64    66    1
     8    11     9   ar
     9    11    10   ar
    10    61    60    1
    11    61    62    1
    12     9     7   ar
    13    71    68    1
    14    10     8   ar
    15    67    62   am
    16    67    68    1
    17    62    63    2
    18    68    69    1
    19     7     6   ar
    20   115   116    2
    21   115   114    1
    22    30    28   ar
    23     8     6   ar
    24    70    69    2
    25    82    83    1
    26   117   114    1
    27   117   118    1
    28    69    74   am
    29     6     5    1
    30    29    28   ar
    31    56    55    2
    32    28    27    1
    33   114   113    1
    34   102   103    1
    35    55    54    1
    36    83    84    1
    37    83    86    1
    38    96    97    2
    39    96    95    1
    40   119   118   ar
    41   119   121   ar
    42   125   126    2
    43   125   124    1
    44   123   124    1
    45   113   104   am
    46   118   120   ar
    47    84    85    2
    48    84    94   am
    49    74    75    1
    50    76    77    2
    51    76    75    1
    52    94    95    1
    53   104   105    2
    54   104   103    1
    55     5     2    1
    56   124   127    1
    57   103   106    1
    58    95    98    1
    59     1     2    1
    60    27    26    1
    61    86    87    1
    62   121   122   ar
    63    75    78    1
    64    98    99    1
    65    54    57    1
    66    54    53    1
    67     2     3    1
    68   120   122   ar
    69    57    58    1
    70   127   128    1
    71    26    23    1
    72    53    59    1
    73   106   107    1
    74    89    87   ar
    75    89    91   ar
    76    87    88   ar
    77    78    79    1
    78    99   101   ar
    79    99   100   ar
    80    58    59    1
    81   128   129    1
    82     3     4    2
    83     3    13   am
    84    81    79   ar
    85    91    92   ar
    86    79    80   ar
    87    88    90   ar
    88    23    22    1
    89    23    24    1
    90   107   109   ar
    91   107   108   ar
    92    13    14    1
    93   129   130    1
    94   109   111   ar
    95   138   136    1
    96    24    31   am
    97    24    25    2
    98    90    92   ar
    99    92    93    1
   100   108   110   ar
   101   130   131    1
   102    31    32    1
   103   111   112   ar
   104    14    15    1
   105    14    17    1
   106   137   136    1
   107    35    32    1
   108    35    36    1
   109   136   133    1
   110    32    33    1
   111    37    36   ar
   112    37    39   ar
   113    18    19    1
   114    18    17    1
   115    15    16    2
   116    21    19   ar
   117    19    20   ar
   118   110   112   ar
   119   132   133    1
   120    36    38   ar
   121    39    41   ar
   122   133   134    1
   123    33    34    2
   124    33    43   am
   125    38    40   ar
   126    41    40   ar
   127    41    42    1
   128    43    44    1
   129   134   135    2
   130    50    52   ar
   131    50    48   ar
   132    52    51   ar
   133    44    45    1
   134    44    47    1
   135    45    46    2
   136    48    47    1
   137    48    49   ar
   138    51    49   ar
   139   142   141    2
   140   145   146    1
   141   145   144    1
   142   143   144    1
   143   143   140    1
   144   141   140    1
   145   146   147    2
   146   140   139    1
   147   149   147    1
   148   147   148    1
