@<TRIPOS>MOLECULE
tmp/3uq9A01.pdb
 129 119 0 0 0
SMALL
GASTEIGER

@<TRIPOS>ATOM
      1  N          8.5550  -18.4370   20.8300 N.3   220  ASN220     -0.1240
      2  CA         9.7170  -18.9490   21.5430 C.3   220  ASN220      0.1653
      3  C          9.9170  -18.1800   22.8440 C.2   220  ASN220      0.2266
      4  O          9.1790  -17.2360   23.1260 O.2   220  ASN220     -0.2867
      5  CB        10.9820  -18.9550   20.6670 C.3   220  ASN220      0.1155
      6  CG        11.4270  -17.5600   20.2450 C.2   220  ASN220      0.2627
      7  OD1       11.1360  -16.5670   20.9070 O.2   220  ASN220     -0.2716
      8  ND2       12.1520  -17.4890   19.1370 N.am  220  ASN220     -0.0877
      9  N          8.3230  -22.5410   22.3270 N.3   263  THR263     -0.1203
     10  CA         9.5460  -23.3410   22.2990 C.3   263  THR263      0.1994
     11  C         10.6510  -22.6760   23.1140 C.2   263  THR263      0.2618
     12  O         10.6530  -21.4630   23.2900 O.2   263  THR263     -0.2717
     13  CB        10.0300  -23.5980   20.8630 C.3   263  THR263      0.1784
     14  OG1       10.3930  -22.3550   20.2490 O.3   263  THR263     -0.2211
     15  CG2        8.9310  -24.2620   20.0490 C.3   263  THR263      0.0376
     16  N         11.5840  -23.4780   23.6160 N.am  264  ARG264     -0.1965
     17  CA        12.5980  -22.9910   24.5500 C.3   264  ARG264      0.1729
     18  C         13.9810  -23.5540   24.2280 C.2   264  ARG264      0.2617
     19  O         14.7390  -23.9300   25.1270 O.2   264  ARG264     -0.2715
     20  CB        12.2040  -23.3420   25.9900 C.3   264  ARG264      0.0348
     21  CG        10.9080  -22.6840   26.4500 C.3   264  ARG264      0.0492
     22  CD        10.5660  -23.0120   27.8940 C.3   264  ARG264      0.2205
     23  NE        11.6700  -22.7430   28.8070 N.pl3 264  ARG264     -0.0865
     24  CZ        12.2770  -23.6710   29.5460 C.cat 264  ARG264      0.5346
     25  NH1       11.8910  -24.9450   29.4850 N.pl3 264  ARG264      0.1354
     26  NH2       13.2720  -23.3250   30.3520 N.pl3 264  ARG264      0.1354
     27  N         14.3050  -23.6100   22.9410 N.am  265  GLY265     -0.1940
     28  CA        15.5850  -24.1360   22.5030 C.3   265  GLY265      0.2014
     29  C         15.7660  -25.6110   22.8190 C.2   265  GLY265      0.2638
     30  O         14.9230  -26.4390   22.4610 O.2   265  GLY265     -0.2714
     31  N         16.8710  -25.9320   23.4870 N.am  266  LYS266     -0.1977
     32  CA        17.1840  -27.3050   23.8810 C.3   266  LYS266      0.1596
     33  C         16.3590  -27.7390   25.0900 C.2   266  LYS266      0.2287
     34  O         16.2140  -28.9250   25.3650 O.2   266  LYS266     -0.2864
     35  CB        18.6720  -27.4360   24.2110 C.3   266  LYS266      0.0298
     36  CG        19.0990  -26.6530   25.4480 C.3   266  LYS266      0.0038
     37  CD        20.6040  -26.7330   25.6760 C.3   266  LYS266      0.0206
     38  CE        21.0140  -26.0250   26.9640 C.3   266  LYS266      0.1093
     39  NZ        22.4510  -26.2560   27.3020 N.3   266  LYS266     -0.1314
     40  N          9.7640  -27.4930   25.7200 N.3   269  LEU269     -0.1245
     41  CA         8.8390  -26.4780   25.2360 C.3   269  LEU269      0.1561
     42  C          7.6000  -26.4560   26.1250 C.2   269  LEU269      0.2260
     43  O          7.2970  -27.4380   26.8020 O.2   269  LEU269     -0.2867
     44  CB         8.4620  -26.7340   23.7720 C.3   269  LEU269      0.0270
     45  CG         7.7170  -28.0280   23.4150 C.3   269  LEU269      0.0019
     46  CD1        6.2000  -27.8770   23.5460 C.3   269  LEU269      0.0001
     47  CD2        8.0880  -28.5020   22.0140 C.3   269  LEU269      0.0001
     48  N         12.4280  -32.1530   24.3570 N.3   284  VAL284     -0.1231
     49  CA        12.8090  -32.2060   22.9520 C.3   284  VAL284      0.1692
     50  C         14.0960  -33.0090   22.7470 C.2   284  VAL284      0.2591
     51  O         14.7140  -33.4620   23.7150 O.2   284  VAL284     -0.2718
     52  CB        12.9460  -30.7920   22.3480 C.3   284  VAL284      0.0266
     53  CG1       11.6570  -30.0060   22.5550 C.3   284  VAL284      0.0020
     54  CG2       14.1200  -30.0550   22.9640 C.3   284  VAL284      0.0020
     55  N         14.4820  -33.1900   21.4860 N.am  285  GLU285     -0.1979
     56  CA        15.6860  -33.9410   21.1310 C.3   285  GLU285      0.1602
     57  C         16.9450  -33.3000   21.7120 C.2   285  GLU285      0.2287
     58  O         17.0840  -32.0780   21.7220 O.2   285  GLU285     -0.2864
     59  CB        15.8210  -34.0510   19.6080 C.3   285  GLU285      0.0415
     60  CG        14.9230  -35.1200   19.0060 C.3   285  GLU285      0.1163
     61  CD        15.4020  -36.5340   19.2870 C.2   285  GLU285      0.3649
     62  OE1       16.5990  -36.7410   19.5900 O.co2 285  GLU285     -0.2457
     63  OE2       14.5670  -37.4610   19.1990 O.co2 285  GLU285     -0.2457
     64  N         21.0370  -32.6760   21.5530 N.3   287  PHE287     -0.1241
     65  CA        22.0880  -32.6040   20.5450 C.3   287  PHE287      0.1605
     66  C         23.4650  -32.4090   21.1720 C.2   287  PHE287      0.2264
     67  O         23.6280  -31.6120   22.0930 O.2   287  PHE287     -0.2867
     68  CB        21.8190  -31.4470   19.5780 C.3   287  PHE287      0.0534
     69  CG        20.7380  -31.7250   18.5670 C.ar  287  PHE287     -0.0203
     70  CD1       21.0610  -32.0920   17.2690 C.ar  287  PHE287     -0.0042
     71  CD2       19.4000  -31.6030   18.9070 C.ar  287  PHE287     -0.0042
     72  CE1       20.0690  -32.3410   16.3330 C.ar  287  PHE287     -0.0003
     73  CE2       18.4040  -31.8520   17.9760 C.ar  287  PHE287     -0.0003
     74  CZ        18.7400  -32.2220   16.6890 C.ar  287  PHE287     -0.0000
     75  N         25.0110  -29.9600   16.0160 N.3   292  ILE292     -0.1245
     76  CA        24.3220  -28.7240   15.6630 C.3   292  ILE292      0.1561
     77  C         25.0830  -27.9960   14.5600 C.2   292  ILE292      0.2260
     78  O         26.1800  -27.4800   14.7820 O.2   292  ILE292     -0.2867
     79  CB        24.1360  -27.8150   16.8920 C.3   292  ILE292      0.0252
     80  CG1       23.2220  -28.5010   17.9090 C.3   292  ILE292      0.0019
     81  CG2       23.5470  -26.4820   16.4870 C.3   292  ILE292      0.0019
     82  CD1       23.1610  -27.8060   19.2460 C.3   292  ILE292      0.0001
     83  N         20.9980  -23.7640   13.4370 N.3   295  THR295     -0.1218
     84  CA        19.6520  -23.7810   14.0120 C.3   295  THR295      0.1862
     85  C         18.7170  -22.7750   13.3510 C.2   295  THR295      0.2287
     86  O         17.5330  -22.7060   13.6830 O.2   295  THR295     -0.2866
     87  CB        19.6700  -23.4790   15.5270 C.3   295  THR295      0.1770
     88  OG1       20.1550  -22.1500   15.7400 O.3   295  THR295     -0.2211
     89  CG2       20.5620  -24.4610   16.2630 C.3   295  THR295      0.0375
     90  N         14.8710  -23.2380   12.5390 N.3   298  ALA298     -0.1231
     91  CA        14.3570  -24.3140   13.3810 C.3   298  ALA298      0.1694
     92  C         12.9200  -24.0490   13.7950 C.2   298  ALA298      0.2592
     93  O         12.1010  -24.9680   13.8280 O.2   298  ALA298     -0.2718
     94  CB        15.2260  -24.4990   14.6130 C.3   298  ALA298      0.0304
     95  N         12.6220  -22.7920   14.1130 N.am  299  GLY299     -0.1957
     96  CA        11.2810  -22.4100   14.5220 C.3   299  GLY299      0.1869
     97  C         10.2960  -22.5670   13.3820 C.2   299  GLY299      0.2309
     98  O          9.1570  -22.9990   13.5790 O.2   299  GLY299     -0.2863
     99  N          9.6870  -26.2130   12.9920 N.3   302  PHE302     -0.1241
    100  CA         8.9050  -26.7080   14.1080 C.3   302  PHE302      0.1605
    101  C          7.4240  -26.5400   13.7910 C.2   302  PHE302      0.2264
    102  O          6.6550  -27.5020   13.8450 O.2   302  PHE302     -0.2867
    103  CB         9.2640  -25.9680   15.3990 C.3   302  PHE302      0.0534
    104  CG         8.5070  -26.4560   16.6010 C.ar  302  PHE302     -0.0203
    105  CD1        9.0060  -27.4950   17.3770 C.ar  302  PHE302     -0.0042
    106  CD2        7.2860  -25.8880   16.9500 C.ar  302  PHE302     -0.0042
    107  CE1        8.3050  -27.9540   18.4830 C.ar  302  PHE302     -0.0003
    108  CE2        6.5790  -26.3420   18.0540 C.ar  302  PHE302     -0.0003
    109  CZ         7.0890  -27.3760   18.8210 C.ar  302  PHE302     -0.0000
    110  N          9.2670  -31.4370   16.4630 N.3   324  VAL324     -0.1245
    111  CA        10.6580  -31.5380   16.8920 C.3   324  VAL324      0.1561
    112  C         11.5090  -32.1890   15.8050 C.2   324  VAL324      0.2260
    113  O         12.6440  -31.7830   15.5610 O.2   324  VAL324     -0.2867
    114  CB        10.7640  -32.3630   18.1920 C.3   324  VAL324      0.0252
    115  CG1       12.2160  -32.5800   18.5940 C.3   324  VAL324      0.0019
    116  CG2        9.9770  -31.6850   19.3160 C.3   324  VAL324      0.0019
    117  N         12.1060  -29.7500   13.1380 N.3   327  ALA327     -0.1245
    118  CA        13.0690  -28.7580   13.6100 C.3   327  ALA327      0.1562
    119  C         14.4830  -29.3330   13.6400 C.2   327  ALA327      0.2260
    120  O         15.4400  -28.6690   13.2390 O.2   327  ALA327     -0.2867
    121  CB        12.6700  -28.2400   14.9860 C.3   327  ALA327      0.0290
    122  N         18.0190  -28.2600   11.8400 N.3   331  ILE331     -0.1245
    123  CA        19.1700  -27.9990   12.6970 C.3   331  ILE331      0.1561
    124  C         20.4470  -28.6820   12.1990 C.2   331  ILE331      0.2260
    125  O         21.5350  -28.1070   12.2680 O.2   331  ILE331     -0.2867
    126  CB        18.8660  -28.4010   14.1540 C.3   331  ILE331      0.0252
    127  CG1       17.9280  -27.3730   14.7900 C.3   331  ILE331      0.0019
    128  CG2       20.1410  -28.5260   14.9780 C.3   331  ILE331      0.0019
    129  CD1       17.4230  -27.7820   16.1470 C.3   331  ILE331      0.0001
@<TRIPOS>BOND
     1   122   123    1
     2   124   125    2
     3   124   123    1
     4    90    91    1
     5   123   126    1
     6    99   100    1
     7   117   118    1
     8   120   119    2
     9    85    86    2
    10    85    84    1
    11    91    92    1
    12    91    94    1
    13    97    98    2
    14    97    96    1
    15    83    84    1
    16   118   119    1
    17   118   121    1
    18   101   102    2
    19   101   100    1
    20    92    93    2
    21    92    95   am
    22    84    87    1
    23   100   103    1
    24    95    96    1
    25   126   127    1
    26   126   128    1
    27    77    78    2
    28    77    76    1
    29   127   129    1
    30   103   104    1
    31    87    88    1
    32    87    89    1
    33   113   112    2
    34    76    75    1
    35    76    79    1
    36   112   111    1
    37    72    74   ar
    38    72    70   ar
    39   110   111    1
    40    81    79    1
    41   104   106   ar
    42   104   105   ar
    43    74    73   ar
    44    79    80    1
    45   111   114    1
    46   106   108   ar
    47    70    69   ar
    48   105   107   ar
    49    80    82    1
    50    73    71   ar
    51   108   109   ar
    52   114   115    1
    53   114   116    1
    54   107   109   ar
    55    69    71   ar
    56    69    68    1
    57    60    61    1
    58    60    59    1
    59     8     6   am
    60    63    61   ar
    61    61    62   ar
    62    68    65    1
    63    59    56    1
    64    15    13    1
    65     6     5    1
    66     6     7    2
    67    14    13    1
    68    65    66    1
    69    65    64    1
    70     5     2    1
    71     1     2    1
    72    13    10    1
    73    56    55    1
    74    56    57    1
    75    66    67    2
    76    55    50   am
    77     2     3    1
    78    57    58    2
    79    47    45    1
    80    10     9    1
    81    10    11    1
    82    52    53    1
    83    52    49    1
    84    52    54    1
    85    30    29    2
    86    28    29    1
    87    28    27    1
    88    50    49    1
    89    50    51    2
    90    29    31   am
    91     3     4    2
    92    27    18   am
    93    49    48    1
    94    11    12    2
    95    11    16   am
    96    45    46    1
    97    45    44    1
    98    31    32    1
    99    16    17    1
   100    44    41    1
   101    32    35    1
   102    32    33    1
   103    35    36    1
   104    18    17    1
   105    18    19    2
   106    17    20    1
   107    33    34    2
   108    41    40    1
   109    41    42    1
   110    36    37    1
   111    37    38    1
   112    20    21    1
   113    42    43    2
   114    21    22    1
   115    38    39    1
   116    22    23    1
   117    23    24    2
   118    25    24    1
   119    24    26    1
