@<TRIPOS>MOLECULE
tmp/3uqaA00.pdb
 160 155 0 0 0
SMALL
GASTEIGER

@<TRIPOS>ATOM
      1  N         -2.2730  -15.4770   21.1510 N.3   110  TYR110     -0.1241
      2  CA        -3.6200  -15.7210   21.6320 C.3   110  TYR110      0.1605
      3  C         -4.3370  -14.4810   22.1250 C.2   110  TYR110      0.2264
      4  O         -3.7190  -13.4880   22.5010 O.2   110  TYR110     -0.2867
      5  CB        -3.6430  -16.8210   22.7400 C.3   110  TYR110      0.0534
      6  CG        -3.1490  -16.3400   24.0700 C.ar  110  TYR110     -0.0201
      7  CD1       -4.0360  -15.7640   24.9920 C.ar  110  TYR110     -0.0009
      8  CD2       -1.8050  -16.4670   24.3980 C.ar  110  TYR110     -0.0009
      9  CE1       -3.5710  -15.3020   26.2230 C.ar  110  TYR110      0.0417
     10  CE2       -1.3300  -16.0250   25.6120 C.ar  110  TYR110      0.0417
     11  CZ        -2.2000  -15.4490   26.5130 C.ar  110  TYR110      0.1957
     12  OH        -1.6330  -15.0110   27.6890 O.3   110  TYR110     -0.2866
     13  N        -10.0120  -10.6980   28.4640 N.3   120  PHE120     -0.1227
     14  CA        -9.1870  -10.7650   29.6860 C.3   120  PHE120      0.1736
     15  C         -7.6690  -10.7660   29.4800 C.2   120  PHE120      0.2595
     16  O         -6.9350  -10.4030   30.4310 O.2   120  PHE120     -0.2718
     17  CB        -9.6140  -11.9060   30.6250 C.3   120  PHE120      0.0547
     18  CG        -9.5030  -13.3000   30.0430 C.ar  120  PHE120     -0.0202
     19  CD1       -8.2630  -13.9750   30.0070 C.ar  120  PHE120     -0.0042
     20  CD2      -10.6490  -13.9680   29.5770 C.ar  120  PHE120     -0.0042
     21  CE1       -8.1950  -15.2450   29.4960 C.ar  120  PHE120     -0.0003
     22  CE2      -10.5670  -15.2580   29.0770 C.ar  120  PHE120     -0.0003
     23  CZ        -9.3390  -15.8910   29.0410 C.ar  120  PHE120     -0.0000
     24  N         -7.1880  -11.1190   28.2850 N.am  121  ASP121     -0.1974
     25  CA        -5.7620  -11.1430   27.9810 C.3   121  ASP121      0.1709
     26  C         -5.5090  -11.2960   26.4890 C.2   121  ASP121      0.2293
     27  O         -6.3480  -11.8180   25.7570 O.2   121  ASP121     -0.2864
     28  CB        -5.0540  -12.2880   28.7550 C.3   121  ASP121      0.1436
     29  CG        -3.5630  -12.0930   28.8490 C.2   121  ASP121      0.3671
     30  OD1       -3.0790  -10.9880   28.5360 O.co2 121  ASP121     -0.2456
     31  OD2       -2.8950  -13.0670   29.2450 O.co2 121  ASP121     -0.2456
     32  N          1.1000   -7.6010   24.7740 N.3   126  ARG126     -0.1245
     33  CA         2.4750   -7.5940   25.2590 C.3   126  ARG126      0.1563
     34  C          3.4950   -7.6780   24.1410 C.2   126  ARG126      0.2260
     35  O          4.6980   -7.6510   24.4110 O.2   126  ARG126     -0.2867
     36  CB         2.7110   -8.8120   26.1320 C.3   126  ARG126      0.0307
     37  CG         1.8330   -8.9110   27.3520 C.3   126  ARG126      0.0489
     38  CD         2.3700  -10.0490   28.1980 C.3   126  ARG126      0.2205
     39  NE         1.9730  -11.3440   27.6720 N.pl3 126  ARG126     -0.0865
     40  CZ         0.7680  -11.8610   27.8540 C.cat 126  ARG126      0.5346
     41  NH1       -0.1240  -11.1850   28.5500 N.pl3 126  ARG126      0.1354
     42  NH2        0.4590  -13.0480   27.3490 N.pl3 126  ARG126      0.1354
     43  N          4.3920  -10.2610   22.6770 N.3   128  ASP128     -0.1239
     44  CA         5.1550  -11.3410   23.2960 C.3   128  ASP128      0.1674
     45  C          4.4960  -12.6750   22.9610 C.2   128  ASP128      0.2266
     46  O          3.5210  -13.0630   23.6310 O.2   128  ASP128     -0.2867
     47  CB         5.1940  -11.1310   24.8220 C.3   128  ASP128      0.1410
     48  CG         6.0990  -12.1290   25.5440 C.2   128  ASP128      0.3668
     49  OD1        7.1320  -12.5310   24.9460 O.co2 128  ASP128     -0.2456
     50  OD2        5.7950  -12.4640   26.7210 O.co2 128  ASP128     -0.2456
     51  N          3.6400  -16.5630   22.9610 N.3   130  PHE130     -0.1241
     52  CA         3.6050  -17.4690   24.0920 C.3   130  PHE130      0.1605
     53  C          4.0460  -18.8710   23.6650 C.2   130  PHE130      0.2264
     54  O          3.5380  -19.4250   22.6790 O.2   130  PHE130     -0.2867
     55  CB         2.1910  -17.5090   24.6740 C.3   130  PHE130      0.0534
     56  CG         2.0070  -18.5530   25.7550 C.ar  130  PHE130     -0.0203
     57  CD1        2.6500  -18.4310   26.9780 C.ar  130  PHE130     -0.0042
     58  CD2        1.2380  -19.6700   25.5280 C.ar  130  PHE130     -0.0042
     59  CE1        2.4970  -19.3930   27.9690 C.ar  130  PHE130     -0.0003
     60  CE2        1.0490  -20.6200   26.5240 C.ar  130  PHE130     -0.0003
     61  CZ         1.6980  -20.4890   27.7380 C.ar  130  PHE130     -0.0000
     62  N          0.9970  -28.2570   31.9720 N.3   138  MET138     -0.1230
     63  CA         1.3630  -27.0220   32.6230 C.3   138  MET138      0.1702
     64  C          0.4170  -25.8800   32.2950 C.2   138  MET138      0.2592
     65  O          0.3490  -24.9160   33.0550 O.2   138  MET138     -0.2718
     66  CB         2.7800  -26.6420   32.2400 C.3   138  MET138      0.0401
     67  CG         3.7990  -27.4360   33.0530 C.3   138  MET138      0.0596
     68  SD         5.4430  -27.4800   32.3640 S.3   138  MET138     -0.1393
     69  CE         5.0990  -28.0210   30.6920 C.3   138  MET138      0.0692
     70  N         -0.2490  -25.9600   31.1480 N.am  139  VAL139     -0.1966
     71  CA        -1.3260  -25.0350   30.8080 C.3   139  VAL139      0.1727
     72  C         -2.6420  -25.7200   31.1740 C.2   139  VAL139      0.2616
     73  O         -2.6770  -26.9200   31.4480 O.2   139  VAL139     -0.2715
     74  CB        -1.2950  -24.6470   29.3060 C.3   139  VAL139      0.0290
     75  CG1        0.0220  -23.9540   28.9520 C.3   139  VAL139      0.0023
     76  CG2       -1.4990  -25.8640   28.4150 C.3   139  VAL139      0.0023
     77  N         -3.7240  -24.9700   31.1510 N.am  140  ILE140     -0.1977
     78  CA        -5.0320  -25.5220   31.4100 C.3   140  ILE140      0.1596
     79  C         -5.3480  -26.6390   30.3960 C.2   140  ILE140      0.2287
     80  O         -4.8280  -26.6580   29.2550 O.2   140  ILE140     -0.2864
     81  CB        -6.1360  -24.4380   31.3750 C.3   140  ILE140      0.0276
     82  CG1       -6.1390  -23.6530   30.0510 C.3   140  ILE140      0.0022
     83  CG2       -6.0150  -23.5060   32.5970 C.3   140  ILE140      0.0022
     84  CD1       -7.3090  -22.6560   29.9520 C.3   140  ILE140      0.0001
     85  N         -6.3450  -26.1980   26.6250 N.3   143  TRP143     -0.1241
     86  CA        -5.2230  -25.8870   25.7460 C.3   143  TRP143      0.1605
     87  C         -4.4420  -27.1070   25.3590 C.2   143  TRP143      0.2264
     88  O         -4.0960  -27.2690   24.1500 O.2   143  TRP143     -0.2867
     89  CB        -4.2990  -24.8370   26.3360 C.3   143  TRP143      0.0550
     90  CG        -4.6620  -23.4410   26.0010 C.ar  143  TRP143      0.0003
     91  CD1       -5.8350  -22.7760   26.3150 C.ar  143  TRP143      0.0946
     92  CD2       -3.8240  -22.4730   25.3510 C.ar  143  TRP143      0.0152
     93  NE1       -5.7840  -21.4850   25.8750 N.ar  143  TRP143     -0.2442
     94  CE2       -4.5860  -21.2440   25.2690 C.ar  143  TRP143      0.0810
     95  CE3       -2.5490  -22.5170   24.8090 C.ar  143  TRP143      0.0012
     96  CZ2       -4.0650  -20.0950   24.7090 C.ar  143  TRP143      0.0191
     97  CZ3       -2.0360  -21.3550   24.2450 C.ar  143  TRP143      0.0001
     98  CH2       -2.7700  -20.1840   24.1740 C.ar  143  TRP143      0.0015
     99  N        -10.5070  -25.6030   32.5540 N.3   165  GLY165     -0.1210
    100  CA        -9.9200  -24.2840   32.7170 C.3   165  GLY165      0.1956
    101  C         -9.5400  -24.0990   34.1840 C.2   165  GLY165      0.2611
    102  O         -8.7770  -24.8730   34.7260 O.2   165  GLY165     -0.2717
    103  N        -10.1080  -23.0800   34.8210 N.am  166  TYR166     -0.1976
    104  CA        -9.7830  -22.7460   36.2090 C.3   166  TYR166      0.1639
    105  C        -10.8410  -23.1590   37.2760 C.2   166  TYR166      0.2290
    106  O        -10.7050  -22.8260   38.4490 O.2   166  TYR166     -0.2864
    107  CB        -9.4340  -21.2510   36.3210 C.3   166  TYR166      0.0560
    108  CG        -8.2760  -20.8560   35.4450 C.ar  166  TYR166     -0.0198
    109  CD1       -6.9950  -21.1020   35.8350 C.ar  166  TYR166     -0.0009
    110  CD2       -8.4990  -20.2380   34.2210 C.ar  166  TYR166     -0.0009
    111  CE1       -5.9280  -20.7400   35.0340 C.ar  166  TYR166      0.0417
    112  CE2       -7.4330  -19.8840   33.3910 C.ar  166  TYR166      0.0417
    113  CZ        -6.1720  -20.1290   33.8070 C.ar  166  TYR166      0.1957
    114  OH        -5.0680  -19.8080   32.9990 O.3   166  TYR166     -0.2866
    115  N        -12.1650  -21.9370   41.1940 N.3   169  ARG169     -0.1245
    116  CA       -11.2000  -21.0240   41.8100 C.3   169  ARG169      0.1563
    117  C        -11.0990  -19.7420   40.9880 C.2   169  ARG169      0.2260
    118  O        -10.9340  -18.6500   41.5420 O.2   169  ARG169     -0.2867
    119  CB        -9.8230  -21.7040   41.9570 C.3   169  ARG169      0.0307
    120  CG        -8.7510  -20.8500   42.6450 C.3   169  ARG169      0.0489
    121  CD        -7.4700  -21.6510   42.9170 C.3   169  ARG169      0.2205
    122  NE        -6.8450  -22.1720   41.6980 N.pl3 169  ARG169     -0.0865
    123  CZ        -6.2100  -21.4230   40.7940 C.cat 169  ARG169      0.5346
    124  NH1       -6.0980  -20.1040   40.9570 N.pl3 169  ARG169      0.1354
    125  NH2       -5.6870  -21.9920   39.7150 N.pl3 169  ARG169      0.1354
    126  N         -9.0770  -17.2380   38.3190 N.3   171  ALA171     -0.1231
    127  CA        -7.6640  -16.8460   38.2030 C.3   171  ALA171      0.1694
    128  C         -7.4530  -15.3300   38.1680 C.2   171  ALA171      0.2592
    129  O         -8.0860  -14.6210   37.3960 O.2   171  ALA171     -0.2718
    130  CB        -7.0430  -17.4550   36.9790 C.3   171  ALA171      0.0304
    131  N         -6.5270  -14.8720   39.0040 N.am  172  GLY172     -0.1957
    132  CA        -5.9230  -13.5390   38.8860 C.3   172  GLY172      0.1869
    133  C         -6.8550  -12.3550   38.9680 C.2   172  GLY172      0.2309
    134  O         -6.6250  -11.3310   38.3060 O.2   172  GLY172     -0.2863
    135  N         -9.3140  -11.8260   37.3940 N.3   174  VAL174     -0.1231
    136  CA        -9.9310  -11.5300   36.0770 C.3   174  VAL174      0.1692
    137  C        -10.7670  -12.6840   35.4900 C.2   174  VAL174      0.2591
    138  O        -11.7010  -12.4260   34.7240 O.2   174  VAL174     -0.2718
    139  CB        -8.9060  -11.0850   35.0100 C.3   174  VAL174      0.0266
    140  CG1       -8.2650   -9.7650   35.4150 C.3   174  VAL174      0.0020
    141  CG2       -7.8610  -12.1750   34.7540 C.3   174  VAL174      0.0020
    142  N        -10.4520  -13.9300   35.8360 N.am  175  ILE175     -0.1980
    143  CA       -11.3320  -15.0580   35.4680 C.3   175  ILE175      0.1595
    144  C        -12.1850  -15.4050   36.6820 C.2   175  ILE175      0.2287
    145  O        -11.6340  -15.7690   37.7290 O.2   175  ILE175     -0.2864
    146  CB       -10.5770  -16.3340   35.0350 C.3   175  ILE175      0.0276
    147  CG1       -9.5800  -16.0820   33.8980 C.3   175  ILE175      0.0022
    148  CG2      -11.5550  -17.4180   34.6310 C.3   175  ILE175      0.0022
    149  CD1      -10.1450  -15.4090   32.6930 C.3   175  ILE175      0.0001
    150  N        -10.8740  -18.7060   23.7000 N.3   183  PHE183     -0.1241
    151  CA        -9.5870  -18.2810   23.1830 C.3   183  PHE183      0.1605
    152  C         -9.5500  -18.3760   21.6600 C.2   183  PHE183      0.2264
    153  O        -10.0540  -19.3360   21.0610 O.2   183  PHE183     -0.2867
    154  CB        -8.4670  -19.1760   23.7260 C.3   183  PHE183      0.0534
    155  CG        -8.1260  -18.9740   25.1740 C.ar  183  PHE183     -0.0203
    156  CD1       -8.7920  -19.7080   26.1730 C.ar  183  PHE183     -0.0042
    157  CD2       -7.0970  -18.0940   25.5590 C.ar  183  PHE183     -0.0042
    158  CE1       -8.4270  -19.5680   27.5040 C.ar  183  PHE183     -0.0003
    159  CE2       -6.7410  -17.9710   26.8980 C.ar  183  PHE183     -0.0003
    160  CZ        -7.4280  -18.6870   27.8700 C.ar  183  PHE183     -0.0000
@<TRIPOS>BOND
     1   153   152    2
     2     1     2    1
     3     2     3    1
     4     2     5    1
     5   152   151    1
     6     3     4    2
     7    43    44    1
     8    54    53    2
     9     5     6    1
    10    51    52    1
    11    45    44    1
    12    45    46    2
    13   151   150    1
    14   151   154    1
    15    44    47    1
    16    53    52    1
    17   154   155    1
    18     6     8   ar
    19     6     7   ar
    20    52    55    1
    21    34    35    2
    22    34    33    1
    23    88    87    2
    24    98    97   ar
    25    98    96   ar
    26    97    95   ar
    27     8    10   ar
    28    55    56    1
    29    96    94   ar
    30    32    33    1
    31    95    92   ar
    32    47    48    1
    33    49    48   ar
    34     7     9   ar
    35   155   157   ar
    36   155   156   ar
    37    33    36    1
    38    94    92   ar
    39    94    93   ar
    40    92    90   ar
    41    87    86    1
    42    58    56   ar
    43    58    60   ar
    44    48    50   ar
    45   157   159   ar
    46    10    11   ar
    47    86    89    1
    48    86    85    1
    49    56    57   ar
    50    27    26    2
    51    93    91   ar
    52    90    91   ar
    53    90    89    1
    54    36    37    1
    55   156   158   ar
    56     9    11   ar
    57    26    25    1
    58    11    12    1
    59    60    61   ar
    60   159   160   ar
    61    57    59   ar
    62    42    40    1
    63    37    38    1
    64   158   160   ar
    65    39    40    2
    66    39    38    1
    67    61    59   ar
    68    40    41    1
    69    25    24    1
    70    25    28    1
    71    24    15   am
    72    76    74    1
    73    13    14    1
    74    30    29   ar
    75    28    29    1
    76    29    31   ar
    77    75    74    1
    78    23    22   ar
    79    23    21   ar
    80    22    20   ar
    81    80    79    2
    82    74    71    1
    83    15    14    1
    84    15    16    2
    85    21    19   ar
    86    20    18   ar
    87    14    17    1
    88    84    82    1
    89    19    18   ar
    90    18    17    1
    91    82    81    1
    92    79    78    1
    93    69    68    1
    94    71    70    1
    95    71    72    1
    96    70    64   am
    97    77    72   am
    98    77    78    1
    99    72    73    2
   100    81    78    1
   101    81    83    1
   102    62    63    1
   103    66    63    1
   104    66    67    1
   105    64    63    1
   106    64    65    2
   107    68    67    1
   108    99   100    1
   109   149   147    1
   110   100   101    1
   111   114   113    1
   112   112   113   ar
   113   112   110   ar
   114   113   111   ar
   115   147   146    1
   116   101   102    2
   117   101   103   am
   118   110   108   ar
   119   148   146    1
   120   138   137    2
   121   141   139    1
   122   103   104    1
   123   139   140    1
   124   139   136    1
   125   111   109   ar
   126   146   143    1
   127   108   109   ar
   128   108   107    1
   129   143   142    1
   130   143   144    1
   131   137   142   am
   132   137   136    1
   133   136   135    1
   134   104   107    1
   135   104   105    1
   136   144   145    2
   137   130   127    1
   138   105   106    2
   139   129   128    2
   140   128   127    1
   141   128   131   am
   142   127   126    1
   143   134   133    2
   144   132   133    1
   145   132   131    1
   146   125   123    1
   147   123   124    1
   148   123   122    2
   149   117   118    2
   150   117   116    1
   151   115   116    1
   152   122   121    1
   153   116   119    1
   154   119   120    1
   155   120   121    1
