@<TRIPOS>MOLECULE
tmp/3uqdB00.pdb
 127 116 0 0 0
SMALL
GASTEIGER

@<TRIPOS>ATOM
      1  N        -67.0350    2.6910  -18.9260 N.3    10  ALA10      -0.1245
      2  CA       -65.8350    1.8630  -19.0090 C.3    10  ALA10       0.1562
      3  C        -64.7250    2.3650  -18.0860 C.2    10  ALA10       0.2260
      4  O        -63.7580    2.9730  -18.5420 O.2    10  ALA10      -0.2867
      5  CB       -65.3420    1.7770  -20.4550 C.3    10  ALA10       0.0290
      6  N        -61.5310    2.3720  -15.2220 N.3    12  SER12      -0.1217
      7  CA       -60.2010    1.7960  -15.3150 C.3    12  SER12       0.1889
      8  C        -59.4340    1.9320  -14.0050 C.2    12  SER12       0.2288
      9  O        -59.5180    2.9510  -13.3260 O.2    12  SER12      -0.2866
     10  CB       -59.4200    2.4610  -16.4530 C.3    12  SER12       0.2089
     11  OG       -58.0690    2.0360  -16.4680 O.3    12  SER12      -0.2183
     12  N        -55.9200    2.4890  -13.2500 N.3    14  ASP14      -0.1239
     13  CA       -54.6790    2.8360  -13.9190 C.3    14  ASP14       0.1674
     14  C        -53.4820    2.3930  -13.0870 C.2    14  ASP14       0.2266
     15  O        -53.5050    2.4360  -11.8580 O.2    14  ASP14      -0.2867
     16  CB       -54.6160    4.3390  -14.2100 C.3    14  ASP14       0.1410
     17  CG       -55.6930    4.7900  -15.1880 C.2    14  ASP14       0.3668
     18  OD1      -56.2720    3.9230  -15.8850 O.co2  14  ASP14      -0.2456
     19  OD2      -55.9510    6.0130  -15.2720 O.co2  14  ASP14      -0.2456
     20  N        -60.4540    6.3150  -16.0500 N.3    39  GLY39      -0.1210
     21  CA       -61.7140    6.3550  -16.7710 C.3    39  GLY39       0.1956
     22  C        -62.2360    7.7800  -16.8100 C.2    39  GLY39       0.2612
     23  O        -62.0680    8.5300  -15.8460 O.2    39  GLY39      -0.2717
     24  N        -62.8630    8.1460  -17.9250 N.am   40  GLY40      -0.1956
     25  CA       -63.2460    9.5220  -18.1990 C.3    40  GLY40       0.1869
     26  C        -64.0150   10.2480  -17.1060 C.2    40  GLY40       0.2309
     27  O        -63.5140   11.2190  -16.5240 O.2    40  GLY40      -0.2863
     28  N        -62.2280   10.4140  -13.6930 N.3    43  ASN43      -0.1240
     29  CA       -61.2250   11.4720  -13.5820 C.3    43  ASN43       0.1653
     30  C        -61.8640   12.8590  -13.4480 C.2    43  ASN43       0.2266
     31  O        -61.3590   13.7170  -12.7180 O.2    43  ASN43      -0.2867
     32  CB       -60.2370   11.4330  -14.7470 C.3    43  ASN43       0.1155
     33  CG       -59.3540   10.1920  -14.7350 C.2    43  ASN43       0.2627
     34  OD1      -59.0950    9.6070  -13.6860 O.2    43  ASN43      -0.2716
     35  ND2      -58.8940    9.7860  -15.9100 N.am   43  ASN43      -0.0877
     36  N        -61.1630   -3.2360  -15.9190 N.3    90  ARG90      -0.1245
     37  CA       -59.9110   -3.3530  -16.6550 C.3    90  ARG90       0.1563
     38  C        -58.7620   -2.7120  -15.8950 C.2    90  ARG90       0.2260
     39  O        -58.9700   -1.9840  -14.9230 O.2    90  ARG90      -0.2867
     40  CB       -60.0260   -2.7260  -18.0450 C.3    90  ARG90       0.0307
     41  CG       -60.2420   -1.2210  -18.0350 C.3    90  ARG90       0.0489
     42  CD       -60.2070   -0.6440  -19.4490 C.3    90  ARG90       0.2205
     43  NE       -60.8840    0.6480  -19.5110 N.pl3  90  ARG90      -0.0865
     44  CZ       -60.8480    1.4660  -20.5570 C.cat  90  ARG90       0.5346
     45  NH1      -60.1600    1.1310  -21.6400 N.pl3  90  ARG90       0.1354
     46  NH2      -61.5020    2.6190  -20.5200 N.pl3  90  ARG90       0.1354
     47  N        -55.2490   -0.6930  -16.9800 N.3    92  ASN92      -0.1240
     48  CA       -54.3550   -0.1470  -17.9940 C.3    92  ASN92       0.1653
     49  C        -52.9730    0.1570  -17.4270 C.2    92  ASN92       0.2266
     50  O        -52.8470    0.5520  -16.2720 O.2    92  ASN92      -0.2867
     51  CB       -54.9670    1.1060  -18.6190 C.3    92  ASN92       0.1155
     52  CG       -56.3170    0.8370  -19.2550 C.2    92  ASN92       0.2627
     53  OD1      -56.6510   -0.3050  -19.5670 O.2    92  ASN92      -0.2716
     54  ND2      -57.0990    1.8920  -19.4590 N.am   92  ASN92      -0.0877
     55  N        -49.4320    2.3210  -17.7530 N.3    94  HIS94      -0.1241
     56  CA       -48.7490    3.4760  -18.3270 C.3    94  HIS94       0.1621
     57  C        -47.2700    3.4250  -17.9770 C.2    94  HIS94       0.2264
     58  O        -46.9070    3.3800  -16.8010 O.2    94  HIS94      -0.2867
     59  CB       -49.3790    4.7770  -17.8280 C.3    94  HIS94       0.0745
     60  CG       -50.8310    4.9100  -18.1740 C.ar   94  HIS94       0.0817
     61  ND1      -51.7480    5.4880  -17.3250 N.ar   94  HIS94      -0.2268
     62  CD2      -51.5230    4.5290  -19.2710 C.ar   94  HIS94       0.1154
     63  CE1      -52.9450    5.4620  -17.8870 C.ar   94  HIS94       0.1986
     64  NE2      -52.8340    4.8860  -19.0710 N.ar   94  HIS94      -0.2212
     65  N        -48.7570    4.0240  -23.3650 N.3   105  ARG105     -0.1245
     66  CA       -50.0350    3.7450  -22.7240 C.3   105  ARG105      0.1563
     67  C        -50.7330    2.5310  -23.3190 C.2   105  ARG105      0.2260
     68  O        -51.2640    2.5920  -24.4260 O.2   105  ARG105     -0.2867
     69  CB       -50.9520    4.9600  -22.8300 C.3   105  ARG105      0.0307
     70  CG       -50.3470    6.2390  -22.2910 C.3   105  ARG105      0.0489
     71  CD       -51.3350    7.3840  -22.4150 C.3   105  ARG105      0.2205
     72  NE       -52.6100    7.0580  -21.7800 N.pl3 105  ARG105     -0.0865
     73  CZ       -53.7010    7.8130  -21.8590 C.cat 105  ARG105      0.5346
     74  NH1      -53.6800    8.9500  -22.5490 N.pl3 105  ARG105      0.1354
     75  NH2      -54.8120    7.4300  -21.2470 N.pl3 105  ARG105      0.1354
     76  N        -53.7880    0.2230  -23.3320 N.3   107  VAL107     -0.1245
     77  CA       -55.1810    0.3560  -22.9030 C.3   107  VAL107      0.1561
     78  C        -56.0320   -0.8730  -23.2340 C.2   107  VAL107      0.2260
     79  O        -56.3470   -1.1370  -24.4000 O.2   107  VAL107     -0.2867
     80  CB       -55.8240    1.6160  -23.5150 C.3   107  VAL107      0.0252
     81  CG1      -57.2370    1.8020  -22.9930 C.3   107  VAL107      0.0019
     82  CG2      -54.9770    2.8410  -23.1980 C.3   107  VAL107      0.0019
     83  N        -65.7780    9.1070  -21.3600 N.3   138  GLY138     -0.1210
     84  CA       -65.0170    7.8780  -21.4840 C.3   138  GLY138      0.1956
     85  C        -65.5260    7.0080  -22.6200 C.2   138  GLY138      0.2612
     86  O        -66.6010    7.2560  -23.1700 O.2   138  GLY138     -0.2717
     87  N        -64.7550    5.9820  -22.9690 N.am  139  SER139     -0.1952
     88  CA       -65.1100    5.1100  -24.0810 C.3   139  SER139      0.1924
     89  C        -66.3210    4.2520  -23.7530 C.2   139  SER139      0.2314
     90  O        -66.7350    4.1560  -22.5990 O.2   139  SER139     -0.2863
     91  CB       -63.9250    4.2240  -24.4670 C.3   139  SER139      0.2116
     92  OG       -63.4890    3.4610  -23.3590 O.3   139  SER139     -0.2180
     93  N        -49.9670   13.4780  -19.7450 N.3   251  THR251     -0.1203
     94  CA       -51.1600   14.1820  -20.2040 C.3   251  THR251      0.1994
     95  C        -52.4190   13.3970  -19.8420 C.2   251  THR251      0.2618
     96  O        -53.5370   13.8320  -20.1200 O.2   251  THR251     -0.2717
     97  CB       -51.1000   14.4160  -21.7340 C.3   251  THR251      0.1784
     98  OG1      -49.8040   14.9150  -22.0870 O.3   251  THR251     -0.2211
     99  CG2      -52.1470   15.4240  -22.1850 C.3   251  THR251      0.0376
    100  N        -52.2360   12.2390  -19.2110 N.am  252  VAL252     -0.1965
    101  CA       -53.3720   11.3840  -18.8690 C.3   252  VAL252      0.1727
    102  C        -54.3510   12.0890  -17.9260 C.2   252  VAL252      0.2617
    103  O        -54.0050   12.4420  -16.7990 O.2   252  VAL252     -0.2715
    104  CB       -52.9220   10.0380  -18.2490 C.3   252  VAL252      0.0290
    105  CG1      -54.1310    9.1690  -17.9220 C.3   252  VAL252      0.0023
    106  CG2      -51.9830    9.3060  -19.1880 C.3   252  VAL252      0.0023
    107  N        -55.5730   12.2990  -18.4020 N.am  253  GLY253     -0.1940
    108  CA       -56.5960   12.9460  -17.6020 C.3   253  GLY253      0.2014
    109  C        -56.5790   14.4640  -17.6970 C.2   253  GLY253      0.2639
    110  O        -57.3330   15.1410  -16.9940 O.2   253  GLY253     -0.2714
    111  N        -55.7190   15.0050  -18.5570 N.am  254  ALA254     -0.1963
    112  CA       -55.6670   16.4490  -18.7620 C.3   254  ALA254      0.1728
    113  C        -57.0160   16.9560  -19.2670 C.2   254  ALA254      0.2617
    114  O        -57.5790   17.9030  -18.7200 O.2   254  ALA254     -0.2715
    115  CB       -54.5600   16.8130  -19.7400 C.3   254  ALA254      0.0334
    116  N        -57.5330   16.3060  -20.3030 N.am  255  GLY255     -0.1940
    117  CA       -58.8480   16.6220  -20.8280 C.3   255  GLY255      0.2014
    118  C        -59.9460   16.4870  -19.7860 C.2   255  GLY255      0.2638
    119  O        -60.8450   17.3170  -19.7130 O.2   255  GLY255     -0.2714
    120  N        -59.8730   15.4430  -18.9670 N.am  256  ASP256     -0.1971
    121  CA       -60.8800   15.2270  -17.9280 C.3   256  ASP256      0.1709
    122  C        -60.8290   16.3000  -16.8350 C.2   256  ASP256      0.2293
    123  O        -61.8670   16.7870  -16.3770 O.2   256  ASP256     -0.2864
    124  CB       -60.7380   13.8320  -17.3230 C.3   256  ASP256      0.1436
    125  CG       -60.8010   12.7350  -18.3700 C.2   256  ASP256      0.3671
    126  OD1      -61.6570   12.8170  -19.2720 O.co2 256  ASP256     -0.2456
    127  OD2      -59.9910   11.7900  -18.2940 O.co2 256  ASP256     -0.2456
@<TRIPOS>BOND
     1    91    88    1
     2    91    92    1
     3    68    67    2
     4    79    78    2
     5    88    89    1
     6    88    87    1
     7    89    90    2
     8    80    82    1
     9    80    81    1
    10    80    77    1
    11    65    66    1
    12    76    77    1
    13    67    66    1
    14    78    77    1
    15    86    85    2
    16    87    85   am
    17    69    66    1
    18    69    70    1
    19    85    84    1
    20    74    73    1
    21    71    70    1
    22    71    72    1
    23    99    97    1
    24    98    97    1
    25    73    72    2
    26    73    75    1
    27    97    94    1
    28    45    44    1
    29    84    83    1
    30   117   116    1
    31   117   118    1
    32    44    46    1
    33    44    43    2
    34     5     2    1
    35   116   113   am
    36    94    95    1
    37    94    93    1
    38    96    95    2
    39    95   100   am
    40   118   119    2
    41   118   120   am
    42   115   112    1
    43    53    52    2
    44    43    42    1
    45    54    52   am
    46    42    41    1
    47   126   125   ar
    48    62    64   ar
    49    62    60   ar
    50   113   112    1
    51   113   114    2
    52    52    51    1
    53   100   101    1
    54   106   104    1
    55    64    63   ar
    56     2     1    1
    57     2     3    1
    58   120   121    1
    59   101   104    1
    60   101   102    1
    61   112   111    1
    62    51    48    1
    63   111   109   am
    64     4     3    2
    65   107   102   am
    66   107   108    1
    67   125   127   ar
    68   125   124    1
    69    56    57    1
    70    56    59    1
    71    56    55    1
    72   104   105    1
    73    25    24    1
    74    25    26    1
    75    60    59    1
    76    60    61   ar
    77    40    41    1
    78    40    37    1
    79    48    49    1
    80    48    47    1
    81    57    58    2
    82   121   124    1
    83   121   122    1
    84   102   103    2
    85    24    22   am
    86    63    61   ar
    87   109   108    1
    88   109   110    2
    89    49    50    2
    90    26    27    2
    91   122   123    2
    92    22    21    1
    93    22    23    2
    94    21    20    1
    95    37    36    1
    96    37    38    1
    97    11    10    1
    98    10     7    1
    99    35    33   am
   100    38    39    2
   101    18    17   ar
   102     7     6    1
   103     7     8    1
   104    19    17   ar
   105    17    16    1
   106    32    33    1
   107    32    29    1
   108    33    34    2
   109    16    13    1
   110     8     9    2
   111    13    12    1
   112    13    14    1
   113    28    29    1
   114    29    30    1
   115    30    31    2
   116    14    15    2
