@<TRIPOS>MOLECULE
tmp/3uqdB01.pdb
 130 117 0 0 0
SMALL
GASTEIGER

@<TRIPOS>ATOM
      1  N        -68.3380   14.1420  -23.1480 N.3   166  ASP166     -0.1239
      2  CA       -66.9740   14.1040  -23.6700 C.3   166  ASP166      0.1674
      3  C        -66.6810   12.7080  -24.1890 C.2   166  ASP166      0.2266
      4  O        -66.3600   11.8010  -23.4220 O.2   166  ASP166     -0.2867
      5  CB       -65.9450   14.5080  -22.6080 C.3   166  ASP166      0.1410
      6  CG       -64.5090   14.5260  -23.1450 C.2   166  ASP166      0.3668
      7  OD1      -64.3050   14.3460  -24.3610 O.co2 166  ASP166     -0.2456
      8  OD2      -63.5740   14.7210  -22.3430 O.co2 166  ASP166     -0.2456
      9  N        -66.4630   18.8290  -25.2730 N.3   185  LYS185     -0.1245
     10  CA       -65.0560   19.1790  -25.4190 C.3   185  LYS185      0.1561
     11  C        -64.3450   18.2510  -26.4000 C.2   185  LYS185      0.2260
     12  O        -63.5790   17.3710  -26.0050 O.2   185  LYS185     -0.2867
     13  CB       -64.3410   19.1800  -24.0660 C.3   185  LYS185      0.0271
     14  CG       -62.8790   19.6150  -24.1320 C.3   185  LYS185      0.0035
     15  CD       -62.0780   18.9020  -23.0550 C.3   185  LYS185      0.0206
     16  CE       -60.9030   18.1280  -23.6180 C.3   185  LYS185      0.1093
     17  NZ       -61.2750   17.1500  -24.6750 N.3   185  LYS185     -0.1314
     18  N        -61.4550   17.3440  -29.0560 N.3   187  ASN187     -0.1240
     19  CA       -60.1460   17.8360  -29.4660 C.3   187  ASN187      0.1653
     20  C        -60.1930   18.1100  -30.9640 C.2   187  ASN187      0.2266
     21  O        -61.2630   18.0370  -31.5690 O.2   187  ASN187     -0.2867
     22  CB       -59.0140   16.8690  -29.0850 C.3   187  ASN187      0.1155
     23  CG       -59.1720   15.4790  -29.7000 C.2   187  ASN187      0.2627
     24  OD1      -59.6810   15.3200  -30.8110 O.2   187  ASN187     -0.2716
     25  ND2      -58.7170   14.4640  -28.9720 N.am  187  ASN187     -0.0877
     26  N        -61.2410   15.0500  -33.0870 N.3   190  GLU190     -0.1245
     27  CA       -62.6350   14.7540  -32.7550 C.3   190  GLU190      0.1567
     28  C        -63.5950   15.7390  -33.4310 C.2   190  GLU190      0.2260
     29  O        -64.6590   15.3470  -33.9150 O.2   190  GLU190     -0.2867
     30  CB       -62.8490   14.7290  -31.2320 C.3   190  GLU190      0.0388
     31  CG       -62.2070   13.5200  -30.5430 C.3   190  GLU190      0.1160
     32  CD       -62.2570   13.5750  -29.0190 C.2   190  GLU190      0.3649
     33  OE1      -61.9990   12.5290  -28.3850 O.co2 190  GLU190     -0.2457
     34  OE2      -62.5430   14.6530  -28.4530 O.co2 190  GLU190     -0.2457
     35  N        -60.4010   21.5480  -27.3330 N.3   224  SER224     -0.1217
     36  CA       -59.1270   21.5160  -26.6280 C.3   224  SER224      0.1889
     37  C        -57.9930   21.3350  -27.6230 C.2   224  SER224      0.2288
     38  O        -58.1090   20.5820  -28.5860 O.2   224  SER224     -0.2866
     39  CB       -59.1120   20.4430  -25.5290 C.3   224  SER224      0.2089
     40  OG       -59.1370   19.1220  -26.0500 O.3   224  SER224     -0.2183
     41  N        -54.5070   20.8140  -26.9120 N.3   226  GLY226     -0.1210
     42  CA       -53.2750   20.3590  -26.3010 C.3   226  GLY226      0.1940
     43  C        -52.4770   21.5330  -25.7640 C.2   226  GLY226      0.2453
     44  O        -53.0010   22.3330  -25.0030 O.2   226  GLY226     -0.2732
     45  N        -51.2090   21.6540  -26.1890 N.am  227  PRO227     -0.2728
     46  CA       -50.3030   22.7250  -25.7510 C.3   227  PRO227      0.1401
     47  C        -50.8380   24.1280  -26.0570 C.2   227  PRO227      0.2269
     48  O        -50.4690   25.0860  -25.3770 O.2   227  PRO227     -0.2865
     49  CB       -49.0300   22.4750  -26.5730 C.3   227  PRO227      0.0296
     50  CG       -49.1350   21.0770  -27.0530 C.3   227  PRO227      0.0237
     51  CD       -50.5920   20.7820  -27.2040 C.3   227  PRO227      0.0939
     52  N        -53.8010   25.1440  -25.6620 N.3   229  GLY229     -0.1225
     53  CA       -54.8990   25.4830  -24.7750 C.3   229  GLY229      0.1811
     54  C        -56.2400   25.0670  -25.3320 C.2   229  GLY229      0.2280
     55  O        -56.4290   23.9120  -25.6940 O.2   229  GLY229     -0.2866
     56  N        -52.0380   28.2250  -22.4440 N.3   243  PRO243     -0.2103
     57  CA       -51.4320   28.0250  -21.1260 C.3   243  PRO243      0.1489
     58  C        -50.0490   28.6680  -21.0360 C.2   243  PRO243      0.2417
     59  O        -49.4540   28.9810  -22.0720 O.2   243  PRO243     -0.2734
     60  CB       -51.2960   26.4980  -21.0320 C.3   243  PRO243      0.0282
     61  CG       -52.1010   25.9470  -22.1660 C.3   243  PRO243      0.0208
     62  CD       -52.0650   26.9820  -23.2230 C.3   243  PRO243      0.0893
     63  N        -49.5430   28.8640  -19.8070 N.am  244  PRO244     -0.2729
     64  CA       -48.1820   29.3600  -19.5820 C.3   244  PRO244      0.1401
     65  C        -47.1630   28.3800  -20.1440 C.2   244  PRO244      0.2269
     66  O        -47.4690   27.1950  -20.2560 O.2   244  PRO244     -0.2865
     67  CB       -48.0650   29.3740  -18.0510 C.3   244  PRO244      0.0296
     68  CG       -49.4600   29.4050  -17.5510 C.3   244  PRO244      0.0237
     69  CD       -50.2530   28.6170  -18.5380 C.3   244  PRO244      0.0939
     70  N        -45.0030   26.1590  -19.3470 N.3   246  VAL246     -0.1245
     71  CA       -44.4770   25.2720  -18.3140 C.3   246  VAL246      0.1561
     72  C        -44.2890   23.8620  -18.8600 C.2   246  VAL246      0.2260
     73  O        -45.0300   23.4260  -19.7400 O.2   246  VAL246     -0.2867
     74  CB       -45.3780   25.2410  -17.0580 C.3   246  VAL246      0.0252
     75  CG1      -45.4160   26.6160  -16.3980 C.3   246  VAL246      0.0019
     76  CG2      -46.7840   24.7720  -17.4110 C.3   246  VAL246      0.0019
     77  N        -44.5350   20.1710  -19.5920 N.3   248  SER248     -0.1217
     78  CA       -45.5700   19.1600  -19.4730 C.3   248  SER248      0.1889
     79  C        -44.9380   17.7770  -19.3330 C.2   248  SER248      0.2288
     80  O        -43.8950   17.4980  -19.9220 O.2   248  SER248     -0.2866
     81  CB       -46.4840   19.2080  -20.6990 C.3   248  SER248      0.2089
     82  OG       -47.3840   18.1160  -20.7110 O.3   248  SER248     -0.2183
     83  N        -49.9670   13.4780  -19.7450 N.3   251  THR251     -0.1218
     84  CA       -51.1600   14.1820  -20.2040 C.3   251  THR251      0.1862
     85  C        -52.4190   13.3970  -19.8420 C.2   251  THR251      0.2287
     86  O        -53.5370   13.8320  -20.1200 O.2   251  THR251     -0.2866
     87  CB       -51.1000   14.4160  -21.7340 C.3   251  THR251      0.1770
     88  OG1      -49.8040   14.9150  -22.0870 O.3   251  THR251     -0.2211
     89  CG2      -52.1470   15.4240  -22.1850 C.3   251  THR251      0.0375
     90  N        -55.7190   15.0050  -18.5570 N.3   254  ALA254     -0.1231
     91  CA       -55.6670   16.4490  -18.7620 C.3   254  ALA254      0.1694
     92  C        -57.0160   16.9560  -19.2670 C.2   254  ALA254      0.2592
     93  O        -57.5790   17.9030  -18.7200 O.2   254  ALA254     -0.2718
     94  CB       -54.5600   16.8130  -19.7400 C.3   254  ALA254      0.0304
     95  N        -57.5330   16.3060  -20.3030 N.am  255  GLY255     -0.1957
     96  CA       -58.8480   16.6220  -20.8280 C.3   255  GLY255      0.1869
     97  C        -59.9460   16.4870  -19.7860 C.2   255  GLY255      0.2309
     98  O        -60.8450   17.3170  -19.7130 O.2   255  GLY255     -0.2863
     99  N        -59.7620   19.3220  -17.2550 N.3   258  MET258     -0.1245
    100  CA       -60.3460   20.4750  -17.9300 C.3   258  MET258      0.1570
    101  C        -61.8740   20.4330  -17.8650 C.2   258  MET258      0.2261
    102  O        -62.5050   21.3980  -17.4390 O.2   258  MET258     -0.2867
    103  CB       -59.8780   20.5450  -19.3900 C.3   258  MET258      0.0387
    104  CG       -60.7170   21.4770  -20.2740 C.3   258  MET258      0.0595
    105  SD       -60.0440   21.7400  -21.9330 S.3   258  MET258     -0.1393
    106  CE       -58.8370   23.0100  -21.5840 C.3   258  MET258      0.0692
    107  N        -58.4280   25.5180  -18.8990 N.3   280  VAL280     -0.1245
    108  CA       -57.0470   25.4840  -19.3610 C.3   280  VAL280      0.1561
    109  C        -56.1120   25.3980  -18.1630 C.2   280  VAL280      0.2260
    110  O        -55.1130   24.6780  -18.1950 O.2   280  VAL280     -0.2867
    111  CB       -56.7030   26.7220  -20.2270 C.3   280  VAL280      0.0252
    112  CG1      -55.2010   26.8220  -20.4730 C.3   280  VAL280      0.0019
    113  CG2      -57.4620   26.6760  -21.5460 C.3   280  VAL280      0.0019
    114  N        -56.5030   21.7120  -16.8830 N.3   283  GLY283     -0.1210
    115  CA       -55.9060   20.8200  -17.8610 C.3   283  GLY283      0.1956
    116  C        -54.3920   20.8980  -17.8700 C.2   283  GLY283      0.2612
    117  O        -53.7120   19.8710  -17.9010 O.2   283  GLY283     -0.2717
    118  N        -53.8620   22.1180  -17.8410 N.am  284  SER284     -0.1952
    119  CA       -52.4180   22.3220  -17.8020 C.3   284  SER284      0.1924
    120  C        -51.8190   21.9260  -16.4480 C.2   284  SER284      0.2314
    121  O        -50.7030   21.4020  -16.3910 O.2   284  SER284     -0.2863
    122  CB       -52.0670   23.7730  -18.1470 C.3   284  SER284      0.2116
    123  OG       -52.5900   24.1220  -19.4180 O.3   284  SER284     -0.2180
    124  N        -50.9380   18.2820  -16.2180 N.3   287  THR287     -0.1218
    125  CA       -49.8370   17.7670  -17.0320 C.3   287  THR287      0.1862
    126  C        -48.4770   17.9220  -16.3620 C.2   287  THR287      0.2287
    127  O        -47.4590   17.5030  -16.9200 O.2   287  THR287     -0.2866
    128  CB       -49.7510   18.4440  -18.4220 C.3   287  THR287      0.1770
    129  OG1      -49.2330   19.7720  -18.2790 O.3   287  THR287     -0.2211
    130  CG2      -51.1130   18.4890  -19.0980 C.3   287  THR287      0.0375
@<TRIPOS>BOND
     1    29    28    2
     2    28    27    1
     3    26    27    1
     4    27    30    1
     5    21    20    2
     6    30    31    1
     7    20    19    1
     8    24    23    2
     9    31    32    1
    10    23    22    1
    11    23    25   am
    12    19    22    1
    13    19    18    1
    14    32    34   ar
    15    32    33   ar
    16    38    37    2
    17    37    36    1
    18    35    36    1
    19    51    50    1
    20    51    45    1
    21    50    49    1
    22    41    42    1
    23    36    39    1
    24    49    46    1
    25    11    12    2
    26    11    10    1
    27    42    43    1
    28    45    43   am
    29    45    46    1
    30    47    46    1
    31    47    48    2
    32    40    39    1
    33    43    44    2
    34    55    54    2
    35    52    53    1
    36    10     9    1
    37    10    13    1
    38    54    53    1
    39    17    16    1
    40     7     6   ar
    41     3     2    1
    42     3     4    2
    43    14    13    1
    44    14    15    1
    45     2     1    1
    46     2     5    1
    47    16    15    1
    48    62    56    1
    49    62    61    1
    50     6     5    1
    51     6     8   ar
    52    56    57    1
    53    89    87    1
    54    61    60    1
    55    88    87    1
    56    59    58    2
    57   105   106    1
    58   105   104    1
    59    87    84    1
    60   113   111    1
    61    57    58    1
    62    57    60    1
    63    58    63   am
    64    96    95    1
    65    96    97    1
    66    82    81    1
    67    81    78    1
    68   112   111    1
    69    95    92   am
    70   104   103    1
    71    66    65    2
    72   111   108    1
    73    84    85    1
    74    84    83    1
    75    65    64    1
    76    86    85    2
    77    80    79    2
    78    63    64    1
    79    63    69    1
    80    97    98    2
    81    73    72    2
    82    94    91    1
    83    77    78    1
    84    64    67    1
    85    78    79    1
    86   123   122    1
    87   103   100    1
    88   108   107    1
    89   108   109    1
    90    70    71    1
    91    92    91    1
    92    92    93    2
    93   130   128    1
    94    72    71    1
    95    91    90    1
    96    69    68    1
    97   128   129    1
    98   128   125    1
    99    71    74    1
   100   110   109    2
   101   122   119    1
   102    67    68    1
   103   100   101    1
   104   100    99    1
   105   117   116    2
   106   116   115    1
   107   116   118   am
   108   101   102    2
   109   115   114    1
   110   118   119    1
   111   119   120    1
   112    76    74    1
   113    74    75    1
   114   125   126    1
   115   125   124    1
   116   127   126    2
   117   120   121    2
