@<TRIPOS>MOLECULE
tmp/3uqfA00.pdb
 156 144 0 0 0
SMALL
GASTEIGER

@<TRIPOS>ATOM
      1  N        -11.3210  -44.6970    7.6080 N.3    16  LEU16      -0.1231
      2  CA       -11.1800  -44.0450    6.2960 C.3    16  LEU16       0.1693
      3  C         -9.8820  -44.3970    5.5510 C.2    16  LEU16       0.2592
      4  O         -9.8060  -44.2200    4.3380 O.2    16  LEU16      -0.2718
      5  CB       -11.2900  -42.5220    6.4500 C.3    16  LEU16       0.0284
      6  CG       -12.6650  -41.9480    6.8110 C.3    16  LEU16       0.0019
      7  CD1      -12.5430  -40.4780    7.1930 C.3    16  LEU16       0.0001
      8  CD2      -13.6410  -42.1370    5.6620 C.3    16  LEU16       0.0001
      9  N         -8.8660  -44.8830    6.2610 N.am   17  GLY17      -0.1957
     10  CA        -7.6130  -45.2780    5.6160 C.3    17  GLY17       0.1869
     11  C         -6.5490  -45.7740    6.5800 C.2    17  GLY17       0.2309
     12  O         -6.5180  -45.3730    7.7430 O.2    17  GLY17      -0.2863
     13  N         -6.7680  -43.4320    9.9410 N.3    24  VAL24      -0.1245
     14  CA        -7.5840  -42.2220    9.9130 C.3    24  VAL24       0.1561
     15  C         -9.0640  -42.5780    9.9720 C.2    24  VAL24       0.2260
     16  O         -9.5340  -43.4070    9.2080 O.2    24  VAL24      -0.2867
     17  CB        -7.3330  -41.3820    8.6460 C.3    24  VAL24       0.0252
     18  CG1       -8.3480  -40.2600    8.5540 C.3    24  VAL24       0.0019
     19  CG2       -5.9200  -40.8200    8.6440 C.3    24  VAL24       0.0019
     20  N        -12.3580  -35.5900   12.0020 N.3    36  ALA36      -0.1245
     21  CA       -11.4650  -36.6260   11.4850 C.3    36  ALA36       0.1562
     22  C        -10.3680  -36.8640   12.5270 C.2    36  ALA36       0.2260
     23  O         -9.8810  -35.9210   13.1440 O.2    36  ALA36      -0.2867
     24  CB       -10.8570  -36.2030   10.1560 C.3    36  ALA36       0.0290
     25  N         -6.6590  -38.9590   13.3410 N.3    38  LYS38      -0.1245
     26  CA        -5.5090  -39.7600   12.9330 C.3    38  LYS38       0.1561
     27  C         -4.8440  -40.3610   14.1670 C.2    38  LYS38       0.2260
     28  O         -4.6190  -39.6590   15.1630 O.2    38  LYS38      -0.2867
     29  CB        -4.4980  -38.9160   12.1570 C.3    38  LYS38       0.0271
     30  CG        -3.4620  -39.7460   11.4150 C.3    38  LYS38       0.0035
     31  CD        -2.8880  -39.0060   10.2130 C.3    38  LYS38       0.0206
     32  CE        -2.1960  -39.9600    9.2380 C.3    38  LYS38       0.1093
     33  NZ        -1.9170  -39.3130    7.9250 N.3    38  LYS38      -0.1314
     34  N          6.3760  -37.6460   15.2680 N.3    50  PHE50      -0.1241
     35  CA         4.9760  -37.4860   14.8370 C.3    50  PHE50       0.1605
     36  C          4.3220  -36.1940   15.3410 C.2    50  PHE50       0.2264
     37  O          3.4970  -35.6040   14.6390 O.2    50  PHE50      -0.2867
     38  CB         4.1520  -38.7010   15.2900 C.3    50  PHE50       0.0534
     39  CG         2.7170  -38.6860   14.8200 C.ar   50  PHE50      -0.0203
     40  CD1        2.4100  -38.6560   13.4650 C.ar   50  PHE50      -0.0042
     41  CD2        1.6710  -38.7240   15.7340 C.ar   50  PHE50      -0.0042
     42  CE1        1.0890  -38.6500   13.0340 C.ar   50  PHE50      -0.0003
     43  CE2        0.3510  -38.7230   15.3110 C.ar   50  PHE50      -0.0003
     44  CZ         0.0580  -38.6860   13.9610 C.ar   50  PHE50      -0.0000
     45  N          4.7270  -32.6250   13.3320 N.3    53  GLU53      -0.1231
     46  CA         3.7430  -32.2690   12.2980 C.3    53  GLU53       0.1699
     47  C          2.4970  -31.6170   12.9120 C.2    53  GLU53       0.2592
     48  O          1.8650  -30.7670   12.2830 O.2    53  GLU53      -0.2718
     49  CB         3.3350  -33.5030   11.4850 C.3    53  GLU53       0.0402
     50  CG         2.0250  -33.3450   10.7340 C.3    53  GLU53       0.1161
     51  CD         1.4370  -34.6740   10.2850 C.2    53  GLU53       0.3649
     52  OE1        1.5660  -35.6800   11.0230 O.co2  53  GLU53      -0.2457
     53  OE2        0.8300  -34.7050    9.1920 O.co2  53  GLU53      -0.2457
     54  N          2.1510  -32.0390   14.1300 N.am   54  ALA54      -0.1980
     55  CA         1.0430  -31.4520   14.8930 C.3    54  ALA54       0.1597
     56  C          1.3700  -30.0450   15.4280 C.2    54  ALA54       0.2287
     57  O          0.4880  -29.1840   15.4860 O.2    54  ALA54      -0.2864
     58  CB         0.6340  -32.3790   16.0330 C.3    54  ALA54       0.0319
     59  N          0.7750  -27.5870   12.8480 N.3    57  MET57      -0.1245
     60  CA        -0.6640  -27.3320   12.7070 C.3    57  MET57       0.1570
     61  C         -1.2120  -26.4390   13.8280 C.2    57  MET57       0.2261
     62  O         -2.2530  -25.8140   13.6560 O.2    57  MET57      -0.2867
     63  CB        -1.4430  -28.6530   12.6150 C.3    57  MET57       0.0387
     64  CG        -1.1630  -29.4450   11.3400 C.3    57  MET57       0.0595
     65  SD        -2.0690  -31.0060   11.2620 S.3    57  MET57      -0.1393
     66  CE        -3.6700  -30.4410   10.6870 C.3    57  MET57       0.0692
     67  N         -6.2900  -27.4530    6.2640 N.3    66  VAL66      -0.1245
     68  CA        -7.0440  -28.3290    7.1490 C.3    66  VAL66       0.1561
     69  C         -6.7060  -27.9490    8.5930 C.2    66  VAL66       0.2260
     70  O         -5.5320  -27.8840    8.9610 O.2    66  VAL66      -0.2867
     71  CB        -6.7250  -29.8120    6.9240 C.3    66  VAL66       0.0252
     72  CG1       -7.5440  -30.6640    7.8760 C.3    66  VAL66       0.0019
     73  CG2       -7.0240  -30.1930    5.4890 C.3    66  VAL66       0.0019
     74  N         -4.7620  -37.4900   16.7680 N.3    79  ILE79      -0.1245
     75  CA        -4.7710  -36.1080   16.2540 C.3    79  ILE79       0.1561
     76  C         -6.1450  -35.8410   15.6460 C.2    79  ILE79       0.2260
     77  O         -6.6310  -36.6390   14.8540 O.2    79  ILE79      -0.2867
     78  CB        -3.6660  -35.8800   15.2010 C.3    79  ILE79       0.0252
     79  CG1       -2.3040  -36.3620   15.7180 C.3    79  ILE79       0.0019
     80  CG2       -3.5600  -34.4030   14.8490 C.3    79  ILE79       0.0019
     81  CD1       -1.7720  -35.5640   16.8910 C.3    79  ILE79       0.0001
     82  N         -8.7420  -33.2540   13.6030 N.3    81  THR81      -0.1203
     83  CA        -8.8340  -32.1260   12.6750 C.3    81  THR81       0.1994
     84  C        -10.2740  -32.0070   12.2010 C.2    81  THR81       0.2618
     85  O        -11.1120  -32.8820   12.4890 O.2    81  THR81      -0.2717
     86  CB        -7.9240  -32.3150   11.4470 C.3    81  THR81       0.1784
     87  OG1       -8.4690  -33.3300   10.5870 O.3    81  THR81      -0.2211
     88  CG2       -6.5360  -32.7150   11.8600 C.3    81  THR81       0.0376
     89  N        -10.5720  -30.9280   11.4820 N.am   82  GLU82      -0.1965
     90  CA       -11.8680  -30.8150   10.8260 C.3    82  GLU82       0.1733
     91  C        -12.0860  -32.0110    9.8940 C.2    82  GLU82       0.2616
     92  O        -11.1290  -32.6380    9.4190 O.2    82  GLU82      -0.2715
     93  CB       -12.0150  -29.4790   10.0750 C.3    82  GLU82       0.0429
     94  CG       -11.0660  -29.2800    8.9040 C.3    82  GLU82       0.1163
     95  CD       -11.2020  -27.8990    8.2860 C.2    82  GLU82       0.3649
     96  OE1      -10.1780  -27.2360    8.0860 O.co2  82  GLU82      -0.2457
     97  OE2      -12.3290  -27.4700    7.9950 O.co2  82  GLU82      -0.2457
     98  N        -13.3470  -32.3570    9.6820 N.am   83  TYR83      -0.1960
     99  CA       -13.6950  -33.4800    8.8350 C.3    83  TYR83       0.1771
    100  C        -13.9160  -32.9530    7.4270 C.2    83  TYR83       0.2619
    101  O        -14.7020  -32.0290    7.2330 O.2    83  TYR83      -0.2715
    102  CB       -14.9630  -34.1580    9.3340 C.3    83  TYR83       0.0574
    103  CG       -15.4370  -35.2960    8.4480 C.ar   83  TYR83      -0.0198
    104  CD1      -14.6580  -36.4220    8.2470 C.ar   83  TYR83      -0.0009
    105  CD2      -16.6750  -35.2290    7.8030 C.ar   83  TYR83      -0.0009
    106  CE1      -15.0900  -37.4540    7.4280 C.ar   83  TYR83       0.0417
    107  CE2      -17.1240  -36.2600    7.0010 C.ar   83  TYR83       0.0417
    108  CZ       -16.3280  -37.3620    6.8060 C.ar   83  TYR83       0.1957
    109  OH       -16.7810  -38.3710    5.9890 O.3    83  TYR83      -0.2866
    110  N        -13.2120  -33.5320    6.4570 N.am   84  MET84      -0.1977
    111  CA       -13.4050  -33.1620    5.0620 C.3    84  MET84       0.1605
    112  C        -14.2100  -34.2520    4.3520 C.2    84  MET84       0.2287
    113  O        -13.6840  -35.3220    4.0260 O.2    84  MET84      -0.2864
    114  CB       -12.0560  -32.9110    4.3800 C.3    84  MET84       0.0413
    115  CG       -11.1850  -31.8680    5.0860 C.3    84  MET84       0.0598
    116  SD       -11.9520  -30.2450    5.2470 S.3    84  MET84      -0.1393
    117  CE       -11.9690  -29.7490    3.5140 C.3    84  MET84       0.0692
    118  N        -13.0270  -36.5580    1.1190 N.3    87  GLY87      -0.1210
    119  CA       -11.7490  -37.2700    1.0720 C.3    87  GLY87       0.1956
    120  C        -10.7010  -36.5490    0.2550 C.2    87  GLY87       0.2612
    121  O        -10.7620  -35.3200    0.0910 O.2    87  GLY87      -0.2717
    122  N         -9.7260  -37.3010   -0.2470 N.am   88  SER88      -0.1952
    123  CA        -8.5940  -36.6840   -0.9290 C.3    88  SER88       0.1924
    124  C         -9.0640  -36.1840   -2.2760 C.2    88  SER88       0.2314
    125  O         -9.9780  -36.7570   -2.8760 O.2    88  SER88      -0.2863
    126  CB        -7.4260  -37.6590   -1.1110 C.3    88  SER88       0.2116
    127  OG        -7.5800  -38.4440   -2.2790 O.3    88  SER88      -0.2180
    128  N         -8.7010  -38.9080   -5.0820 N.3    91  ASP91      -0.1239
    129  CA        -9.8560  -39.8200   -5.1070 C.3    91  ASP91       0.1674
    130  C        -11.0860  -39.1400   -5.6940 C.2    91  ASP91       0.2266
    131  O        -11.8100  -39.7240   -6.4800 O.2    91  ASP91      -0.2867
    132  CB       -10.2210  -40.2980   -3.6910 C.3    91  ASP91       0.1410
    133  CG        -9.1810  -41.2150   -3.0860 C.2    91  ASP91       0.3668
    134  OD1       -8.2550  -41.6800   -3.7880 O.co2  91  ASP91      -0.2456
    135  OD2       -9.2960  -41.4990   -1.8770 O.co2  91  ASP91      -0.2456
    136  N         -7.5670  -32.0360    0.5180 N.3   136  LEU136     -0.1245
    137  CA        -8.8250  -32.6430    0.9500 C.3   136  LEU136      0.1561
    138  C        -10.0080  -31.7990    0.4580 C.2   136  LEU136      0.2260
    139  O         -9.9160  -30.5800    0.3350 O.2   136  LEU136     -0.2867
    140  CB        -8.8730  -32.7740    2.4770 C.3   136  LEU136      0.0270
    141  CG        -7.8680  -33.7540    3.0840 C.3   136  LEU136      0.0019
    142  CD1       -7.7840  -33.6330    4.6080 C.3   136  LEU136      0.0001
    143  CD2       -8.2380  -35.1890    2.7020 C.3   136  LEU136      0.0001
    144  N         -3.4340  -30.0710    3.0910 N.3   146  ALA146     -0.1231
    145  CA        -3.2990  -30.9760    4.2280 C.3   146  ALA146      0.1694
    146  C         -1.8800  -31.5570    4.2760 C.2   146  ALA146      0.2592
    147  O         -1.0500  -31.3190    3.3780 O.2   146  ALA146     -0.2718
    148  CB        -4.3110  -32.1090    4.1060 C.3   146  ALA146      0.0304
    149  N         -1.6270  -32.3280    5.3310 N.am  147  ASP147     -0.1974
    150  CA        -0.4160  -33.1460    5.4690 C.3   147  ASP147      0.1709
    151  C          0.8610  -32.3260    5.4090 C.2   147  ASP147      0.2293
    152  O          1.4870  -32.2290    4.3560 O.2   147  ASP147     -0.2864
    153  CB        -0.3470  -34.2390    4.3770 C.3   147  ASP147      0.1436
    154  CG        -1.4330  -35.2960    4.5140 C.2   147  ASP147      0.3671
    155  OD1       -2.3140  -35.4070    3.6150 O.co2 147  ASP147     -0.2456
    156  OD2       -1.3890  -36.0260    5.5280 O.co2 147  ASP147     -0.2456
@<TRIPOS>BOND
     1   131   130    2
     2   130   129    1
     3   129   128    1
     4   129   132    1
     5   134   133   ar
     6   132   133    1
     7   133   135   ar
     8   125   124    2
     9   127   126    1
    10   124   123    1
    11   126   123    1
    12   123   122    1
    13   122   120   am
    14   121   120    2
    15   120   119    1
    16   139   138    2
    17   138   137    1
    18   136   137    1
    19   137   140    1
    20   119   118    1
    21   140   141    1
    22   143   141    1
    23   141   142    1
    24   144   145    1
    25   147   146    2
    26   117   116    1
    27   155   154   ar
    28   113   112    2
    29   148   145    1
    30   145   146    1
    31   146   149   am
    32     4     3    2
    33   112   111    1
    34   152   151    2
    35   153   154    1
    36   153   150    1
    37   114   111    1
    38   114   115    1
    39   154   156   ar
    40   111   110    1
    41   115   116    1
    42   149   150    1
    43   151   150    1
    44    73    71    1
    45     3     9   am
    46     3     2    1
    47    10     9    1
    48    10    11    1
    49     8     6    1
    50   109   108    1
    51    67    68    1
    52     2     5    1
    53     2     1    1
    54     5     6    1
    55   110   100   am
    56    11    12    2
    57   108   107   ar
    58   108   106   ar
    59     6     7    1
    60    71    68    1
    61    71    72    1
    62   107   105   ar
    63    68    69    1
    64   101   100    2
    65   100    99    1
    66   106   104   ar
    67   105   103   ar
    68    33    32    1
    69    97    95   ar
    70    96    95   ar
    71   104   103   ar
    72    95    94    1
    73   103   102    1
    74    18    17    1
    75    69    70    2
    76    19    17    1
    77    17    14    1
    78    99   102    1
    79    99    98    1
    80    94    93    1
    81    53    51   ar
    82    16    15    2
    83    32    31    1
    84    92    91    2
    85    98    91   am
    86    91    90    1
    87    14    13    1
    88    14    15    1
    89    93    90    1
    90    24    21    1
    91    31    30    1
    92    51    50    1
    93    51    52   ar
    94    87    86    1
    95    66    65    1
    96    50    49    1
    97    90    89    1
    98    65    64    1
    99    64    63    1
   100    30    29    1
   101    86    88    1
   102    86    83    1
   103    89    84   am
   104    49    46    1
   105    21    20    1
   106    21    22    1
   107    29    26    1
   108    84    85    2
   109    84    83    1
   110    48    47    2
   111    46    47    1
   112    46    45    1
   113    22    23    2
   114    63    60    1
   115    83    82    1
   116    60    59    1
   117    60    61    1
   118    47    54   am
   119    26    25    1
   120    26    27    1
   121    42    40   ar
   122    42    44   ar
   123    40    39   ar
   124    62    61    2
   125    44    43   ar
   126    54    55    1
   127    27    28    2
   128    37    36    2
   129    39    38    1
   130    39    41   ar
   131    35    34    1
   132    35    38    1
   133    35    36    1
   134    80    78    1
   135    77    76    2
   136    55    56    1
   137    55    58    1
   138    78    79    1
   139    78    75    1
   140    43    41   ar
   141    56    57    2
   142    76    75    1
   143    79    81    1
   144    75    74    1
