@<TRIPOS>MOLECULE
tmp/3uqgB00.pdb
 115 105 0 0 0
SMALL
GASTEIGER

@<TRIPOS>ATOM
      1  N         -1.8480  -77.2350  -32.8740 N.3    18  LEU18      -0.1231
      2  CA        -1.8660  -76.5690  -31.5600 C.3    18  LEU18       0.1693
      3  C         -3.1330  -76.8480  -30.7190 C.2    18  LEU18       0.2592
      4  O         -3.1730  -76.5020  -29.5390 O.2    18  LEU18      -0.2718
      5  CB        -1.7080  -75.0460  -31.7350 C.3    18  LEU18       0.0284
      6  CG        -0.4180  -74.4950  -32.3590 C.3    18  LEU18       0.0019
      7  CD1       -0.5310  -72.9980  -32.6210 C.3    18  LEU18       0.0001
      8  CD2        0.7980  -74.7930  -31.4950 C.3    18  LEU18       0.0001
      9  N         -4.1630  -77.4480  -31.3140 N.am   19  GLY19      -0.1957
     10  CA        -5.4210  -77.7160  -30.6020 C.3    19  GLY19       0.1869
     11  C         -6.4200  -78.5140  -31.4280 C.2    19  GLY19       0.2309
     12  O         -6.2800  -78.6210  -32.6500 O.2    19  GLY19      -0.2863
     13  N         -6.6750  -75.8610  -34.5100 N.3    22  VAL22      -0.1245
     14  CA        -5.8480  -74.6750  -34.7680 C.3    22  VAL22       0.1561
     15  C         -4.3900  -75.0580  -35.0040 C.2    22  VAL22       0.2260
     16  O         -3.8410  -75.8580  -34.2540 O.2    22  VAL22      -0.2867
     17  CB        -5.9050  -73.6730  -33.6060 C.3    22  VAL22       0.0252
     18  CG1       -5.1710  -72.3970  -33.9900 C.3    22  VAL22       0.0019
     19  CG2       -7.3490  -73.3670  -33.2330 C.3    22  VAL22       0.0019
     20  N         -1.2610  -68.0950  -37.2120 N.3    34  ALA34      -0.1245
     21  CA        -2.1900  -69.0700  -36.6470 C.3    34  ALA34       0.1562
     22  C         -3.3040  -69.3080  -37.6670 C.2    34  ALA34       0.2260
     23  O         -3.8560  -68.3520  -38.2300 O.2    34  ALA34      -0.2867
     24  CB        -2.7760  -68.5620  -35.3410 C.3    34  ALA34       0.0290
     25  N         -6.9910  -71.3840  -38.2540 N.3    36  LYS36      -0.1245
     26  CA        -8.1190  -72.1120  -37.6430 C.3    36  LYS36       0.1561
     27  C         -8.9540  -72.8660  -38.6790 C.2    36  LYS36       0.2260
     28  O         -9.3880  -72.2750  -39.6600 O.2    36  LYS36      -0.2867
     29  CB        -9.0400  -71.1510  -36.9000 C.3    36  LYS36       0.0271
     30  CG        -8.3950  -70.4350  -35.7330 C.3    36  LYS36       0.0035
     31  CD        -9.3810  -69.4640  -35.1000 C.3    36  LYS36       0.0206
     32  CE        -8.7740  -68.7050  -33.9300 C.3    36  LYS36       0.1093
     33  NZ        -9.8040  -67.9010  -33.2140 N.3    36  LYS36      -0.1314
     34  N         -6.4600  -59.6690  -31.1840 N.3    60  VAL60      -0.1245
     35  CA        -5.7990  -60.5580  -32.1300 C.3    60  VAL60       0.1561
     36  C         -6.2690  -60.2200  -33.5350 C.2    60  VAL60       0.2260
     37  O         -7.4730  -60.1770  -33.7990 O.2    60  VAL60      -0.2867
     38  CB        -6.0870  -62.0390  -31.8310 C.3    60  VAL60       0.0252
     39  CG1       -5.4540  -62.9270  -32.9000 C.3    60  VAL60       0.0019
     40  CG2       -5.5640  -62.3980  -30.4440 C.3    60  VAL60       0.0019
     41  N         -4.8060  -65.6350  -38.7030 N.3    75  THR75      -0.1203
     42  CA        -4.6420  -64.5360  -37.7580 C.3    75  THR75       0.1994
     43  C         -3.1910  -64.4360  -37.3030 C.2    75  THR75       0.2618
     44  O         -2.3810  -65.2950  -37.6250 O.2    75  THR75      -0.2717
     45  CB        -5.5430  -64.7320  -36.5270 C.3    75  THR75       0.1784
     46  OG1       -5.0840  -65.8430  -35.7560 O.3    75  THR75      -0.2211
     47  CG2       -6.9880  -64.9810  -36.9440 C.3    75  THR75       0.0376
     48  N         -2.8640  -63.3930  -36.5420 N.am   76  GLU76      -0.1965
     49  CA        -1.5110  -63.2290  -36.0130 C.3    76  GLU76       0.1733
     50  C         -1.2020  -64.3660  -35.0290 C.2    76  GLU76       0.2616
     51  O         -2.1010  -64.8750  -34.3540 O.2    76  GLU76      -0.2715
     52  CB        -1.3140  -61.8380  -35.3700 C.3    76  GLU76       0.0429
     53  CG        -1.9030  -61.6520  -33.9860 C.3    76  GLU76       0.1163
     54  CD        -1.7800  -60.2250  -33.4600 C.2    76  GLU76       0.3649
     55  OE1       -2.7950  -59.4940  -33.4880 O.co2  76  GLU76      -0.2457
     56  OE2       -0.6820  -59.8250  -33.0100 O.co2  76  GLU76      -0.2457
     57  N          0.0610  -64.7780  -34.9730 N.am   77  TYR77      -0.1960
     58  CA         0.4770  -65.8900  -34.1220 C.3    77  TYR77       0.1771
     59  C          0.8810  -65.3820  -32.7390 C.2    77  TYR77       0.2619
     60  O          1.7530  -64.5270  -32.6190 O.2    77  TYR77      -0.2715
     61  CB         1.6390  -66.6590  -34.7680 C.3    77  TYR77       0.0574
     62  CG         2.1630  -67.7900  -33.9170 C.ar   77  TYR77      -0.0198
     63  CD1        1.3570  -68.8890  -33.6250 C.ar   77  TYR77      -0.0009
     64  CD2        3.4590  -67.7630  -33.4020 C.ar   77  TYR77      -0.0009
     65  CE1        1.8250  -69.9320  -32.8410 C.ar   77  TYR77       0.0417
     66  CE2        3.9410  -68.8030  -32.6220 C.ar   77  TYR77       0.0417
     67  CZ         3.1210  -69.8840  -32.3470 C.ar   77  TYR77       0.1957
     68  OH         3.5830  -70.9230  -31.5800 O.3    77  TYR77      -0.2866
     69  N          0.2450  -65.9170  -31.7020 N.am   78  MET78      -0.1977
     70  CA         0.5220  -65.5260  -30.3210 C.3    78  MET78       0.1605
     71  C          1.3510  -66.6180  -29.6650 C.2    78  MET78       0.2287
     72  O          0.8390  -67.6940  -29.3330 O.2    78  MET78      -0.2864
     73  CB        -0.7870  -65.2950  -29.5700 C.3    78  MET78       0.0413
     74  CG        -1.6450  -64.2200  -30.2140 C.3    78  MET78       0.0598
     75  SD        -0.8410  -62.6090  -30.2820 S.3    78  MET78      -0.1393
     76  CE        -0.6480  -62.2050  -28.5460 C.3    78  MET78       0.0692
     77  N          0.3920  -69.0590  -26.1230 N.3    81  GLY81      -0.1210
     78  CA        -0.8750  -69.7470  -25.8670 C.3    81  GLY81       0.1956
     79  C         -1.8600  -68.9220  -25.0550 C.2    81  GLY81       0.2612
     80  O         -1.6910  -67.7070  -24.8900 O.2    81  GLY81      -0.2717
     81  N         -2.8960  -69.5780  -24.5440 N.am   82  SER82      -0.1952
     82  CA        -3.9500  -68.8740  -23.8270 C.3    82  SER82       0.1924
     83  C         -3.4310  -68.3950  -22.4990 C.2    82  SER82       0.2314
     84  O         -2.5050  -68.9980  -21.9610 O.2    82  SER82      -0.2863
     85  CB        -5.1410  -69.7800  -23.5640 C.3    82  SER82       0.2116
     86  OG        -4.7660  -70.8010  -22.6750 O.3    82  SER82      -0.2180
     87  N         -3.6540  -71.2090  -19.7990 N.3    85  ASP85      -0.1239
     88  CA        -2.5070  -72.1250  -19.7710 C.3    85  ASP85       0.1674
     89  C         -1.2600  -71.4520  -19.1880 C.2    85  ASP85       0.2266
     90  O         -0.5050  -72.0720  -18.4730 O.2    85  ASP85      -0.2867
     91  CB        -2.2020  -72.6510  -21.1780 C.3    85  ASP85       0.1410
     92  CG        -3.3410  -73.4650  -21.7540 C.2    85  ASP85       0.3668
     93  OD1       -4.2470  -73.8580  -20.9980 O.co2  85  ASP85      -0.2456
     94  OD2       -3.3440  -73.7040  -22.9710 O.co2  85  ASP85      -0.2456
     95  N         -9.4300  -68.1200  -20.9120 N.3   127  ALA127     -0.1245
     96  CA        -9.2450  -69.1050  -22.0070 C.3   127  ALA127      0.1562
     97  C         -9.2860  -68.4590  -23.3940 C.2   127  ALA127      0.2260
     98  O         -8.8470  -69.0700  -24.3700 O.2   127  ALA127     -0.2867
     99  CB       -10.3010  -70.2140  -21.9470 C.3   127  ALA127      0.0290
    100  N         -5.0490  -64.3760  -25.3710 N.3   130  LEU130     -0.1245
    101  CA        -3.7840  -64.9690  -25.8290 C.3   130  LEU130      0.1561
    102  C         -2.5980  -64.1070  -25.3970 C.2   130  LEU130      0.2260
    103  O         -2.7150  -62.8770  -25.3160 O.2   130  LEU130     -0.2867
    104  CB        -3.8050  -65.1620  -27.3480 C.3   130  LEU130      0.0270
    105  CG        -4.7440  -66.2690  -27.8460 C.3   130  LEU130      0.0019
    106  CD1       -4.9800  -66.1910  -29.3520 C.3   130  LEU130      0.0001
    107  CD2       -4.2140  -67.6450  -27.4630 C.3   130  LEU130      0.0001
    108  N        -10.9910  -64.6510  -30.0240 N.3   141  ASP141     -0.1239
    109  CA       -12.1970  -65.4800  -30.1820 C.3   141  ASP141      0.1674
    110  C        -13.4990  -64.7050  -30.0740 C.2   141  ASP141      0.2266
    111  O        -14.1350  -64.6640  -29.0230 O.2   141  ASP141     -0.2867
    112  CB       -12.1980  -66.6570  -29.2080 C.3   141  ASP141      0.1410
    113  CG       -11.0870  -67.6600  -29.4990 C.2   141  ASP141      0.3668
    114  OD1      -10.6480  -67.7620  -30.6720 O.co2 141  ASP141     -0.2456
    115  OD2      -10.6540  -68.3530  -28.5500 O.co2 141  ASP141     -0.2456
@<TRIPOS>BOND
     1    28    27    2
     2    41    42    1
     3    27    26    1
     4    25    26    1
     5    23    22    2
     6    42    43    1
     7    42    45    1
     8    22    21    1
     9    26    29    1
    10    44    43    2
    11    43    48   am
    12    20    21    1
    13    47    45    1
    14    29    30    1
    15    21    24    1
    16    48    49    1
    17    45    46    1
    18    49    52    1
    19    49    50    1
    20    30    31    1
    21    52    53    1
    22    31    32    1
    23    50    57   am
    24    50    51    2
    25    15    14    1
    26    15    16    2
    27    57    58    1
    28    14    13    1
    29    14    17    1
    30    61    58    1
    31    61    62    1
    32    58    59    1
    33    18    17    1
    34    53    54    1
    35    32    33    1
    36    62    63   ar
    37    62    64   ar
    38    37    36    2
    39    63    65   ar
    40    17    19    1
    41    36    35    1
    42    55    54   ar
    43    54    56   ar
    44    64    66   ar
    45    39    38    1
    46     1     2    1
    47    65    67   ar
    48    59    60    2
    49    59    69   am
    50    12    11    2
    51    66    67   ar
    52     7     6    1
    53     6     5    1
    54     6     8    1
    55    67    68    1
    56    35    38    1
    57    35    34    1
    58    38    40    1
    59     5     2    1
    60    69    70    1
    61     2     3    1
    62    11    10    1
    63     9     3   am
    64     9    10    1
    65     3     4    2
    66   114   113   ar
    67    70    71    1
    68    70    73    1
    69    75    74    1
    70    75    76    1
    71    74    73    1
    72   109   110    1
    73   109   108    1
    74   109   112    1
    75   110   111    2
    76    71    72    2
    77   113   112    1
    78   113   115   ar
    79   106   105    1
    80   105   107    1
    81   105   104    1
    82   104   101    1
    83    77    78    1
    84    78    79    1
    85   101   102    1
    86   101   100    1
    87   102   103    2
    88    79    80    2
    89    79    81   am
    90    81    82    1
    91    98    97    2
    92    82    85    1
    93    82    83    1
    94    85    86    1
    95    97    96    1
    96    94    92   ar
    97    83    84    2
    98    96    99    1
    99    96    95    1
   100    92    91    1
   101    92    93   ar
   102    91    88    1
   103    87    88    1
   104    88    89    1
   105    89    90    2
