@<TRIPOS>MOLECULE
tmp/3uqiA00.pdb
 103 101 0 0 0
SMALL
GASTEIGER

@<TRIPOS>ATOM
      1  N         13.5610   -3.3870    5.0930 N.3    27  TYR27      -0.1241
      2  CA        13.9200   -2.0750    5.6440 C.3    27  TYR27       0.1605
      3  C         15.2780   -2.0860    6.3040 C.2    27  TYR27       0.2264
      4  O         15.7520   -3.1360    6.7740 O.2    27  TYR27      -0.2867
      5  CB        12.8830   -1.5740    6.6700 C.3    27  TYR27       0.0534
      6  CG        12.8750   -2.3890    7.9460 C.ar   27  TYR27      -0.0201
      7  CD1       13.5550   -1.9570    9.0700 C.ar   27  TYR27      -0.0009
      8  CD2       12.1320   -3.5850    8.0370 C.ar   27  TYR27      -0.0009
      9  CE1       13.5190   -2.7060   10.2580 C.ar   27  TYR27       0.0417
     10  CE2       12.0740   -4.3310    9.2290 C.ar   27  TYR27       0.0417
     11  CZ        12.7690   -3.8800   10.3210 C.ar   27  TYR27       0.1957
     12  OH        12.6830   -4.6450   11.4640 O.3    27  TYR27      -0.2866
     13  N         18.2710   -1.4400   13.3050 N.3    38  ASP38      -0.1239
     14  CA        17.4870   -2.5870   12.8980 C.3    38  ASP38       0.1674
     15  C         17.5490   -2.7040   11.3960 C.2    38  ASP38       0.2266
     16  O         17.6020   -1.6750   10.7130 O.2    38  ASP38      -0.2867
     17  CB        16.0570   -2.3840   13.3860 C.3    38  ASP38       0.1410
     18  CG        15.1890   -3.6260   13.2660 C.2    38  ASP38       0.3668
     19  OD1       15.7090   -4.7300   13.0020 O.co2  38  ASP38      -0.2456
     20  OD2       13.9530   -3.4730   13.4190 O.co2  38  ASP38      -0.2456
     21  N         19.0600   -9.3880    8.4220 N.3    43  ARG43      -0.1245
     22  CA        18.4710  -10.6760    8.8410 C.3    43  ARG43       0.1563
     23  C         18.1770  -11.5320    7.6160 C.2    43  ARG43       0.2260
     24  O         18.0880  -12.7460    7.7170 O.2    43  ARG43      -0.2867
     25  CB        17.1040  -10.4770    9.5190 C.3    43  ARG43       0.0307
     26  CG        17.0910   -9.9110   10.8580 C.3    43  ARG43       0.0489
     27  CD        15.7400  -10.2230   11.4770 C.3    43  ARG43       0.2205
     28  NE        14.6510   -9.3820   11.0000 N.pl3  43  ARG43      -0.0865
     29  CZ        14.5110   -8.0980   11.3120 C.cat  43  ARG43       0.5346
     30  NH1       15.4040   -7.4970   12.0730 N.pl3  43  ARG43       0.1354
     31  NH2       13.4870   -7.3880   10.8390 N.pl3  43  ARG43       0.1354
     32  N          9.7050   -8.3100    6.3540 N.3    47  PHE47      -0.1241
     33  CA         8.9120   -8.0420    7.5340 C.3    47  PHE47       0.1605
     34  C          7.5000   -7.6930    7.1060 C.2    47  PHE47       0.2264
     35  O          7.2960   -6.9320    6.1710 O.2    47  PHE47      -0.2867
     36  CB         9.5320   -6.8430    8.2460 C.3    47  PHE47       0.0534
     37  CG         8.7180   -6.3410    9.4440 C.ar   47  PHE47      -0.0203
     38  CD1        8.0590   -5.1360    9.3690 C.ar   47  PHE47      -0.0042
     39  CD2        8.6250   -7.0590   10.6300 C.ar   47  PHE47      -0.0042
     40  CE1        7.3120   -4.6300   10.4510 C.ar   47  PHE47      -0.0003
     41  CE2        7.8780   -6.5640   11.7080 C.ar   47  PHE47      -0.0003
     42  CZ         7.2020   -5.3630   11.5900 C.ar   47  PHE47      -0.0000
     43  N          1.0640   -1.5190   15.0550 N.3    55  GLU55      -0.1231
     44  CA         2.0740   -2.5520   15.2370 C.3    55  GLU55       0.1699
     45  C          3.4790   -2.0260   15.0300 C.2    55  GLU55       0.2592
     46  O          4.4800   -2.7130   15.3580 O.2    55  GLU55      -0.2718
     47  CB         1.8500   -3.6620   14.2070 C.3    55  GLU55       0.0402
     48  CG         0.5100   -4.3650   14.4100 C.3    55  GLU55       0.1161
     49  CD         0.2040   -5.4030   13.3320 C.2    55  GLU55       0.3649
     50  OE1        1.0050   -5.5990   12.3610 O.co2  55  GLU55      -0.2457
     51  OE2       -0.8600   -6.0460   13.4800 O.co2  55  GLU55      -0.2457
     52  N          3.5600   -0.8310   14.4550 N.am   56  VAL56      -0.1966
     53  CA         4.8180   -0.1990   14.1060 C.3    56  VAL56       0.1727
     54  C          4.6880    1.2590   14.5330 C.2    56  VAL56       0.2616
     55  O          3.5820    1.7120   14.9010 O.2    56  VAL56      -0.2715
     56  CB         5.0610   -0.2750   12.5770 C.3    56  VAL56       0.0290
     57  CG1        5.2910   -1.7310   12.1540 C.3    56  VAL56       0.0023
     58  CG2        3.8810    0.3050   11.8220 C.3    56  VAL56       0.0023
     59  N          5.7580    2.0310   14.4330 N.am   57  ILE57      -0.1977
     60  CA         5.6680    3.4490   14.7710 C.3    57  ILE57       0.1596
     61  C          4.7450    4.1800   13.8020 C.2    57  ILE57       0.2287
     62  O          4.4930    3.7480   12.6590 O.2    57  ILE57      -0.2864
     63  CB         7.0680    4.1420   14.7960 C.3    57  ILE57       0.0276
     64  CG1        7.7510    4.0400   13.4290 C.3    57  ILE57       0.0022
     65  CG2        7.9550    3.5360   15.9140 C.3    57  ILE57       0.0022
     66  CD1        9.1180    4.7750   13.3600 C.3    57  ILE57       0.0001
     67  N          5.6750    4.8130   10.2200 N.3    60  TRP60      -0.1241
     68  CA         5.5000    3.6930    9.2920 C.3    60  TRP60       0.1605
     69  C          4.0470    3.5070    8.8650 C.2    60  TRP60       0.2264
     70  O          3.7610    3.2840    7.6900 O.2    60  TRP60      -0.2867
     71  CB         5.9710    2.3890    9.9240 C.3    60  TRP60       0.0550
     72  CG         7.3950    2.0690    9.7210 C.ar   60  TRP60       0.0003
     73  CD1        8.4860    2.8870    9.8950 C.ar   60  TRP60       0.0946
     74  CD2        7.8940    0.8140    9.3150 C.ar   60  TRP60       0.0152
     75  NE1        9.6550    2.2010    9.5750 N.ar   60  TRP60      -0.2442
     76  CE2        9.3040    0.9160    9.2370 C.ar   60  TRP60       0.0810
     77  CE3        7.2810   -0.3830    8.9570 C.ar   60  TRP60       0.0012
     78  CZ2       10.1000   -0.1470    8.8280 C.ar   60  TRP60       0.0191
     79  CZ3        8.0780   -1.4540    8.5740 C.ar   60  TRP60       0.0001
     80  CH2        9.4730   -1.3220    8.5000 C.ar   60  TRP60       0.0015
     81  N          9.6510    7.1240   18.5090 N.3    83  TYR83      -0.1241
     82  CA         9.7220    6.8210   19.9500 C.3    83  TYR83       0.1605
     83  C          9.6560    7.9970   20.9060 C.2    83  TYR83       0.2264
     84  O          9.8020    7.8070   22.1370 O.2    83  TYR83      -0.2867
     85  CB        10.8910    5.8790   20.2730 C.3    83  TYR83       0.0534
     86  CG        10.7970    4.5560   19.5300 C.ar   83  TYR83      -0.0201
     87  CD1       11.3800    4.3920   18.3000 C.ar   83  TYR83      -0.0009
     88  CD2       10.0900    3.4800   20.0670 C.ar   83  TYR83      -0.0009
     89  CE1       11.2990    3.1870   17.6270 C.ar   83  TYR83       0.0417
     90  CE2        9.9880    2.2830   19.3990 C.ar   83  TYR83       0.0417
     91  CZ        10.5980    2.1440   18.1780 C.ar   83  TYR83       0.1957
     92  OH        10.5060    0.9650   17.5030 O.3    83  TYR83      -0.2866
     93  N         14.3640    5.3370    7.7210 N.3   100  PHE100     -0.1241
     94  CA        14.2680    3.9720    7.2440 C.3   100  PHE100      0.1605
     95  C         14.3240    3.9400    5.7430 C.2   100  PHE100      0.2264
     96  O         13.5500    4.5990    5.1030 O.2   100  PHE100     -0.2867
     97  CB        12.9270    3.3710    7.6540 C.3   100  PHE100      0.0534
     98  CG        12.7420    3.1770    9.1450 C.ar  100  PHE100     -0.0203
     99  CD1       12.3000    4.2230    9.9610 C.ar  100  PHE100     -0.0042
    100  CD2       13.0390    1.9490    9.7310 C.ar  100  PHE100     -0.0042
    101  CE1       12.1130    4.0310   11.3200 C.ar  100  PHE100     -0.0003
    102  CE2       12.8440    1.7260   11.0880 C.ar  100  PHE100     -0.0003
    103  CZ        12.3760    2.7820   11.8950 C.ar  100  PHE100     -0.0000
@<TRIPOS>BOND
     1     1     2    1
     2    96    95    2
     3     2     3    1
     4     2     5    1
     5    95    94    1
     6    35    34    2
     7     3     4    2
     8    32    33    1
     9     5     6    1
    10    34    33    1
    11    94    97    1
    12    94    93    1
    13    33    36    1
    14    23    24    2
    15    23    22    1
    16    97    98    1
    17    70    69    2
    18     6     8   ar
    19     6     7   ar
    20     8    10   ar
    21    36    37    1
    22    21    22    1
    23    80    79   ar
    24    80    78   ar
    25    79    77   ar
    26    78    76   ar
    27    22    25    1
    28    69    68    1
    29    77    74   ar
    30     7     9   ar
    31    98   100   ar
    32    98    99   ar
    33    10    11   ar
    34    76    74   ar
    35    76    75   ar
    36    68    71    1
    37    68    67    1
    38    74    72   ar
    39    38    37   ar
    40    38    40   ar
    41    37    39   ar
    42    25    26    1
    43    75    73   ar
    44    72    73   ar
    45    72    71    1
    46   100   102   ar
    47    99   101   ar
    48     9    11   ar
    49    11    12    1
    50    40    42   ar
    51    39    41   ar
    52    16    15    2
    53    31    29    1
    54    26    27    1
    55    28    29    2
    56    28    27    1
    57   102   103   ar
    58    29    30    1
    59   101   103   ar
    60    15    14    1
    61    42    41   ar
    62    58    56    1
    63    57    56    1
    64    50    49   ar
    65    56    53    1
    66    62    61    2
    67    14    13    1
    68    14    17    1
    69    19    18   ar
    70    18    17    1
    71    18    20   ar
    72    49    51   ar
    73    49    48    1
    74    66    64    1
    75    64    63    1
    76    61    60    1
    77    53    52    1
    78    53    54    1
    79    47    48    1
    80    47    44    1
    81    59    54   am
    82    59    60    1
    83    52    45   am
    84    54    55    2
    85    60    63    1
    86    63    65    1
    87    45    44    1
    88    45    46    2
    89    43    44    1
    90    92    91    1
    91    89    91   ar
    92    89    87   ar
    93    91    90   ar
    94    87    86   ar
    95    81    82    1
    96    90    88   ar
    97    86    88   ar
    98    86    85    1
    99    82    85    1
   100    82    83    1
   101    83    84    2
