@<TRIPOS>MOLECULE
tmp/3uqyA00.pdb
 144 136 0 0 0
SMALL
GASTEIGER

@<TRIPOS>ATOM
      1  N         -3.2530  -25.6700  -13.1990 N.3     4  ILE4       -0.1245
      2  CA        -4.1930  -25.8880  -14.3040 C.3     4  ILE4        0.1561
      3  C         -3.8440  -25.0040  -15.5000 C.2     4  ILE4        0.2260
      4  O         -3.6990  -23.7810  -15.3580 O.2     4  ILE4       -0.2867
      5  CB        -5.6880  -25.6960  -13.8880 C.3     4  ILE4        0.0252
      6  CG1       -6.6120  -25.9270  -15.0930 C.3     4  ILE4        0.0019
      7  CG2       -5.9220  -24.3190  -13.2550 C.3     4  ILE4        0.0019
      8  CD1       -7.9730  -26.5010  -14.7510 C.3     4  ILE4        0.0001
      9  N         -4.2140  -22.6670  -18.6260 N.3     6  VAL6       -0.1245
     10  CA        -5.1770  -21.6730  -19.0910 C.3     6  VAL6        0.1561
     11  C         -4.6720  -21.0470  -20.3750 C.2     6  VAL6        0.2260
     12  O         -3.5230  -20.6020  -20.4680 O.2     6  VAL6       -0.2867
     13  CB        -5.4190  -20.5810  -18.0140 C.3     6  VAL6        0.0252
     14  CG1       -6.3340  -19.4540  -18.5420 C.3     6  VAL6        0.0019
     15  CG2       -6.0220  -21.2060  -16.7720 C.3     6  VAL6        0.0019
     16  N         -5.6440  -17.9480  -22.8370 N.3     8  TRP8       -0.1241
     17  CA        -6.4460  -16.7070  -22.8340 C.3     8  TRP8        0.1605
     18  C         -6.3350  -16.0530  -24.2050 C.2     8  TRP8        0.2264
     19  O         -5.2550  -15.5950  -24.5950 O.2     8  TRP8       -0.2867
     20  CB        -5.9450  -15.7610  -21.7270 C.3     8  TRP8        0.0550
     21  CG        -6.7590  -14.5010  -21.4640 C.ar    8  TRP8        0.0003
     22  CD1       -7.2950  -13.6350  -22.3860 C.ar    8  TRP8        0.0946
     23  CD2       -7.0460  -13.9400  -20.1720 C.ar    8  TRP8        0.0152
     24  NE1       -7.9250  -12.5800  -21.7290 N.ar    8  TRP8       -0.2442
     25  CE2       -7.7720  -12.7440  -20.3770 C.ar    8  TRP8        0.0810
     26  CE3       -6.7540  -14.3390  -18.8570 C.ar    8  TRP8        0.0012
     27  CZ2       -8.2320  -11.9460  -19.3130 C.ar    8  TRP8        0.0191
     28  CZ3       -7.2010  -13.5440  -17.7940 C.ar    8  TRP8        0.0001
     29  CH2       -7.9320  -12.3520  -18.0330 C.ar    8  TRP8        0.0015
     30  N         -8.4570   -7.6970  -14.7510 N.3    21  PHE21      -0.1241
     31  CA        -7.8370   -8.8520  -14.1210 C.3    21  PHE21       0.1605
     32  C         -6.5810   -8.4650  -13.3580 C.2    21  PHE21       0.2264
     33  O         -6.4030   -8.8810  -12.2090 O.2    21  PHE21      -0.2867
     34  CB        -7.5510   -9.9380  -15.1640 C.3    21  PHE21       0.0534
     35  CG        -6.6410  -11.0440  -14.6800 C.ar   21  PHE21      -0.0203
     36  CD1       -7.0490  -11.9150  -13.6720 C.ar   21  PHE21      -0.0042
     37  CD2       -5.3830  -11.2230  -15.2520 C.ar   21  PHE21      -0.0042
     38  CE1       -6.2190  -12.9440  -13.2170 C.ar   21  PHE21      -0.0003
     39  CE2       -4.5390  -12.2690  -14.8140 C.ar   21  PHE21      -0.0003
     40  CZ        -4.9600  -13.1210  -13.7910 C.ar   21  PHE21      -0.0000
     41  N         -2.6930  -20.7640  -11.3470 N.3    37  ILE37      -0.1245
     42  CA        -2.9490  -21.3030  -12.6850 C.3    37  ILE37       0.1561
     43  C         -1.6460  -21.3040  -13.4700 C.2    37  ILE37       0.2260
     44  O         -0.6340  -20.7420  -13.0180 O.2    37  ILE37      -0.2867
     45  CB        -4.0140  -20.4690  -13.4710 C.3    37  ILE37       0.0252
     46  CG1       -3.5040  -19.0270  -13.7200 C.3    37  ILE37       0.0019
     47  CG2       -5.3640  -20.5090  -12.7360 C.3    37  ILE37       0.0019
     48  CD1       -4.3470  -18.1520  -14.6470 C.3    37  ILE37       0.0001
     49  N         -8.4150  -24.7280  -19.4680 N.3    69  ILE69      -0.1245
     50  CA        -9.5210  -23.7790  -19.4620 C.3    69  ILE69       0.1561
     51  C         -9.2320  -22.7440  -20.5440 C.2    69  ILE69       0.2260
     52  O         -8.1140  -22.2230  -20.6480 O.2    69  ILE69      -0.2867
     53  CB        -9.6670  -23.0870  -18.0890 C.3    69  ILE69       0.0252
     54  CG1       -9.9570  -24.1180  -16.9910 C.3    69  ILE69       0.0019
     55  CG2      -10.7340  -22.0050  -18.1420 C.3    69  ILE69       0.0019
     56  CD1      -11.3370  -24.8040  -17.0850 C.3    69  ILE69       0.0001
     57  N         -9.9870  -19.0290  -21.6170 N.3    71  ALA71      -0.1245
     58  CA       -10.5240  -17.7080  -21.2740 C.3    71  ALA71       0.1562
     59  C        -10.6390  -16.9180  -22.5650 C.2    71  ALA71       0.2260
     60  O         -9.7100  -16.9060  -23.3680 O.2    71  ALA71      -0.2867
     61  CB        -9.6100  -16.9780  -20.2940 C.3    71  ALA71       0.0290
     62  N        -11.7470  -27.7830  -21.6230 N.3   104  SER104     -0.1202
     63  CA       -12.7040  -28.4500  -20.7260 C.3   104  SER104      0.2020
     64  C        -13.8890  -27.5370  -20.3810 C.2   104  SER104      0.2618
     65  O        -15.0110  -28.0170  -20.1800 O.2   104  SER104     -0.2717
     66  CB       -12.0110  -28.9480  -19.4520 C.3   104  SER104      0.2103
     67  OG       -11.5310  -27.8730  -18.6650 O.3   104  SER104     -0.2182
     68  N        -13.6280  -26.2280  -20.3240 N.am  105  ALA105     -0.1979
     69  CA       -14.6570  -25.2180  -20.0650 C.3   105  ALA105      0.1597
     70  C        -14.1430  -23.8920  -20.5860 C.2   105  ALA105      0.2287
     71  O        -12.9310  -23.7220  -20.7790 O.2   105  ALA105     -0.2864
     72  CB       -14.9600  -25.1060  -18.5840 C.3   105  ALA105      0.0319
     73  N        -14.3510  -19.5890  -20.0950 N.3   107  ILE107     -0.1245
     74  CA       -14.7700  -18.4040  -19.3650 C.3   107  ILE107      0.1561
     75  C        -14.9160  -17.2690  -20.3660 C.2   107  ILE107      0.2260
     76  O        -13.9470  -16.8970  -21.0370 O.2   107  ILE107     -0.2867
     77  CB       -13.7540  -17.9780  -18.2610 C.3   107  ILE107      0.0252
     78  CG1      -13.3970  -19.1660  -17.3440 C.3   107  ILE107      0.0019
     79  CG2      -14.2980  -16.7450  -17.4770 C.3   107  ILE107      0.0019
     80  CD1      -14.5740  -19.8980  -16.7070 C.3   107  ILE107      0.0001
     81  N        -15.0800  -13.6980  -20.5600 N.3   109  TRP109     -0.1241
     82  CA       -14.8410  -12.5110  -19.7460 C.3   109  TRP109      0.1605
     83  C        -15.5500  -11.3140  -20.3520 C.2   109  TRP109      0.2264
     84  O        -15.4550  -11.0650  -21.5700 O.2   109  TRP109     -0.2867
     85  CB       -13.3540  -12.1570  -19.7080 C.3   109  TRP109      0.0550
     86  CG       -12.4450  -13.0350  -18.9200 C.ar  109  TRP109      0.0003
     87  CD1      -11.2680  -13.5650  -19.3650 C.ar  109  TRP109      0.0946
     88  CD2      -12.5660  -13.4300  -17.5320 C.ar  109  TRP109      0.0152
     89  NE1      -10.6540  -14.2670  -18.3550 N.ar  109  TRP109     -0.2442
     90  CE2      -11.4230  -14.2030  -17.2220 C.ar  109  TRP109      0.0810
     91  CE3      -13.5240  -13.2080  -16.5290 C.ar  109  TRP109      0.0012
     92  CZ2      -11.2110  -14.7640  -15.9510 C.ar  109  TRP109      0.0191
     93  CZ3      -13.3080  -13.7450  -15.2640 C.ar  109  TRP109      0.0001
     94  CH2      -12.1660  -14.5400  -14.9950 C.ar  109  TRP109      0.0015
     95  N        -11.9890  -17.1850  -10.4050 N.3   157  ILE157     -0.1245
     96  CA       -10.8180  -18.0530  -10.6330 C.3   157  ILE157      0.1561
     97  C        -10.4830  -18.9100   -9.4080 C.2   157  ILE157      0.2260
     98  O        -10.3330  -20.1420   -9.5180 O.2   157  ILE157     -0.2867
     99  CB        -9.5600  -17.2520  -11.0800 C.3   157  ILE157      0.0252
    100  CG1       -9.8090  -16.6000  -12.4340 C.3   157  ILE157      0.0019
    101  CG2       -8.3270  -18.1810  -11.1470 C.3   157  ILE157      0.0019
    102  CD1       -8.8220  -15.4910  -12.8130 C.3   157  ILE157      0.0001
    103  N        -12.9590  -21.7390   -8.7330 N.3   160  MET160     -0.1230
    104  CA       -12.8000  -22.8990   -9.6160 C.3   160  MET160      0.1702
    105  C        -11.5820  -23.7400   -9.2490 C.2   160  MET160      0.2592
    106  O        -11.6600  -24.9670   -9.2300 O.2   160  MET160     -0.2718
    107  CB       -12.7520  -22.4510  -11.0750 C.3   160  MET160      0.0401
    108  CG       -14.0840  -21.9050  -11.5340 C.3   160  MET160      0.0596
    109  SD       -14.1450  -21.4270  -13.2560 S.3   160  MET160     -0.1393
    110  CE       -13.1040  -20.0030  -13.2420 C.3   160  MET160      0.0692
    111  N        -10.4670  -23.0700   -8.9460 N.am  161  VAL161     -0.1980
    112  CA        -9.2510  -23.7540   -8.5110 C.3   161  VAL161      0.1595
    113  C         -9.4500  -24.4830   -7.1800 C.2   161  VAL161      0.2287
    114  O         -9.1220  -25.6760   -7.0570 O.2   161  VAL161     -0.2864
    115  CB        -8.0530  -22.7690   -8.4200 C.3   161  VAL161      0.0276
    116  CG1       -6.8200  -23.4680   -7.8280 C.3   161  VAL161      0.0022
    117  CG2       -7.7250  -22.2170   -9.7940 C.3   161  VAL161      0.0022
    118  N        -12.5290  -26.9860   -7.3690 N.3   164  ASP164     -0.1225
    119  CA       -12.4150  -27.9070   -8.5180 C.3   164  ASP164      0.1805
    120  C        -13.7650  -28.1480   -9.1970 C.2   164  ASP164      0.2598
    121  O        -14.1390  -29.2800   -9.5030 O.2   164  ASP164     -0.2718
    122  CB       -11.7490  -29.2250   -8.1050 C.3   164  ASP164      0.1424
    123  CG       -11.3280  -30.0630   -9.2960 C.2   164  ASP164      0.3668
    124  OD1      -10.9670  -29.4890  -10.3450 O.co2 164  ASP164     -0.2456
    125  OD2      -11.3620  -31.3030   -9.1780 O.co2 164  ASP164     -0.2456
    126  N        -14.4990  -27.0610   -9.4150 N.am  165  ARG165     -0.1966
    127  CA       -15.7970  -27.1310  -10.0710 C.3   165  ARG165      0.1729
    128  C        -16.1410  -25.7690  -10.6560 C.2   165  ARG165      0.2616
    129  O        -15.5840  -24.7560  -10.2510 O.2   165  ARG165     -0.2715
    130  CB       -16.8810  -27.6180   -9.0920 C.3   165  ARG165      0.0348
    131  CG       -17.2540  -26.6310   -7.9930 C.3   165  ARG165      0.0492
    132  CD       -17.9300  -27.3220   -6.8030 C.3   165  ARG165      0.2205
    133  NE       -16.9530  -27.9860   -5.9430 N.pl3 165  ARG165     -0.0865
    134  CZ       -17.1550  -28.3000   -4.6650 C.cat 165  ARG165      0.5346
    135  NH1      -18.3070  -28.0070   -4.0750 N.pl3 165  ARG165      0.1354
    136  NH2      -16.1970  -28.8980   -3.9690 N.pl3 165  ARG165      0.1354
    137  N        -17.0470  -25.7560  -11.6210 N.am  166  LEU166     -0.1977
    138  CA       -17.5340  -24.5120  -12.1630 C.3   166  LEU166      0.1596
    139  C        -18.5250  -23.8910  -11.1730 C.2   166  LEU166      0.2287
    140  O        -19.2140  -24.6100  -10.4540 O.2   166  LEU166     -0.2864
    141  CB       -18.2140  -24.7670  -13.5060 C.3   166  LEU166      0.0297
    142  CG       -17.3250  -25.3200  -14.6230 C.3   166  LEU166      0.0022
    143  CD1      -18.1620  -25.5530  -15.8670 C.3   166  LEU166      0.0001
    144  CD2      -16.1430  -24.3560  -14.9080 C.3   166  LEU166      0.0001
@<TRIPOS>BOND
     1    19    18    2
     2    18    17    1
     3    60    59    2
     4    16    17    1
     5    17    20    1
     6    59    58    1
     7    22    24   ar
     8    22    21   ar
     9    24    25   ar
    10    20    21    1
    11    62    63    1
    12    57    58    1
    13    84    83    2
    14    21    23   ar
    15    58    61    1
    16    76    75    2
    17    71    70    2
    18    63    64    1
    19    63    66    1
    20    52    51    2
    21    70    69    1
    22    81    82    1
    23    51    50    1
    24    12    11    2
    25    64    68   am
    26    64    65    2
    27    25    23   ar
    28    25    27   ar
    29    11    10    1
    30    75    74    1
    31    83    82    1
    32    68    69    1
    33    23    26   ar
    34    73    74    1
    35    69    72    1
    36    82    85    1
    37    85    86    1
    38    49    50    1
    39    50    53    1
    40    66    67    1
    41    74    77    1
    42    87    86   ar
    43    87    89   ar
    44    27    29   ar
    45    10     9    1
    46    10    13    1
    47    86    88   ar
    48    26    28   ar
    49    14    13    1
    50    89    90   ar
    51    77    79    1
    52    77    78    1
    53    55    53    1
    54    53    54    1
    55    29    28   ar
    56    13    15    1
    57    88    90   ar
    58    88    91   ar
    59    78    80    1
    60    90    92   ar
    61    56    54    1
    62    91    93   ar
    63    92    94   ar
    64   143   142    1
    65     3     4    2
    66     3     2    1
    67    93    94   ar
    68    37    39   ar
    69    37    35   ar
    70    34    35    1
    71    34    31    1
    72     6     8    1
    73     6     5    1
    74   144   142    1
    75    39    40   ar
    76    30    31    1
    77    35    36   ar
    78    48    46    1
    79   142   141    1
    80     2     5    1
    81     2     1    1
    82    31    32    1
    83     5     7    1
    84    40    38   ar
    85    46    45    1
    86    36    38   ar
    87   141   138    1
    88    45    47    1
    89    45    42    1
    90    43    44    2
    91    43    42    1
    92    32    33    2
    93   109   110    1
    94   109   108    1
    95   102   100    1
    96    42    41    1
    97   100    99    1
    98   138   137    1
    99   138   139    1
   100   137   128   am
   101   108   107    1
   102   139   140    2
   103   101    99    1
   104    99    96    1
   105   107   104    1
   106   128   129    2
   107   128   127    1
   108    96    95    1
   109    96    97    1
   110   124   123   ar
   111   127   126    1
   112   127   130    1
   113   117   115    1
   114   104   105    1
   115   104   103    1
   116    98    97    2
   117   121   120    2
   118   126   120   am
   119   123   125   ar
   120   123   122    1
   121   105   106    2
   122   105   111   am
   123   120   119    1
   124   130   131    1
   125   111   112    1
   126   119   122    1
   127   119   118    1
   128   112   115    1
   129   112   113    1
   130   115   116    1
   131   131   132    1
   132   113   114    2
   133   132   133    1
   134   133   134    2
   135   134   135    1
   136   134   136    1
