@<TRIPOS>MOLECULE
tmp/3ur0C00.pdb
 78 77 0 0 0
SMALL
GASTEIGER

@<TRIPOS>ATOM
      1  N         17.9330    3.3450   37.3550 N.3    35  PRO35      -0.2103
      2  CA        17.7860    4.7020   37.9190 C.3    35  PRO35       0.1489
      3  C         16.3430    4.9990   38.3900 C.2    35  PRO35       0.2418
      4  O         15.4080    4.2860   38.0080 O.2    35  PRO35      -0.2734
      5  CB        18.1980    5.6320   36.7540 C.3    35  PRO35       0.0282
      6  CG        18.7670    4.7350   35.6970 C.3    35  PRO35       0.0208
      7  CD        18.1830    3.3660   35.9010 C.3    35  PRO35       0.0893
      8  N         16.1580    6.0250   39.2470 N.am   36  PRO36      -0.2718
      9  CA        14.7770    6.5140   39.3840 C.3    36  PRO36       0.1535
     10  C         14.3960    7.2020   38.0740 C.2    36  PRO36       0.2599
     11  O         15.2710    7.7260   37.3780 O.2    36  PRO36      -0.2715
     12  CB        14.8640    7.5220   40.5390 C.3    36  PRO36       0.0310
     13  CG        16.3190    7.9060   40.6170 C.3    36  PRO36       0.0237
     14  CD        17.0870    6.6890   40.1830 C.3    36  PRO36       0.0939
     15  N         13.1260    7.1770   37.7060 N.am   37  GLY37      -0.1941
     16  CA        12.7570    7.7500   36.4170 C.3    37  GLY37       0.2014
     17  C         12.6190    6.7250   35.3020 C.2    37  GLY37       0.2639
     18  O         11.8940    6.9640   34.3300 O.2    37  GLY37      -0.2714
     19  N         13.3210    5.5980   35.4330 N.am   38  ALA38      -0.1963
     20  CA        13.1130    4.4350   34.5700 C.3    38  ALA38       0.1728
     21  C         11.7250    3.8510   34.8330 C.2    38  ALA38       0.2616
     22  O         11.2480    3.9230   35.9500 O.2    38  ALA38      -0.2715
     23  CB        14.1760    3.4020   34.8370 C.3    38  ALA38       0.0334
     24  N         11.0760    3.2910   33.8170 N.am   39  TRP39      -0.1974
     25  CA         9.7340    2.7290   33.9900 C.3    39  TRP39       0.1640
     26  C          9.7990    1.3700   34.6800 C.2    39  TRP39       0.2290
     27  O         10.7810    0.6460   34.5230 O.2    39  TRP39      -0.2864
     28  CB         9.0480    2.5390   32.6410 C.3    39  TRP39       0.0576
     29  CG         8.6490    3.7770   31.9300 C.ar   39  TRP39       0.0006
     30  CD1        9.2980    4.9720   31.9390 C.ar   39  TRP39       0.0946
     31  CD2        7.5300    3.9350   31.0370 C.ar   39  TRP39       0.0152
     32  NE1        8.6400    5.8740   31.1360 N.ar   39  TRP39      -0.2442
     33  CE2        7.5640    5.2660   30.5590 C.ar   39  TRP39       0.0810
     34  CE3        6.4980    3.0870   30.6080 C.ar   39  TRP39       0.0012
     35  CZ2        6.6030    5.7780   29.6750 C.ar   39  TRP39       0.0191
     36  CZ3        5.5530    3.5880   29.7090 C.ar   39  TRP39       0.0001
     37  CH2        5.6210    4.9210   29.2490 C.ar   39  TRP39       0.0015
     38  N          5.2480    4.7820   34.0880 N.3   168  LYS168     -0.1245
     39  CA         6.1060    5.8160   34.6570 C.3   168  LYS168      0.1561
     40  C          6.2620    5.7090   36.1900 C.2   168  LYS168      0.2260
     41  O          5.3120    5.3600   36.9070 O.2   168  LYS168     -0.2867
     42  CB         5.6380    7.2050   34.2260 C.3   168  LYS168      0.0271
     43  CG         6.2400    7.5900   32.9000 C.3   168  LYS168      0.0035
     44  CD         6.0690    9.0710   32.5760 C.3   168  LYS168      0.0206
     45  CE         6.8330    9.4620   31.2970 C.3   168  LYS168      0.1093
     46  NZ         6.8850   10.9410   31.1190 N.3   168  LYS168     -0.1314
     47  N         13.1120    5.5560   24.2350 N.3   405  ALA405     -0.1245
     48  CA        12.6950    5.0410   25.5270 C.3   405  ALA405      0.1562
     49  C         11.9060    3.7280   25.4160 C.2   405  ALA405      0.2260
     50  O         12.1210    2.8030   26.2240 O.2   405  ALA405     -0.2867
     51  CB        11.8890    6.0820   26.2620 C.3   405  ALA405      0.0290
     52  N         14.4980    1.1850   24.6970 N.3   408  ASP408     -0.1225
     53  CA        15.2900    1.0080   25.9160 C.3   408  ASP408      0.1805
     54  C         14.5470    0.0940   26.9100 C.2   408  ASP408      0.2597
     55  O         15.1330   -0.8510   27.4420 O.2   408  ASP408     -0.2718
     56  CB        15.6350    2.3670   26.5340 C.3   408  ASP408      0.1424
     57  CG        16.7950    3.0900   25.8020 C.2   408  ASP408      0.3668
     58  OD1       17.6780    2.4270   25.2150 O.co2 408  ASP408     -0.2456
     59  OD2       16.8420    4.3380   25.8270 O.co2 408  ASP408     -0.2456
     60  N         13.2490    0.3490   27.1140 N.am  409  ARG409     -0.1979
     61  CA        12.4050   -0.4980   27.9800 C.3   409  ARG409      0.1597
     62  C         12.4520   -1.9730   27.6120 C.2   409  ARG409      0.2287
     63  O         12.5590   -2.8210   28.4860 O.2   409  ARG409     -0.2864
     64  CB        10.9470   -0.0360   27.9870 C.3   409  ARG409      0.0334
     65  CG        10.5720    0.8450   29.1550 C.3   409  ARG409      0.0492
     66  CD         9.2290    1.4600   28.9040 C.3   409  ARG409      0.2205
     67  NE         9.3490    2.6490   28.0710 N.pl3 409  ARG409     -0.0865
     68  CZ         8.4520    3.0260   27.1730 C.cat 409  ARG409      0.5346
     69  NH1        7.3640    2.2990   26.9640 N.pl3 409  ARG409      0.1354
     70  NH2        8.6530    4.1320   26.4710 N.pl3 409  ARG409      0.1354
     71  N         15.4590   -3.5570   29.0440 N.3   412  LEU412     -0.1245
     72  CA        15.4530   -3.6380   30.5100 C.3   412  LEU412      0.1561
     73  C         14.5150   -4.6980   31.1250 C.2   412  LEU412      0.2260
     74  O         14.7200   -5.1240   32.2760 O.2   412  LEU412     -0.2867
     75  CB        15.1390   -2.2520   31.0910 C.3   412  LEU412      0.0270
     76  CG        16.2390   -1.2100   30.8270 C.3   412  LEU412      0.0019
     77  CD1       15.7490    0.1840   31.0240 C.3   412  LEU412      0.0001
     78  CD2       17.5000   -1.4760   31.6620 C.3   412  LEU412      0.0001
@<TRIPOS>BOND
     1    47    48    1
     2    52    53    1
     3    58    57   ar
     4    49    48    1
     5    49    50    2
     6    48    51    1
     7    57    59   ar
     8    57    56    1
     9    53    56    1
    10    53    54    1
    11    70    68    1
    12    54    60   am
    13    54    55    2
    14    69    68    1
    15    60    61    1
    16    68    67    2
    17    62    61    1
    18    62    63    2
    19    61    64    1
    20    64    65    1
    21    67    66    1
    22    66    65    1
    23    71    72    1
    24    37    35   ar
    25    37    36   ar
    26    35    33   ar
    27    36    34   ar
    28    72    75    1
    29    72    73    1
    30    33    31   ar
    31    33    32   ar
    32    34    31   ar
    33    76    77    1
    34    76    75    1
    35    76    78    1
    36    31    29   ar
    37    46    45    1
    38    73    74    2
    39    32    30   ar
    40    45    44    1
    41    29    30   ar
    42    29    28    1
    43    44    43    1
    44    28    25    1
    45    43    42    1
    46    24    25    1
    47    24    21   am
    48    25    26    1
    49    38    39    1
    50    42    39    1
    51    18    17    2
    52    27    26    2
    53    20    21    1
    54    20    23    1
    55    20    19    1
    56    39    40    1
    57    21    22    2
    58    17    19   am
    59    17    16    1
    60     6     7    1
    61     6     5    1
    62     7     1    1
    63    40    41    2
    64    16    15    1
    65     5     2    1
    66     1     2    1
    67    11    10    2
    68    15    10   am
    69     2     3    1
    70     4     3    2
    71    10     9    1
    72     3     8   am
    73     8     9    1
    74     8    14    1
    75     9    12    1
    76    14    13    1
    77    12    13    1
