@<TRIPOS>MOLECULE
tmp/3ur0C01.pdb
 199 188 0 0 0
SMALL
GASTEIGER

@<TRIPOS>ATOM
      1  N         11.0760    3.2910   33.8170 N.3    39  TRP39      -0.1241
      2  CA         9.7340    2.7290   33.9900 C.3    39  TRP39       0.1605
      3  C          9.7990    1.3700   34.6800 C.2    39  TRP39       0.2264
      4  O         10.7810    0.6460   34.5230 O.2    39  TRP39      -0.2867
      5  CB         9.0480    2.5390   32.6410 C.3    39  TRP39       0.0550
      6  CG         8.6490    3.7770   31.9300 C.ar   39  TRP39       0.0003
      7  CD1        9.2980    4.9720   31.9390 C.ar   39  TRP39       0.0946
      8  CD2        7.5300    3.9350   31.0370 C.ar   39  TRP39       0.0152
      9  NE1        8.6400    5.8740   31.1360 N.ar   39  TRP39      -0.2442
     10  CE2        7.5640    5.2660   30.5590 C.ar   39  TRP39       0.0810
     11  CE3        6.4980    3.0870   30.6080 C.ar   39  TRP39       0.0012
     12  CZ2        6.6030    5.7780   29.6750 C.ar   39  TRP39       0.0191
     13  CZ3        5.5530    3.5880   29.7090 C.ar   39  TRP39       0.0001
     14  CH2        5.6210    4.9210   29.2490 C.ar   39  TRP39       0.0015
     15  N        -10.5420    4.0790   42.9100 N.3    62  ASP62      -0.1225
     16  CA       -10.1410    5.3110   42.2400 C.3    62  ASP62       0.1805
     17  C        -10.5830    5.2350   40.7590 C.2    62  ASP62       0.2597
     18  O        -11.3790    6.0670   40.3150 O.2    62  ASP62      -0.2718
     19  CB        -8.6310    5.5510   42.3680 C.3    62  ASP62       0.1424
     20  CG        -8.1740    5.9310   43.8050 C.2    62  ASP62       0.3668
     21  OD1       -8.9730    6.3220   44.6940 O.co2  62  ASP62      -0.2456
     22  OD2       -6.9530    5.8700   44.0280 O.co2  62  ASP62      -0.2456
     23  N        -10.1080    4.2060   40.0370 N.am   63  GLN63      -0.1979
     24  CA       -10.5400    3.8750   38.6560 C.3    63  GLN63       0.1601
     25  C        -12.0420    3.8830   38.3930 C.2    63  GLN63       0.2287
     26  O        -12.4660    4.2180   37.3040 O.2    63  GLN63      -0.2864
     27  CB       -10.0130    2.5030   38.2170 C.3    63  GLN63       0.0394
     28  CG        -8.5300    2.3660   38.1930 C.3    63  GLN63       0.0908
     29  CD        -7.8620    3.3510   37.2570 C.2    63  GLN63       0.2608
     30  OE1       -8.0430    3.3070   36.0270 O.2    63  GLN63      -0.2717
     31  NE2       -7.0530    4.2280   37.8370 N.am   63  GLN63      -0.0878
     32  N        -14.2280    5.9040   39.7520 N.3    65  LYS65      -0.1231
     33  CA       -14.7740    7.2180   40.0700 C.3    65  LYS65       0.1678
     34  C        -15.4420    7.8880   38.8720 C.2    65  LYS65       0.2434
     35  O        -16.5820    8.3210   38.9820 O.2    65  LYS65      -0.2733
     36  CB       -13.6660    8.1100   40.6030 C.3    65  LYS65       0.0284
     37  CG       -13.9910    8.7810   41.8930 C.3    65  LYS65       0.0035
     38  CD       -12.7840    9.5120   42.4590 C.3    65  LYS65       0.0206
     39  CE       -13.1060   10.1420   43.8050 C.3    65  LYS65       0.1093
     40  NZ       -11.9200   10.8120   44.4070 N.3    65  LYS65      -0.1314
     41  N        -14.7510    7.9370   37.7090 N.am   66  PRO66      -0.2729
     42  CA       -15.2660    8.6050   36.5270 C.3    66  PRO66       0.1401
     43  C        -16.5630    8.0130   35.9810 C.2    66  PRO66       0.2269
     44  O        -17.3250    8.7180   35.2900 O.2    66  PRO66      -0.2865
     45  CB       -14.1420    8.4130   35.4990 C.3    66  PRO66       0.0296
     46  CG       -12.9690    7.9890   36.2300 C.3    66  PRO66       0.0237
     47  CD       -13.4890    7.2340   37.3900 C.3    66  PRO66       0.0939
     48  N        -19.2790   10.2380   37.4270 N.3    69  GLU69      -0.1245
     49  CA       -19.3560   11.6370   37.0250 C.3    69  GLU69       0.1567
     50  C        -20.4120   11.6700   35.9480 C.2    69  GLU69       0.2260
     51  O        -20.4630   10.7540   35.1400 O.2    69  GLU69      -0.2867
     52  CB       -18.0330   12.1540   36.4630 C.3    69  GLU69       0.0388
     53  CG       -16.8160   11.9490   37.3780 C.3    69  GLU69       0.1160
     54  CD       -16.8930   12.7230   38.7040 C.2    69  GLU69       0.3649
     55  OE1      -17.4640   13.8360   38.7170 O.co2  69  GLU69      -0.2457
     56  OE2      -16.3700   12.2180   39.7350 O.co2  69  GLU69      -0.2457
     57  N          1.2880   -3.7120   33.5230 N.3   165  GLU165     -0.1231
     58  CA         2.0920   -3.1200   32.4720 C.3   165  GLU165      0.1699
     59  C          3.1770   -2.2310   33.0450 C.2   165  GLU165      0.2592
     60  O          3.1320   -1.8630   34.2040 O.2   165  GLU165     -0.2718
     61  CB         1.2040   -2.3060   31.5210 C.3   165  GLU165      0.0402
     62  CG         0.6700   -1.0730   32.1710 C.3   165  GLU165      0.1161
     63  CD        -0.5130   -0.4300   31.4280 C.2   165  GLU165      0.3649
     64  OE1       -0.6500   -0.5280   30.1810 O.co2 165  GLU165     -0.2457
     65  OE2       -1.3140    0.2070   32.1110 O.co2 165  GLU165     -0.2457
     66  N          4.1550   -1.9040   32.2140 N.am  166  LEU166     -0.1966
     67  CA         5.2100   -0.9970   32.5830 C.3   166  LEU166      0.1728
     68  C          4.6600    0.4140   32.5770 C.2   166  LEU166      0.2616
     69  O          3.9660    0.8170   31.6300 O.2   166  LEU166     -0.2715
     70  CB         6.3400   -1.1260   31.5720 C.3   166  LEU166      0.0311
     71  CG         7.5750   -1.9950   31.8360 C.3   166  LEU166      0.0022
     72  CD1        7.3930   -3.0190   32.9600 C.3   166  LEU166      0.0001
     73  CD2        8.0230   -2.6440   30.5270 C.3   166  LEU166      0.0001
     74  N          4.9530    1.1640   33.6310 N.am  167  VAL167     -0.1963
     75  CA         4.4470    2.5240   33.7530 C.3   167  VAL167      0.1727
     76  C          5.5300    3.4820   34.2220 C.2   167  VAL167      0.2616
     77  O          6.5780    3.0500   34.7240 O.2   167  VAL167     -0.2715
     78  CB         3.2690    2.6300   34.7530 C.3   167  VAL167      0.0290
     79  CG1        2.1150    1.7570   34.3330 C.3   167  VAL167      0.0023
     80  CG2        3.7390    2.3290   36.2240 C.3   167  VAL167      0.0023
     81  N          5.2480    4.7820   34.0880 N.am  168  LYS168     -0.1977
     82  CA         6.1060    5.8160   34.6570 C.3   168  LYS168      0.1596
     83  C          6.2620    5.7090   36.1900 C.2   168  LYS168      0.2287
     84  O          5.3120    5.3600   36.9070 O.2   168  LYS168     -0.2864
     85  CB         5.6380    7.2050   34.2260 C.3   168  LYS168      0.0298
     86  CG         6.2400    7.5900   32.9000 C.3   168  LYS168      0.0038
     87  CD         6.0690    9.0710   32.5760 C.3   168  LYS168      0.0206
     88  CE         6.8330    9.4620   31.2970 C.3   168  LYS168      0.1093
     89  NZ         6.8850   10.9410   31.1190 N.3   168  LYS168     -0.1314
     90  N          3.7470    6.9410   38.8240 N.3   171  LYS171     -0.1245
     91  CA         2.5420    6.0990   38.9540 C.3   171  LYS171      0.1561
     92  C          2.6830    5.0140   40.0100 C.2   171  LYS171      0.2260
     93  O          1.6890    4.4610   40.4760 O.2   171  LYS171     -0.2867
     94  CB         2.1270    5.4950   37.6090 C.3   171  LYS171      0.0271
     95  CG         0.8770    6.0960   37.0750 C.3   171  LYS171      0.0035
     96  CD         0.8940    6.1630   35.5740 C.3   171  LYS171      0.0206
     97  CE         0.0300    7.2980   35.0730 C.3   171  LYS171      0.1093
     98  NZ         0.5660    8.6370   35.4920 N.3   171  LYS171     -0.1314
     99  N          1.5850    9.4050   43.1980 N.3   175  LYS175     -0.1245
    100  CA         0.1780    9.0160   43.2780 C.3   175  LYS175      0.1561
    101  C         -0.0590    7.7570   42.4460 C.2   175  LYS175      0.2260
    102  O          0.1120    7.7510   41.2140 O.2   175  LYS175     -0.2867
    103  CB        -0.7410   10.1460   42.7860 C.3   175  LYS175      0.0271
    104  CG        -2.2100    9.7230   42.5700 C.3   175  LYS175      0.0035
    105  CD        -2.9890    9.8040   43.8830 C.3   175  LYS175      0.0206
    106  CE        -4.3790    9.1700   43.8140 C.3   175  LYS175      0.1093
    107  NZ        -5.0720    9.3110   45.1460 N.3   175  LYS175     -0.1314
    108  N         -1.5870    4.6640   40.4840 N.3   177  LYS177     -0.1231
    109  CA        -2.6360    4.4710   39.5100 C.3   177  LYS177      0.1693
    110  C         -2.4060    3.1500   38.7600 C.2   177  LYS177      0.2592
    111  O         -1.2690    2.7800   38.4540 O.2   177  LYS177     -0.2718
    112  CB        -2.6500    5.6540   38.5290 C.3   177  LYS177      0.0285
    113  CG        -3.2710    6.9250   39.0730 C.3   177  LYS177      0.0035
    114  CD        -2.9040    8.1520   38.2420 C.3   177  LYS177      0.0206
    115  CE        -3.3810    9.4380   38.9270 C.3   177  LYS177      0.1093
    116  NZ        -2.7360   10.6650   38.3820 N.3   177  LYS177     -0.1314
    117  N         -3.4920    2.4480   38.4620 N.am  178  LYS178     -0.1966
    118  CA        -3.4350    1.2460   37.6560 C.3   178  LYS178      0.1728
    119  C         -4.7530    1.1090   36.9030 C.2   178  LYS178      0.2616
    120  O         -5.8240    1.2730   37.4860 O.2   178  LYS178     -0.2715
    121  CB        -3.1770    0.0340   38.5420 C.3   178  LYS178      0.0311
    122  CG        -2.5960   -1.1620   37.8180 C.3   178  LYS178      0.0038
    123  CD        -1.9990   -2.2130   38.8090 C.3   178  LYS178      0.0206
    124  CE        -1.7280   -3.5600   38.1540 C.3   178  LYS178      0.1093
    125  NZ        -1.2290   -4.6090   39.1100 N.3   178  LYS178     -0.1314
    126  N         -4.6570    0.7880   35.6190 N.am  179  ARG179     -0.1977
    127  CA        -5.7830    0.8080   34.6820 C.3   179  ARG179      0.1597
    128  C         -6.7920   -0.3110   34.8540 C.2   179  ARG179      0.2287
    129  O         -6.4470   -1.4890   34.8860 O.2   179  ARG179     -0.2864
    130  CB        -5.2740    0.7850   33.2380 C.3   179  ARG179      0.0334
    131  CG        -4.8090    2.1440   32.7390 C.3   179  ARG179      0.0492
    132  CD        -4.8300    2.2070   31.2150 C.3   179  ARG179      0.2205
    133  NE        -3.5990    1.6730   30.6370 N.pl3 179  ARG179     -0.0865
    134  CZ        -3.3450    1.6140   29.3330 C.cat 179  ARG179      0.5346
    135  NH1       -4.2410    2.0560   28.4530 N.pl3 179  ARG179      0.1354
    136  NH2       -2.1930    1.1160   28.9040 N.pl3 179  ARG179      0.1354
    137  N         -7.7090   11.7130   27.6770 N.3   241  THR241     -0.1203
    138  CA        -7.5510   11.1940   29.0300 C.3   241  THR241      0.1994
    139  C         -8.8910   10.5340   29.3660 C.2   241  THR241      0.2617
    140  O         -9.9320   11.0720   29.0400 O.2   241  THR241     -0.2717
    141  CB        -7.3160   12.3850   30.0180 C.3   241  THR241      0.1784
    142  OG1       -5.9790   12.8540   29.8960 O.3   241  THR241     -0.2211
    143  CG2       -7.5000   11.9990   31.4590 C.3   241  THR241      0.0376
    144  N         -8.8580    9.3750   30.0100 N.am  242  ARG242     -0.1979
    145  CA       -10.0550    8.6730   30.4540 C.3   242  ARG242      0.1597
    146  C        -11.0880    8.5430   29.3360 C.2   242  ARG242      0.2287
    147  O        -12.2680    8.9050   29.5100 O.2   242  ARG242     -0.2864
    148  CB       -10.6710    9.3550   31.7060 C.3   242  ARG242      0.0334
    149  CG        -9.6660    9.6720   32.8130 C.3   242  ARG242      0.0492
    150  CD       -10.3370    9.8180   34.1690 C.3   242  ARG242      0.2205
    151  NE       -10.7500   11.1870   34.4370 N.pl3 242  ARG242     -0.0865
    152  CZ        -9.9080   12.1800   34.7290 C.cat 242  ARG242      0.5346
    153  NH1       -8.5920   11.9500   34.7890 N.pl3 242  ARG242      0.1354
    154  NH2      -10.3780   13.4040   34.9630 N.pl3 242  ARG242      0.1354
    155  N          0.6390   20.0210   27.6600 N.3   370  LYS370     -0.1245
    156  CA        -0.1710   19.7140   28.8540 C.3   370  LYS370      0.1561
    157  C         -0.6860   20.9840   29.5240 C.2   370  LYS370      0.2260
    158  O         -1.1410   20.9560   30.6700 O.2   370  LYS370     -0.2867
    159  CB         0.5720   18.8250   29.8730 C.3   370  LYS370      0.0271
    160  CG         1.5470   17.7910   29.2900 C.3   370  LYS370      0.0035
    161  CD         0.9930   16.3810   29.1820 C.3   370  LYS370      0.0206
    162  CE         2.1450   15.4170   28.9220 C.3   370  LYS370      0.1093
    163  NZ         1.7150   14.0530   28.5020 N.3   370  LYS370     -0.1314
    164  N          1.6700    4.2290   19.4130 N.3   388  ARG388     -0.1245
    165  CA         2.9620    4.2510   20.1510 C.3   388  ARG388      0.1563
    166  C          4.2200    4.4700   19.2980 C.2   388  ARG388      0.2260
    167  O          5.3410    4.3370   19.8110 O.2   388  ARG388     -0.2867
    168  CB         3.1600    2.9860   21.0150 C.3   388  ARG388      0.0307
    169  CG         2.0630    2.7320   22.0060 C.3   388  ARG388      0.0489
    170  CD         1.9060    1.2590   22.3050 C.3   388  ARG388      0.2205
    171  NE         1.1130    0.5590   21.2970 N.pl3 388  ARG388     -0.0865
    172  CZ         1.5730   -0.4130   20.5080 C.cat 388  ARG388      0.5346
    173  NH1        2.8370   -0.8190   20.5950 N.pl3 388  ARG388      0.1354
    174  NH2        0.7590   -0.9900   19.6280 N.pl3 388  ARG388      0.1354
    175  N          9.8770    5.1880   19.7330 N.3   403  ASP403     -0.1239
    176  CA        10.7860    6.0820   20.4700 C.3   403  ASP403      0.1674
    177  C         11.9220    5.3480   21.1900 C.2   403  ASP403      0.2266
    178  O         11.7930    4.1670   21.5310 O.2   403  ASP403     -0.2867
    179  CB        10.0270    6.9340   21.4930 C.3   403  ASP403      0.1410
    180  CG         9.2390    6.0930   22.4570 C.2   403  ASP403      0.3668
    181  OD1        8.1600    5.6110   22.0450 O.co2 403  ASP403     -0.2456
    182  OD2        9.7000    5.8910   23.6000 O.co2 403  ASP403     -0.2456
    183  N         11.0070    3.6340   24.4350 N.3   406  SER406     -0.1217
    184  CA        10.2460    2.3930   24.2420 C.3   406  SER406      0.1889
    185  C         11.1440    1.2320   23.8600 C.2   406  SER406      0.2288
    186  O         10.8710    0.1050   24.2310 O.2   406  SER406     -0.2866
    187  CB         9.1410    2.5480   23.1940 C.3   406  SER406      0.2089
    188  OG         8.1200    3.4090   23.6420 O.3   406  SER406     -0.2183
    189  N         13.2490    0.3490   27.1140 N.3   409  ARG409     -0.1245
    190  CA        12.4050   -0.4980   27.9800 C.3   409  ARG409      0.1563
    191  C         12.4520   -1.9730   27.6120 C.2   409  ARG409      0.2260
    192  O         12.5590   -2.8210   28.4860 O.2   409  ARG409     -0.2867
    193  CB        10.9470   -0.0360   27.9870 C.3   409  ARG409      0.0307
    194  CG        10.5720    0.8450   29.1550 C.3   409  ARG409      0.0489
    195  CD         9.2290    1.4600   28.9040 C.3   409  ARG409      0.2205
    196  NE         9.3490    2.6490   28.0710 N.pl3 409  ARG409     -0.0865
    197  CZ         8.4520    3.0260   27.1730 C.cat 409  ARG409      0.5346
    198  NH1        7.3640    2.2990   26.9640 N.pl3 409  ARG409      0.1354
    199  NH2        8.6530    4.1320   26.4710 N.pl3 409  ARG409      0.1354
@<TRIPOS>BOND
     1   166   167    2
     2   166   165    1
     3   164   165    1
     4   174   172    1
     5   175   176    1
     6   165   168    1
     7   176   177    1
     8   176   179    1
     9   172   173    1
    10   172   171    2
    11   168   169    1
    12   177   178    2
    13   171   170    1
    14   179   180    1
    15   169   170    1
    16   181   180   ar
    17   180   182   ar
    18   187   188    1
    19   187   184    1
    20   185   186    2
    21   185   184    1
    22   184   183    1
    23   199   197    1
    24   198   197    1
    25   189   190    1
    26   197   196    2
    27   191   190    1
    28   191   192    2
    29   155   156    1
    30   137   138    1
    31   190   193    1
    32   193   194    1
    33   196   195    1
    34   135   134    1
    35   163   162    1
    36   156   157    1
    37   156   159    1
    38   195   194    1
    39   136   134    1
    40   162   161    1
    41   138   139    1
    42   138   141    1
    43   140   139    2
    44   161   160    1
    45    14    12   ar
    46    14    13   ar
    47   160   159    1
    48   134   133    2
    49   146   147    2
    50   146   145    1
    51   139   144   am
    52   157   158    2
    53    12    10   ar
    54    13    11   ar
    55   142   141    1
    56   144   145    1
    57   141   143    1
    58    64    63   ar
    59   145   148    1
    60    73    71    1
    61    10     8   ar
    62    10     9   ar
    63    11     8   ar
    64   133   132    1
    65     8     6   ar
    66    89    88    1
    67     9     7   ar
    68   132   131    1
    69    88    87    1
    70    63    65   ar
    71    63    62    1
    72    61    62    1
    73    61    58    1
    74    70    71    1
    75    70    67    1
    76    69    68    2
    77   148   149    1
    78    71    72    1
    79     6     7   ar
    80     6     5    1
    81    66    67    1
    82    66    59   am
    83    58    59    1
    84    58    57    1
    85    87    86    1
    86    68    67    1
    87    68    74   am
    88     5     2    1
    89   131   130    1
    90   149   150    1
    91    86    85    1
    92    59    60    2
    93   130   127    1
    94    74    75    1
    95    75    76    1
    96    75    78    1
    97     1     2    1
    98     2     3    1
    99    81    76   am
   100    81    82    1
   101   150   151    1
   102    76    77    2
   103    85    82    1
   104    79    78    1
   105   151   152    2
   106     4     3    2
   107    82    83    1
   108   127   128    1
   109   127   126    1
   110   152   153    1
   111   152   154    1
   112    78    80    1
   113   128   129    2
   114    97    98    1
   115    97    96    1
   116    51    50    2
   117    44    43    2
   118    45    46    1
   119    45    42    1
   120    96    95    1
   121   126   119   am
   122    50    49    1
   123    43    42    1
   124    30    29    2
   125    83    84    2
   126    46    47    1
   127    52    49    1
   128    52    53    1
   129    42    41    1
   130   119   120    2
   131   119   118    1
   132    49    48    1
   133    95    94    1
   134    29    31   am
   135    29    28    1
   136    26    25    2
   137    53    54    1
   138    47    41    1
   139    94    91    1
   140   118   117    1
   141   118   121    1
   142    41    34   am
   143   122   121    1
   144   122   123    1
   145   124   123    1
   146   124   125    1
   147    28    27    1
   148    27    24    1
   149   114   115    1
   150   114   113    1
   151   116   115    1
   152    25    24    1
   153   111   110    2
   154   117   110   am
   155   112   113    1
   156   112   109    1
   157    24    23    1
   158    54    55   ar
   159    54    56   ar
   160   110   109    1
   161    90    91    1
   162    34    35    2
   163    34    33    1
   164    91    92    1
   165   109   108    1
   166    32    33    1
   167    92    93    2
   168    23    17   am
   169    33    36    1
   170    18    17    2
   171    36    37    1
   172    17    16    1
   173   102   101    2
   174    37    38    1
   175    16    19    1
   176    16    15    1
   177    19    20    1
   178   101   100    1
   179    38    39    1
   180   104   103    1
   181   104   105    1
   182   103   100    1
   183    99   100    1
   184    20    22   ar
   185    20    21   ar
   186    39    40    1
   187   106   105    1
   188   106   107    1
