@<TRIPOS>MOLECULE
tmp/3ur4A00.pdb
 167 160 0 0 0
SMALL
GASTEIGER

@<TRIPOS>ATOM
      1  N         37.4160   13.6830    7.6240 N.3    17  ALA17      -0.1231
      2  CA        37.0440   12.8180    8.7500 C.3    17  ALA17       0.1694
      3  C         38.2310   12.0480    9.3250 C.2    17  ALA17       0.2592
      4  O         39.0680   11.5280    8.5810 O.2    17  ALA17      -0.2718
      5  CB        35.9510   11.8400    8.3320 C.3    17  ALA17       0.0304
      6  N         38.3030   11.9830   10.6500 N.am   18  VAL18      -0.1966
      7  CA        39.2890   11.1420   11.3140 C.3    18  VAL18       0.1727
      8  C         38.6650    9.7600   11.4340 C.2    18  VAL18       0.2617
      9  O         37.4680    9.6390   11.6910 O.2    18  VAL18      -0.2715
     10  CB        39.6880   11.6930   12.7030 C.3    18  VAL18       0.0290
     11  CG1       40.8070   10.8500   13.3150 C.3    18  VAL18       0.0023
     12  CG2       40.1290   13.1500   12.5920 C.3    18  VAL18       0.0023
     13  N         39.4660    8.7210   11.2260 N.am   19  SER19      -0.1936
     14  CA        38.9540    7.3530   11.2360 C.3    19  SER19       0.2055
     15  C         39.3380    6.5420   12.4700 C.2    19  SER19       0.2643
     16  O         38.5730    5.6840   12.9100 O.2    19  SER19      -0.2714
     17  CB        39.4240    6.6130    9.9850 C.3    19  SER19       0.2130
     18  OG        40.8310    6.7170    9.8240 O.3    19  SER19      -0.2179
     19  N         40.5240    6.7980   13.0160 N.am   20  SER20      -0.1949
     20  CA        41.0680    5.9410   14.0630 C.3    20  SER20       0.1924
     21  C         42.1310    6.6630   14.8680 C.2    20  SER20       0.2314
     22  O         42.9770    7.3610   14.3020 O.2    20  SER20      -0.2863
     23  CB        41.6670    4.6740   13.4360 C.3    20  SER20       0.2116
     24  OG        41.8520    3.6590   14.4020 O.3    20  SER20      -0.2180
     25  N         40.5170   10.1580    6.4480 N.3    35  ALA35      -0.1245
     26  CA        40.1280   10.1680    5.0420 C.3    35  ALA35       0.1562
     27  C         41.0330   11.0910    4.2060 C.2    35  ALA35       0.2260
     28  O         41.0590   10.9920    2.9790 O.2    35  ALA35      -0.2867
     29  CB        38.6690   10.5790    4.9040 C.3    35  ALA35       0.0290
     30  N         42.2030    7.4910    1.1700 N.3    59  GLY59      -0.1210
     31  CA        41.9230    7.6290    2.5990 C.3    59  GLY59       0.1956
     32  C         42.2760    6.4030    3.4190 C.2    59  GLY59       0.2612
     33  O         42.3830    5.2880    2.8810 O.2    59  GLY59      -0.2717
     34  N         42.4360    6.6180    4.7250 N.am   60  ILE60      -0.1965
     35  CA        42.8860    5.5730    5.6540 C.3    60  ILE60       0.1727
     36  C         41.7990    5.3190    6.6940 C.2    60  ILE60       0.2617
     37  O         41.3040    6.2630    7.2860 O.2    60  ILE60      -0.2715
     38  CB        44.1950    5.9920    6.3740 C.3    60  ILE60       0.0290
     39  CG1       45.2840    6.3410    5.3490 C.3    60  ILE60       0.0022
     40  CG2       44.6740    4.8920    7.3390 C.3    60  ILE60       0.0023
     41  CD1       46.5080    7.0430    5.9340 C.3    60  ILE60       0.0001
     42  N         41.4430    4.0500    6.9150 N.am   61  SER61      -0.1936
     43  CA        40.4130    3.6820    7.9110 C.3    61  SER61       0.2055
     44  C         40.9860    3.3220    9.2840 C.2    61  SER61       0.2643
     45  O         40.2920    3.4210   10.3030 O.2    61  SER61      -0.2714
     46  CB        39.5710    2.4970    7.4090 C.3    61  SER61       0.2130
     47  OG        38.6870    2.8880    6.3700 O.3    61  SER61      -0.2179
     48  N         42.2400    2.8800    9.3230 N.am   62  ASP62      -0.1971
     49  CA        42.7770    2.3210   10.5660 C.3    62  ASP62       0.1709
     50  C         44.2910    2.4060   10.6280 C.2    62  ASP62       0.2293
     51  O         44.9700    2.4330    9.5920 O.2    62  ASP62      -0.2864
     52  CB        42.3150    0.8570   10.7290 C.3    62  ASP62       0.1436
     53  CG        42.2800    0.3890   12.1890 C.2    62  ASP62       0.3671
     54  OD1       42.4410    1.2140   13.1200 O.co2  62  ASP62      -0.2456
     55  OD2       42.0740   -0.8270   12.4040 O.co2  62  ASP62      -0.2456
     56  N         41.8920    2.7690    1.6510 N.3    77  ASP77      -0.1239
     57  CA        41.0210    2.6060    0.4980 C.3    77  ASP77       0.1674
     58  C         41.8140    2.3170   -0.7890 C.2    77  ASP77       0.2266
     59  O         41.2350    1.8900   -1.7980 O.2    77  ASP77      -0.2867
     60  CB        40.1620    3.8700    0.3000 C.3    77  ASP77       0.1410
     61  CG        38.9170    3.9110    1.2070 C.2    77  ASP77       0.3668
     62  OD1       38.7990    3.1260    2.1710 O.co2  77  ASP77      -0.2456
     63  OD2       38.0380    4.7590    0.9450 O.co2  77  ASP77      -0.2456
     64  N         40.0060   -2.0240    5.6870 N.3   103  PHE103     -0.1227
     65  CA        39.2840   -1.3030    6.7430 C.3   103  PHE103      0.1736
     66  C         39.9030   -1.3840    8.1300 C.2   103  PHE103      0.2595
     67  O         39.7030   -0.4810    8.9520 O.2   103  PHE103     -0.2718
     68  CB        37.8440   -1.8100    6.8550 C.3   103  PHE103      0.0547
     69  CG        36.9540   -1.3890    5.7230 C.ar  103  PHE103     -0.0202
     70  CD1       37.0680   -0.1230    5.1500 C.ar  103  PHE103     -0.0042
     71  CD2       35.9670   -2.2500    5.2580 C.ar  103  PHE103     -0.0042
     72  CE1       36.2210    0.2650    4.1080 C.ar  103  PHE103     -0.0003
     73  CE2       35.1180   -1.8740    4.2150 C.ar  103  PHE103     -0.0003
     74  CZ        35.2460   -0.6200    3.6400 C.ar  103  PHE103     -0.0000
     75  N         40.6370   -2.4590    8.4030 N.am  104  CYS104     -0.1970
     76  CA        41.1190   -2.7180    9.7630 C.3   104  CYS104      0.1712
     77  C         42.4380   -3.4840    9.7870 C.2   104  CYS104      0.2296
     78  O         42.7370   -4.2550    8.8720 O.2   104  CYS104     -0.2864
     79  CB        40.0470   -3.4490   10.5830 C.3   104  CYS104      0.0983
     80  SG        39.3190   -4.8680    9.7330 S.3   104  CYS104     -0.0798
     81  N         36.9280   -4.7640    2.7180 N.3   119  PHE119     -0.1241
     82  CA        35.6890   -4.7920    1.9420 C.3   119  PHE119      0.1605
     83  C         35.5960   -6.0730    1.1020 C.2   119  PHE119      0.2264
     84  O         34.4990   -6.5660    0.8490 O.2   119  PHE119     -0.2867
     85  CB        35.6210   -3.5660    1.0290 C.3   119  PHE119      0.0534
     86  CG        34.3130   -3.4190    0.2860 C.ar  119  PHE119     -0.0203
     87  CD1       33.3000   -2.5990    0.7880 C.ar  119  PHE119     -0.0042
     88  CD2       34.0990   -4.0840   -0.9200 C.ar  119  PHE119     -0.0042
     89  CE1       32.0910   -2.4540    0.1040 C.ar  119  PHE119     -0.0003
     90  CE2       32.8910   -3.9430   -1.6140 C.ar  119  PHE119     -0.0003
     91  CZ        31.8890   -3.1230   -1.0990 C.ar  119  PHE119     -0.0000
     92  N         31.6640   -7.1230    3.8440 N.3   143  PRO143     -0.2116
     93  CA        32.8360   -6.4120    4.3560 C.3   143  PRO143      0.1372
     94  C         33.2300   -6.7500    5.8030 C.2   143  PRO143      0.2244
     95  O         32.3620   -6.8820    6.6870 O.2   143  PRO143     -0.2868
     96  CB        32.4230   -4.9450    4.2280 C.3   143  PRO143      0.0268
     97  CG        31.5780   -4.9410    2.9860 C.3   143  PRO143      0.0207
     98  CD        30.7950   -6.2300    3.0500 C.3   143  PRO143      0.0892
     99  N         34.7130   -5.6310    9.2000 N.3   145  SER145     -0.1217
    100  CA        34.7780   -4.3580    9.9280 C.3   145  SER145      0.1889
    101  C         35.9250   -4.2300   10.9390 C.2   145  SER145      0.2288
    102  O         36.3820   -3.1140   11.2140 O.2   145  SER145     -0.2866
    103  CB        33.4500   -4.0940   10.6440 C.3   145  SER145      0.2089
    104  OG        33.0860   -5.2060   11.4480 O.3   145  SER145     -0.2183
    105  N         29.8730   -7.2500    8.2680 N.3   161  TYR161     -0.1241
    106  CA        28.5190   -6.8830    7.8760 C.3   161  TYR161      0.1605
    107  C         27.6190   -8.0900    7.5820 C.2   161  TYR161      0.2264
    108  O         26.3990   -7.9300    7.4470 O.2   161  TYR161     -0.2867
    109  CB        28.5710   -5.9610    6.6620 C.3   161  TYR161      0.0534
    110  CG        28.7210   -4.5130    7.0350 C.ar  161  TYR161     -0.0201
    111  CD1       29.9590   -3.9920    7.4250 C.ar  161  TYR161     -0.0009
    112  CD2       27.6190   -3.6640    7.0150 C.ar  161  TYR161     -0.0009
    113  CE1       30.0840   -2.6450    7.7820 C.ar  161  TYR161      0.0417
    114  CE2       27.7340   -2.3320    7.3620 C.ar  161  TYR161      0.0417
    115  CZ        28.9660   -1.8250    7.7400 C.ar  161  TYR161      0.1957
    116  OH        29.0590   -0.4910    8.0800 O.3   161  TYR161     -0.2866
    117  N         27.6910    3.6210   11.4330 N.3   229  TYR229     -0.1227
    118  CA        29.1420    3.6370   11.3100 C.3   229  TYR229      0.1736
    119  C         29.7990    2.5360   12.1210 C.2   229  TYR229      0.2595
    120  O         29.2480    2.0790   13.1300 O.2   229  TYR229     -0.2718
    121  CB        29.6970    5.0020   11.7080 C.3   229  TYR229      0.0548
    122  CG        29.2420    6.1050   10.7920 C.ar  229  TYR229     -0.0200
    123  CD1       29.8870    6.3380    9.5710 C.ar  229  TYR229     -0.0009
    124  CD2       28.1490    6.9020   11.1260 C.ar  229  TYR229     -0.0009
    125  CE1       29.4600    7.3520    8.7160 C.ar  229  TYR229      0.0417
    126  CE2       27.7180    7.9110   10.2820 C.ar  229  TYR229      0.0417
    127  CZ        28.3780    8.1310    9.0810 C.ar  229  TYR229      0.1957
    128  OH        27.9340    9.1370    8.2510 O.3   229  TYR229     -0.2866
    129  N         30.9790    2.1140   11.6740 N.am  230  CYS230     -0.1970
    130  CA        31.7610    1.1340   12.4150 C.3   230  CYS230      0.1712
    131  C         32.5760    1.8720   13.4660 C.2   230  CYS230      0.2296
    132  O         33.6740    2.3660   13.1940 O.2   230  CYS230     -0.2864
    133  CB        32.6450    0.3130   11.4760 C.3   230  CYS230      0.0983
    134  SG        31.6850   -0.8350   10.4560 S.3   230  CYS230     -0.0798
    135  N         34.5600    2.1970   16.9890 N.3   232  PHE232     -0.1241
    136  CA        35.4890    1.4380   17.8160 C.3   232  PHE232      0.1605
    137  C         35.0950    1.5160   19.2900 C.2   232  PHE232      0.2264
    138  O         34.6560    2.5610   19.7550 O.2   232  PHE232     -0.2867
    139  CB        36.8900    2.0130   17.6210 C.3   232  PHE232      0.0534
    140  CG        37.9910    1.0090   17.8050 C.ar  232  PHE232     -0.0203
    141  CD1       38.5610    0.8090   19.0580 C.ar  232  PHE232     -0.0042
    142  CD2       38.4690    0.2820   16.7210 C.ar  232  PHE232     -0.0042
    143  CE1       39.5940   -0.1130   19.2320 C.ar  232  PHE232     -0.0003
    144  CE2       39.5010   -0.6450   16.8830 C.ar  232  PHE232     -0.0003
    145  CZ        40.0650   -0.8370   18.1380 C.ar  232  PHE232     -0.0000
    146  N         33.6760    8.3030   15.8560 N.3   274  ILE274     -0.1231
    147  CA        33.8990    7.0010   15.2340 C.3   274  ILE274      0.1692
    148  C         34.9530    6.1650   15.9670 C.2   274  ILE274      0.2592
    149  O         34.9480    4.9400   15.8680 O.2   274  ILE274     -0.2718
    150  CB        34.2470    7.1320   13.7230 C.3   274  ILE274      0.0266
    151  CG1       34.0360    5.7830   13.0130 C.3   274  ILE274      0.0019
    152  CG2       35.6600    7.6980   13.5350 C.3   274  ILE274      0.0020
    153  CD1       33.7200    5.8780   11.5320 C.3   274  ILE274      0.0001
    154  N         35.8430    6.8230   16.7070 N.am  275  SER275     -0.1952
    155  CA        36.9680    6.1330   17.3250 C.3   275  SER275      0.1924
    156  C         37.2680    6.6650   18.7140 C.2   275  SER275      0.2314
    157  O         37.2290    7.8760   18.9510 O.2   275  SER275     -0.2863
    158  CB        38.2210    6.2660   16.4480 C.3   275  SER275      0.2116
    159  OG        39.3230    5.5830   17.0220 O.3   275  SER275     -0.2180
    160  N         33.9940   12.5200   12.7610 N.3   290  LEU290     -0.1245
    161  CA        33.8680   12.5820   11.3110 C.3   290  LEU290      0.1561
    162  C         33.9120   14.0210   10.7520 C.2   290  LEU290      0.2260
    163  O         34.2290   14.9700   11.4830 O.2   290  LEU290     -0.2867
    164  CB        32.6320   11.7890   10.8590 C.3   290  LEU290      0.0270
    165  CG        32.6190   10.2880   11.2170 C.3   290  LEU290      0.0019
    166  CD1       31.3670    9.6050   10.6900 C.3   290  LEU290      0.0001
    167  CD2       33.8870    9.5470   10.7150 C.3   290  LEU290      0.0001
@<TRIPOS>BOND
     1    59    58    2
     2    90    91   ar
     3    90    88   ar
     4    91    89   ar
     5    88    86   ar
     6    58    57    1
     7    89    87   ar
     8    86    87   ar
     9    86    85    1
    10    60    57    1
    11    60    61    1
    12    57    56    1
    13    84    83    2
    14    63    61   ar
    15    85    82    1
    16    83    82    1
    17    30    31    1
    18    61    62   ar
    19    82    81    1
    20    31    32    1
    21    33    32    2
    22    28    27    2
    23    97    98    1
    24    97    96    1
    25    98    92    1
    26    32    34   am
    27    74    72   ar
    28    74    73   ar
    29    92    93    1
    30    72    70   ar
    31    27    26    1
    32    73    71   ar
    33    96    93    1
    34    93    94    1
    35    34    35    1
    36    29    26    1
    37    26    25    1
    38    70    69   ar
    39    71    69   ar
    40    39    41    1
    41    39    38    1
    42    35    38    1
    43    35    36    1
    44    64    65    1
    45    69    68    1
    46    94    95    2
    47    47    46    1
    48    38    40    1
    49   109   110    1
    50   109   106    1
    51    36    42   am
    52    36    37    2
    53    65    68    1
    54    65    66    1
    55    42    43    1
    56   112   110   ar
    57   112   114   ar
    58   110   111   ar
    59   114   115   ar
    60    46    43    1
    61   111   113   ar
    62   108   107    2
    63   107   106    1
    64     1     2    1
    65   115   113   ar
    66   115   116    1
    67   106   105    1
    68    43    44    1
    69    66    75   am
    70    66    67    2
    71   128   127    1
    72     5     2    1
    73    75    76    1
    74     4     3    2
    75   125   127   ar
    76   125   123   ar
    77     2     3    1
    78    78    77    2
    79   127   126   ar
    80    99   100    1
    81    44    48   am
    82    44    45    2
    83    48    49    1
    84     3     6   am
    85   123   122   ar
    86    51    50    2
    87    80    79    1
    88    76    77    1
    89    76    79    1
    90    18    17    1
    91   100   103    1
    92   100   101    1
    93    17    14    1
    94   126   124   ar
    95   134   133    1
    96    49    50    1
    97    49    52    1
    98   103   104    1
    99     6     7    1
   100   166   165    1
   101   167   165    1
   102    52    53    1
   103   162   161    1
   104   162   163    2
   105   122   124   ar
   106   122   121    1
   107   164   165    1
   108   164   161    1
   109   101   102    2
   110    13    14    1
   111    13     8   am
   112    14    15    1
   113   118   117    1
   114   118   121    1
   115   118   119    1
   116   161   160    1
   117     7     8    1
   118     7    10    1
   119     8     9    2
   120   133   130    1
   121   153   151    1
   122   129   119   am
   123   129   130    1
   124   119   120    2
   125    53    55   ar
   126    53    54   ar
   127   130   131    1
   128    15    16    2
   129    15    19   am
   130    12    10    1
   131    10    11    1
   132   151   150    1
   133    19    20    1
   134   132   131    2
   135    23    20    1
   136    23    24    1
   137   152   150    1
   138   150   147    1
   139    20    21    1
   140    22    21    2
   141   147   146    1
   142   147   148    1
   143   149   148    2
   144   148   154   am
   145   158   159    1
   146   158   155    1
   147   154   155    1
   148   142   144   ar
   149   142   140   ar
   150   144   145   ar
   151   135   136    1
   152   155   156    1
   153   139   140    1
   154   139   136    1
   155   140   141   ar
   156   136   137    1
   157   145   143   ar
   158   156   157    2
   159   141   143   ar
   160   137   138    2
