@<TRIPOS>MOLECULE
tmp/3ur5A00.pdb
 146 141 0 0 0
SMALL
GASTEIGER

@<TRIPOS>ATOM
      1  N         15.3600   25.4070   44.4540 N.3    21  HIS21      -0.1241
      2  CA        14.8890   25.7180   43.1010 C.3    21  HIS21       0.1621
      3  C         15.7370   26.8590   42.5570 C.2    21  HIS21       0.2264
      4  O         15.4830   28.0280   42.8500 O.2    21  HIS21      -0.2867
      5  CB        13.3930   26.0980   43.1400 C.3    21  HIS21       0.0745
      6  CG        12.7530   26.2500   41.7900 C.ar   21  HIS21       0.0817
      7  ND1       11.7430   25.4220   41.3530 N.ar   21  HIS21      -0.2268
      8  CD2       12.9770   27.1290   40.7850 C.ar   21  HIS21       0.1154
      9  CE1       11.3750   25.7820   40.1370 C.ar   21  HIS21       0.1986
     10  NE2       12.1110   26.8160   39.7680 N.ar   21  HIS21      -0.2212
     11  N         18.7280   27.9440   39.0380 N.3    23  HIS23      -0.1241
     12  CA        19.1880   27.6720   37.6660 C.3    23  HIS23       0.1621
     13  C         20.5320   28.3470   37.4560 C.2    23  HIS23       0.2264
     14  O         20.7690   29.4350   37.9750 O.2    23  HIS23      -0.2867
     15  CB        18.2620   28.2860   36.5930 C.3    23  HIS23       0.0745
     16  CG        16.8340   27.8550   36.6750 C.ar   23  HIS23       0.0817
     17  ND1       16.3660   26.7120   36.0660 N.ar   23  HIS23      -0.2268
     18  CD2       15.7700   28.4170   37.2960 C.ar   23  HIS23       0.1154
     19  CE1       15.0720   26.5870   36.3080 C.ar   23  HIS23       0.1986
     20  NE2       14.6880   27.6070   37.0540 N.ar   23  HIS23      -0.2212
     21  N         18.8410   29.7410   32.3340 N.3    26  GLY26      -0.1225
     22  CA        17.4900   29.4470   31.8670 C.3    26  GLY26       0.1811
     23  C         17.5100   29.6110   30.3620 C.2    26  GLY26       0.2280
     24  O         17.4560   30.7340   29.8530 O.2    26  GLY26      -0.2866
     25  N         14.9070   23.3350   29.3490 N.3    72  ILE72      -0.1245
     26  CA        15.3330   24.6140   29.9340 C.3    72  ILE72       0.1561
     27  C         16.8050   24.7650   29.5020 C.2    72  ILE72       0.2260
     28  O         17.4840   25.7180   29.8650 O.2    72  ILE72      -0.2867
     29  CB        15.1990   24.6530   31.4890 C.3    72  ILE72       0.0252
     30  CG1       13.7420   24.4930   31.8850 C.3    72  ILE72       0.0019
     31  CG2       15.6950   25.9950   32.0880 C.3    72  ILE72       0.0019
     32  CD1       13.4600   24.4110   33.3970 C.3    72  ILE72       0.0001
     33  N          9.8770   20.6650   31.3590 N.3    97  TRP97      -0.1227
     34  CA         9.2380   21.9390   31.7010 C.3    97  TRP97       0.1737
     35  C          8.1680   22.2200   30.6220 C.2    97  TRP97       0.2595
     36  O          7.7490   21.2870   29.9310 O.2    97  TRP97      -0.2718
     37  CB        10.3500   22.9800   31.7620 C.3    97  TRP97       0.0564
     38  CG        10.0530   24.4090   32.0950 C.ar   97  TRP97       0.0003
     39  CD1        9.6730   24.9220   33.3080 C.ar   97  TRP97       0.0946
     40  CD2       10.3660   25.5380   31.2660 C.ar   97  TRP97       0.0152
     41  NE1        9.7680   26.2970   33.2940 N.ar   97  TRP97      -0.2442
     42  CE2       10.1920   26.7020   32.0560 C.ar   97  TRP97       0.0810
     43  CE3       10.8040   25.6760   29.9300 C.ar   97  TRP97       0.0012
     44  CZ2       10.4420   28.0040   31.5540 C.ar   97  TRP97       0.0191
     45  CZ3       11.0560   26.9710   29.4250 C.ar   97  TRP97       0.0001
     46  CH2       10.8710   28.1190   30.2430 C.ar   97  TRP97       0.0015
     47  N          7.7420   23.4760   30.4560 N.am   98  PHE98      -0.1976
     48  CA         6.6910   23.7970   29.4900 C.3    98  PHE98       0.1639
     49  C          7.0650   24.1600   28.0420 C.2    98  PHE98       0.2290
     50  O          6.2230   24.6520   27.2810 O.2    98  PHE98      -0.2864
     51  CB         5.6540   24.7680   30.0940 C.3    98  PHE98       0.0560
     52  CG         6.1920   26.1260   30.4570 C.ar   98  PHE98      -0.0200
     53  CD1        6.3410   27.1320   29.4730 C.ar   98  PHE98      -0.0042
     54  CD2        6.4680   26.4470   31.7970 C.ar   98  PHE98      -0.0042
     55  CE1        6.7530   28.4430   29.8170 C.ar   98  PHE98      -0.0003
     56  CE2        6.8770   27.7570   32.1570 C.ar   98  PHE98      -0.0003
     57  CZ         7.0190   28.7570   31.1630 C.ar   98  PHE98      -0.0000
     58  N          6.6490   23.4890   38.6280 N.3   166  HIS166     -0.1241
     59  CA         6.4640   24.8840   38.2420 C.3   166  HIS166      0.1621
     60  C          4.9340   24.9400   38.2290 C.2   166  HIS166      0.2264
     61  O          4.2780   24.0050   37.7480 O.2   166  HIS166     -0.2867
     62  CB         7.0200   25.1630   36.8240 C.3   166  HIS166      0.0745
     63  CG         6.5940   26.4780   36.2220 C.ar  166  HIS166      0.0817
     64  ND1        7.4130   27.5850   36.1960 N.ar  166  HIS166     -0.2268
     65  CD2        5.4360   26.8580   35.6230 C.ar  166  HIS166      0.1154
     66  CE1        6.7800   28.5900   35.6150 C.ar  166  HIS166      0.1986
     67  NE2        5.5770   28.1750   35.2600 N.ar  166  HIS166     -0.2212
     68  N          6.7460   27.6820   43.0650 N.3   195  HIS195     -0.1241
     69  CA         6.2070   29.0190   42.7390 C.3   195  HIS195      0.1621
     70  C          4.9610   29.3630   43.5390 C.2   195  HIS195      0.2264
     71  O          4.1700   30.2230   43.1560 O.2   195  HIS195     -0.2867
     72  CB         5.9540   29.1740   41.2340 C.3   195  HIS195      0.0745
     73  CG         7.1600   28.9090   40.3930 C.ar  195  HIS195      0.0817
     74  ND1        8.4390   28.9080   40.9040 N.ar  195  HIS195     -0.2268
     75  CD2        7.2800   28.6200   39.0800 C.ar  195  HIS195      0.1154
     76  CE1        9.2950   28.6280   39.9400 C.ar  195  HIS195      0.1986
     77  NE2        8.6170   28.4490   38.8220 N.ar  195  HIS195     -0.2212
     78  N         10.1140   32.1210   44.8150 N.3   219  HIS219     -0.1241
     79  CA        10.1510   33.3570   44.0300 C.3   219  HIS219      0.1621
     80  C         10.3170   34.5970   44.9010 C.2   219  HIS219      0.2264
     81  O          9.9490   35.6920   44.4680 O.2   219  HIS219     -0.2867
     82  CB         8.8400   33.5010   43.2350 C.3   219  HIS219      0.0745
     83  CG         8.8670   32.8980   41.8670 C.ar  219  HIS219      0.0817
     84  ND1        7.8200   33.0310   40.9820 N.ar  219  HIS219     -0.2268
     85  CD2        9.8180   32.1890   41.2190 C.ar  219  HIS219      0.1154
     86  CE1        8.1290   32.4320   39.8450 C.ar  219  HIS219      0.1986
     87  NE2        9.3370   31.9130   39.9630 N.ar  219  HIS219     -0.2212
     88  N         11.6670   37.9330   43.3340 N.3   222  HIS222     -0.1241
     89  CA        10.9500   38.2970   42.1040 C.3   222  HIS222      0.1621
     90  C          9.8930   39.3770   42.3400 C.2   222  HIS222      0.2264
     91  O          8.8290   39.1120   42.9050 O.2   222  HIS222     -0.2867
     92  CB        10.3030   37.0560   41.4630 C.3   222  HIS222      0.0745
     93  CG        11.2860   36.0540   40.9310 C.ar  222  HIS222      0.0817
     94  ND1       11.1630   35.4880   39.6810 N.ar  222  HIS222     -0.2268
     95  CD2       12.4000   35.5120   41.4800 C.ar  222  HIS222      0.1154
     96  CE1       12.1590   34.6430   39.4810 C.ar  222  HIS222      0.1986
     97  NE2       12.9240   34.6390   40.5580 N.ar  222  HIS222     -0.2212
     98  N          6.2950   38.6730   34.2250 N.3   236  LEU236     -0.1245
     99  CA         7.1040   37.5760   34.7480 C.3   236  LEU236      0.1561
    100  C          7.3290   37.6200   36.2600 C.2   236  LEU236      0.2260
    101  O          7.0920   36.6310   36.9570 O.2   236  LEU236     -0.2867
    102  CB         8.4610   37.5400   34.0380 C.3   236  LEU236      0.0270
    103  CG         9.3680   36.3270   34.2840 C.3   236  LEU236      0.0019
    104  CD1        8.9640   35.1640   33.3870 C.3   236  LEU236      0.0001
    105  CD2       10.8050   36.7130   34.0320 C.3   236  LEU236      0.0001
    106  N         15.0080   31.0820   42.7740 N.3   266  ASP266     -0.1239
    107  CA        14.6750   30.8110   41.3590 C.3   266  ASP266      0.1674
    108  C         15.5040   31.7640   40.4980 C.2   266  ASP266      0.2266
    109  O         14.9980   32.4540   39.6030 O.2   266  ASP266     -0.2867
    110  CB        13.1700   30.9100   41.0520 C.3   266  ASP266      0.1410
    111  CG        12.8110   30.3980   39.6480 C.2   266  ASP266      0.3668
    112  OD1       13.5880   29.6030   39.0700 O.co2 266  ASP266     -0.2456
    113  OD2       11.7550   30.7940   39.1240 O.co2 266  ASP266     -0.2456
    114  N         19.0600   32.8440   38.2100 N.3   268  LEU268     -0.1245
    115  CA        19.8420   32.3890   37.0590 C.3   268  LEU268      0.1561
    116  C         20.9140   33.4060   36.7100 C.2   268  LEU268      0.2260
    117  O         20.8580   34.5530   37.1520 O.2   268  LEU268     -0.2867
    118  CB        18.9460   32.1030   35.8350 C.3   268  LEU268      0.0270
    119  CG        17.5050   32.6180   35.7210 C.3   268  LEU268      0.0019
    120  CD1       17.4740   34.1280   35.5790 C.3   268  LEU268      0.0001
    121  CD2       16.8140   31.9340   34.5750 C.3   268  LEU268      0.0001
    122  N         19.6670   34.0350   30.8840 N.3   271  PHE271     -0.1241
    123  CA        18.2390   33.8460   30.6610 C.3   271  PHE271      0.1605
    124  C         17.9310   34.1660   29.2010 C.2   271  PHE271      0.2264
    125  O         17.8580   35.3350   28.8130 O.2   271  PHE271     -0.2867
    126  CB        17.4640   34.7870   31.6110 C.3   271  PHE271      0.0534
    127  CG        16.0160   34.3910   31.8930 C.ar  271  PHE271     -0.0203
    128  CD1       15.3510   33.3500   31.2000 C.ar  271  PHE271     -0.0042
    129  CD2       15.2990   35.1030   32.8760 C.ar  271  PHE271     -0.0042
    130  CE1       14.0030   33.0330   31.4810 C.ar  271  PHE271     -0.0003
    131  CE2       13.9520   34.7980   33.1700 C.ar  271  PHE271     -0.0003
    132  CZ        13.2970   33.7610   32.4710 C.ar  271  PHE271     -0.0000
    133  N         15.2700   32.2430   27.4500 N.3   273  SER273     -0.1217
    134  CA        13.9000   31.8170   27.1720 C.3   273  SER273      0.1889
    135  C         12.7940   32.8580   27.3650 C.2   273  SER273      0.2288
    136  O         11.6040   32.5200   27.3740 O.2   273  SER273     -0.2866
    137  CB        13.5860   30.5380   27.9470 C.3   273  SER273      0.2089
    138  OG        13.8890   30.6980   29.3170 O.3   273  SER273     -0.2183
    139  N         16.5810   41.8350   35.8440 N.3   282  MET282     -0.1245
    140  CA        16.5620   41.0230   37.0610 C.3   282  MET282      0.1570
    141  C         17.7510   41.2550   37.9890 C.2   282  MET282      0.2261
    142  O         17.5820   41.2750   39.2100 O.2   282  MET282     -0.2867
    143  CB        16.4430   39.5380   36.7130 C.3   282  MET282      0.0387
    144  CG        15.0290   39.1010   36.3640 C.3   282  MET282      0.0595
    145  SD        14.9330   37.3790   35.8420 S.3   282  MET282     -0.1393
    146  CE        14.8950   36.5460   37.3890 C.3   282  MET282      0.0692
@<TRIPOS>BOND
     1   134   135    1
     2   134   133    1
     3   134   137    1
     4    50    49    2
     5   135   136    2
     6   137   138    1
     7    49    48    1
     8   125   124    2
     9   124   123    1
    10    25    26    1
    11    45    43   ar
    12    45    46   ar
    13    53    55   ar
    14    53    52   ar
    15    48    51    1
    16    48    47    1
    17    27    28    2
    18    27    26    1
    19    55    57   ar
    20    24    23    2
    21    43    40   ar
    22    36    35    2
    23    26    29    1
    24    51    52    1
    25    46    44   ar
    26    23    22    1
    27    47    35   am
    28    52    54   ar
    29    35    34    1
    30   123   122    1
    31   123   126    1
    32    57    56   ar
    33   128   130   ar
    34   128   127   ar
    35    40    42   ar
    36    40    38   ar
    37    33    34    1
    38   130   132   ar
    39    29    30    1
    40    29    31    1
    41    44    42   ar
    42   126   127    1
    43    34    37    1
    44    37    38    1
    45    54    56   ar
    46    22    21    1
    47    30    32    1
    48   127   129   ar
    49    42    41   ar
    50    38    39   ar
    51   132   131   ar
    52   129   131   ar
    53    41    39   ar
    54   104   103    1
    55   105   103    1
    56   102   103    1
    57   102    99    1
    58    98    99    1
    59   121   119    1
    60    99   100    1
    61    67    66   ar
    62    67    65   ar
    63   120   119    1
    64    66    64   ar
    65    65    63   ar
    66   119   118    1
    67   118   115    1
    68   145   144    1
    69   145   146    1
    70   139   140    1
    71    17    19   ar
    72    17    16   ar
    73    64    63   ar
    74    63    62    1
    75   100   101    2
    76    19    20   ar
    77   144   143    1
    78    15    16    1
    79    15    12    1
    80    16    18   ar
    81   116   115    1
    82   116   117    2
    83   143   140    1
    84    62    59    1
    85    20    18   ar
    86   115   114    1
    87   140   141    1
    88    13    12    1
    89    13    14    2
    90    12    11    1
    91    61    60    2
    92   141   142    2
    93    60    59    1
    94    59    58    1
    95    77    75   ar
    96    77    76   ar
    97   112   111   ar
    98    75    73   ar
    99   113   111   ar
   100    96    94   ar
   101    96    97   ar
   102   109   108    2
   103   111   110    1
   104    94    93   ar
   105    10     9   ar
   106    10     8   ar
   107    86    87   ar
   108    86    84   ar
   109    76    74   ar
   110    87    85   ar
   111     9     7   ar
   112    73    74   ar
   113    73    72    1
   114   108   107    1
   115    97    95   ar
   116     8     6   ar
   117    93    92    1
   118    93    95   ar
   119    84    83   ar
   120   110   107    1
   121    85    83   ar
   122    72    69    1
   123     7     6   ar
   124   107   106    1
   125    92    89    1
   126     6     5    1
   127    83    82    1
   128    89    90    1
   129    89    88    1
   130    90    91    2
   131     3     4    2
   132     3     2    1
   133    69    68    1
   134    69    70    1
   135     2     5    1
   136     2     1    1
   137    71    70    2
   138    82    79    1
   139    79    78    1
   140    79    80    1
   141    81    80    2
