@<TRIPOS>MOLECULE
tmp/3ur9B00.pdb
 140 134 0 0 0
SMALL
GASTEIGER

@<TRIPOS>ATOM
      1  N        -12.6540  -11.9830    1.0760 N.3    15  SER15      -0.1217
      2  CA       -11.2120  -11.8840    1.1240 C.3    15  SER15       0.1889
      3  C        -10.7600  -10.5080    1.5230 C.2    15  SER15       0.2288
      4  O         -9.6050  -10.1130    1.2260 O.2    15  SER15      -0.2866
      5  CB       -10.5950  -12.2480   -0.2290 C.3    15  SER15       0.2089
      6  OG       -11.2170  -11.4850   -1.2490 O.3    15  SER15      -0.2183
      7  N        -14.8170   -6.8310   -5.4180 N.3    31  HIS31      -0.1226
      8  CA       -13.9760   -7.9880   -5.7570 C.3    31  HIS31       0.1752
      9  C        -13.6370   -8.8710   -4.5320 C.2    31  HIS31       0.2595
     10  O        -13.1330   -9.9860   -4.7100 O.2    31  HIS31      -0.2718
     11  CB       -12.7150   -7.5790   -6.5180 C.3    31  HIS31       0.0759
     12  CG       -11.6900   -6.8520   -5.6970 C.ar   31  HIS31       0.0818
     13  ND1      -11.5970   -5.4750   -5.6810 N.ar   31  HIS31      -0.2268
     14  CD2      -10.6740   -7.3030   -4.9240 C.ar   31  HIS31       0.1154
     15  CE1      -10.5790   -5.1100   -4.9150 C.ar   31  HIS31       0.1986
     16  NE2      -10.0050   -6.1980   -4.4420 N.ar   31  HIS31      -0.2212
     17  N        -13.8890   -8.3740   -3.3160 N.am   32  VAL32      -0.1980
     18  CA       -13.6940   -9.2300   -2.1210 C.3    32  VAL32       0.1595
     19  C        -14.8960  -10.0900   -1.7540 C.2    32  VAL32       0.2287
     20  O        -14.7690  -11.0120   -0.9320 O.2    32  VAL32      -0.2864
     21  CB       -13.1840   -8.4310   -0.8600 C.3    32  VAL32       0.0276
     22  CG1      -12.0420   -7.5610   -1.2370 C.3    32  VAL32       0.0022
     23  CG2      -14.2760   -7.6250   -0.1890 C.3    32  VAL32       0.0022
     24  N        -16.9740   -1.1730   -8.4350 N.3    55  GLU55      -0.1245
     25  CA       -16.2570   -1.8760   -7.3710 C.3    55  GLU55       0.1567
     26  C        -16.7330   -1.4730   -5.9760 C.2    55  GLU55       0.2260
     27  O        -16.1300   -1.8490   -4.9740 O.2    55  GLU55      -0.2867
     28  CB       -14.7420   -1.7210   -7.4540 C.3    55  GLU55       0.0388
     29  CG       -14.1040   -2.7150   -8.4390 C.3    55  GLU55       0.1160
     30  CD       -14.2740   -4.1510   -7.9920 C.2    55  GLU55       0.3649
     31  OE1      -13.8910   -4.4660   -6.8260 O.co2  55  GLU55      -0.2457
     32  OE2      -14.8420   -4.9430   -8.7790 O.co2  55  GLU55      -0.2457
     33  N         -8.3640   -0.8100  -13.3260 N.3   110  ILE110     -0.1231
     34  CA        -7.3150   -1.3530  -12.5020 C.3   110  ILE110      0.1692
     35  C         -7.3710   -2.8540  -12.5780 C.2   110  ILE110      0.2591
     36  O         -8.3970   -3.4580  -12.2670 O.2   110  ILE110     -0.2718
     37  CB        -7.5150   -0.8950  -11.0390 C.3   110  ILE110      0.0266
     38  CG1       -7.5020    0.6380  -11.0130 C.3   110  ILE110      0.0019
     39  CG2       -6.4020   -1.4930  -10.1630 C.3   110  ILE110      0.0020
     40  CD1       -7.7030    1.2150   -9.5890 C.3   110  ILE110      0.0001
     41  N         -6.2700   -3.4400  -13.0500 N.am  111  GLN111     -0.1979
     42  CA        -6.2060   -4.8710  -13.3500 C.3   111  GLN111      0.1601
     43  C         -7.4640   -5.3490  -14.0430 C.2   111  GLN111      0.2287
     44  O         -8.0430   -6.3600  -13.6920 O.2   111  GLN111     -0.2864
     45  CB        -5.9330   -5.6700  -12.0740 C.3   111  GLN111      0.0394
     46  CG        -4.6070   -5.2990  -11.4580 C.3   111  GLN111      0.0908
     47  CD        -4.2080   -6.2220  -10.3500 C.2   111  GLN111      0.2608
     48  OE1       -5.0440   -6.6320   -9.5330 O.2   111  GLN111     -0.2717
     49  NE2       -2.9300   -6.5710  -10.3120 N.am  111  GLN111     -0.0878
     50  N        -10.5350   -4.2170  -14.0880 N.3   113  ARG113     -0.1245
     51  CA       -11.8520   -3.8460  -13.5830 C.3   113  ARG113      0.1563
     52  C        -12.0670   -2.3480  -13.5820 C.2   113  ARG113      0.2260
     53  O        -11.1460   -1.5600  -13.3250 O.2   113  ARG113     -0.2867
     54  CB       -12.0520   -4.3290  -12.1230 C.3   113  ARG113      0.0307
     55  CG       -11.9300   -5.8200  -11.9840 C.3   113  ARG113      0.0489
     56  CD       -13.1280   -6.3250  -11.2350 C.3   113  ARG113      0.2205
     57  NE       -12.9520   -7.6570  -10.6730 N.pl3 113  ARG113     -0.0865
     58  CZ       -13.6580   -8.7360  -11.0090 C.cat 113  ARG113      0.5346
     59  NH1      -14.6100   -8.6870  -11.9520 N.pl3 113  ARG113      0.1354
     60  NH2      -13.4110   -9.8820  -10.3820 N.pl3 113  ARG113      0.1354
     61  N        -13.2480    0.8880  -11.8780 N.3   115  VAL115     -0.1245
     62  CA       -13.3760    1.4070  -10.5150 C.3   115  VAL115      0.1561
     63  C        -13.8740    2.8420  -10.5910 C.2   115  VAL115      0.2260
     64  O        -13.2850    3.6730  -11.2750 O.2   115  VAL115     -0.2867
     65  CB       -12.0450    1.3800   -9.7230 C.3   115  VAL115      0.0252
     66  CG1      -12.2730    1.9590   -8.3450 C.3   115  VAL115      0.0019
     67  CG2      -11.4560   -0.0620   -9.5950 C.3   115  VAL115      0.0019
     68  N         -0.5840   -0.2910    2.4110 N.3   126  THR126     -0.1203
     69  CA        -1.6790   -1.2350    2.3190 C.3   126  THR126      0.1994
     70  C         -1.1900   -2.4850    1.6260 C.2   126  THR126      0.2618
     71  O         -0.1850   -2.4490    0.8960 O.2   126  THR126     -0.2717
     72  CB        -2.8740   -0.6270    1.5550 C.3   126  THR126      0.1784
     73  OG1       -2.4450   -0.1740    0.2510 O.3   126  THR126     -0.2211
     74  CG2       -3.3860    0.5690    2.3230 C.3   126  THR126      0.0376
     75  N         -1.9220   -3.5720    1.8380 N.am  127  ILE127     -0.1966
     76  CA        -1.5570   -4.8750    1.3540 C.3   127  ILE127      0.1712
     77  C         -2.7350   -5.6920    0.8690 C.2   127  ILE127      0.2458
     78  O         -3.9110   -5.3440    1.1000 O.2   127  ILE127     -0.2730
     79  CB        -0.8410   -5.7020    2.4410 C.3   127  ILE127      0.0289
     80  CG1       -1.8180   -5.9790    3.6010 C.3   127  ILE127      0.0022
     81  CG2        0.4190   -5.0150    2.8880 C.3   127  ILE127      0.0023
     82  CD1       -1.1630   -6.7960    4.7820 C.3   127  ILE127      0.0001
     83  N         -2.4380   -6.7900    0.1720 N.am  128  PRO128     -0.2716
     84  CA        -3.5290   -7.6500   -0.2430 C.3   128  PRO128      0.1536
     85  C         -4.2560   -8.1260    1.0080 C.2   128  PRO128      0.2599
     86  O         -3.6190   -8.4830    2.0080 O.2   128  PRO128     -0.2715
     87  CB        -2.8080   -8.7950   -0.9710 C.3   128  PRO128      0.0310
     88  CG        -1.6220   -8.1330   -1.5560 C.3   128  PRO128      0.0237
     89  CD        -1.1720   -7.1380   -0.5180 C.3   128  PRO128      0.0939
     90  N         -5.5730   -8.1120    0.9520 N.am  129  GLY129     -0.1955
     91  CA        -6.3830   -8.4430    2.1230 C.3   129  GLY129      0.1869
     92  C         -6.9860   -7.2510    2.8500 C.2   129  GLY129      0.2309
     93  O         -7.8920   -7.4030    3.6750 O.2   129  GLY129     -0.2863
     94  N         -8.5740   -4.7960    1.2630 N.3   131  CYS131     -0.1235
     95  CA        -9.6630   -4.1790    0.5080 C.3   131  CYS131      0.1677
     96  C        -10.9860   -4.2480    1.2940 C.2   131  CYS131      0.2270
     97  O        -11.2730   -5.2030    2.0270 O.2   131  CYS131     -0.2867
     98  CB        -9.8420   -4.7840   -0.8550 C.3   131  CYS131      0.0956
     99  SG        -8.6060   -4.1160   -2.0270 S.3   131  CYS131     -0.0801
    100  N        -11.6000    0.6870    0.5800 N.3   149  HIS149     -0.1226
    101  CA       -10.3090    0.4750   -0.0770 C.3   149  HIS149      0.1752
    102  C        -10.3520   -0.5160   -1.2240 C.2   149  HIS149      0.2596
    103  O        -10.9260   -1.6060   -1.0950 O.2   149  HIS149     -0.2718
    104  CB        -9.2910   -0.0440    0.9220 C.3   149  HIS149      0.0759
    105  CG        -7.9240   -0.0910    0.3450 C.ar  149  HIS149      0.0818
    106  ND1       -7.2510    1.0450   -0.0090 N.ar  149  HIS149     -0.2268
    107  CD2       -7.1240   -1.1410    0.0380 C.ar  149  HIS149      0.1154
    108  CE1       -6.0740    0.7060   -0.5390 C.ar  149  HIS149      0.1986
    109  NE2       -5.9710   -0.6110   -0.5270 N.ar  149  HIS149     -0.2212
    110  N         -9.7500   -0.1350   -2.3530 N.am  150  ALA150     -0.1966
    111  CA        -9.8330   -0.9620   -3.5620 C.3   150  ALA150      0.1728
    112  C         -8.5160   -1.2640   -4.1930 C.2   150  ALA150      0.2616
    113  O         -8.3970   -2.3130   -4.8320 O.2   150  ALA150     -0.2715
    114  CB       -10.7280   -0.2750   -4.6350 C.3   150  ALA150      0.0334
    115  N         -7.5340   -0.3760   -4.0890 N.am  151  ALA151     -0.1963
    116  CA        -6.2800   -0.5840   -4.8330 C.3   151  ALA151      0.1728
    117  C         -5.1660    0.2940   -4.3530 C.2   151  ALA151      0.2616
    118  O         -5.3840    1.2080   -3.5710 O.2   151  ALA151     -0.2715
    119  CB        -6.4990   -0.3360   -6.3570 C.3   151  ALA151      0.0334
    120  N         -3.9450    0.0680   -4.8580 N.am  152  ALA152     -0.1963
    121  CA        -2.8600    0.9840   -4.5900 C.3   152  ALA152      0.1728
    122  C         -1.9390    0.8570   -5.7610 C.2   152  ALA152      0.2617
    123  O         -1.9820   -0.1490   -6.4690 O.2   152  ALA152     -0.2715
    124  CB        -2.1230    0.6560   -3.2670 C.3   152  ALA152      0.0334
    125  N         -1.1860    1.9140   -6.0060 N.am  153  THR153     -0.1937
    126  CA        -0.1450    1.8820   -7.0450 C.3   153  THR153      0.2028
    127  C          1.0170    0.9900   -6.6520 C.2   153  THR153      0.2642
    128  O          1.2260    0.6640   -5.4860 O.2   153  THR153     -0.2714
    129  CB         0.4460    3.2660   -7.2690 C.3   153  THR153      0.1808
    130  OG1        0.8860    3.7930   -6.0150 O.3   153  THR153     -0.2208
    131  CG2       -0.5860    4.2090   -7.8860 C.3   153  THR153      0.0379
    132  N          1.7830    0.6210   -7.6830 N.am  154  LYS154     -0.1977
    133  CA         3.0710   -0.0820   -7.5620 C.3   154  LYS154      0.1596
    134  C          3.8940    0.2780   -6.3120 C.2   154  LYS154      0.2287
    135  O          4.1770   -0.5760   -5.4610 O.2   154  LYS154     -0.2864
    136  CB         3.9130    0.2400   -8.8000 C.3   154  LYS154      0.0298
    137  CG         3.1560    0.1400  -10.1180 C.3   154  LYS154      0.0038
    138  CD         2.4240    1.4750  -10.4100 C.3   154  LYS154      0.0206
    139  CE         1.4190    1.3940  -11.5690 C.3   154  LYS154      0.1093
    140  NZ         0.2850    0.4660  -11.2790 N.3   154  LYS154     -0.1314
@<TRIPOS>BOND
     1    50    51    1
     2    43    44    2
     3    43    42    1
     4    51    52    1
     5    51    54    1
     6    52    53    2
     7    42    41    1
     8    42    45    1
     9    33    34    1
    10    41    35   am
    11    35    34    1
    12    35    36    2
    13    34    37    1
    14    54    55    1
    15    45    46    1
    16    55    56    1
    17    59    58    1
    18    61    62    1
    19   139   140    1
    20   139   138    1
    21    46    47    1
    22    64    63    2
    23    56    57    1
    24    37    38    1
    25    37    39    1
    26    38    40    1
    27    58    57    2
    28    58    60    1
    29    63    62    1
    30    62    65    1
    31   138   137    1
    32    47    49   am
    33    47    48    2
    34   137   136    1
    35    65    67    1
    36    65    66    1
    37   136   133    1
    38    32    30   ar
    39    29    30    1
    40    29    28    1
    41    24    25    1
    42    30    31   ar
    43   131   129    1
    44   132   133    1
    45   132   127   am
    46   133   134    1
    47    28    25    1
    48    25    26    1
    49   129   126    1
    50   129   130    1
    51   126   127    1
    52   126   125    1
    53   127   128    2
    54    11     8    1
    55    11    12    1
    56   123   122    2
    57   119   116    1
    58   134   135    2
    59   125   122   am
    60    26    27    2
    61   122   121    1
    62     8     7    1
    63     8     9    1
    64    12    13   ar
    65    12    14   ar
    66    13    15   ar
    67    14    16   ar
    68    15    16   ar
    69   120   121    1
    70   120   117   am
    71   116   117    1
    72   116   115    1
    73   113   112    2
    74    10     9    2
    75   114   111    1
    76   121   124    1
    77     9    17   am
    78   117   118    2
    79   112   115   am
    80   112   111    1
    81   111   110    1
    82    17    18    1
    83   110   102   am
    84    18    19    1
    85    18    21    1
    86    99    98    1
    87    19    20    2
    88    88    87    1
    89    88    89    1
    90     6     5    1
    91    22    21    1
    92   102   103    2
    93   102   101    1
    94    87    84    1
    95    21    23    1
    96    98    95    1
    97   108   109   ar
    98   108   106   ar
    99   109   107   ar
   100    89    83    1
   101    84    83    1
   102    84    85    1
   103     5     2    1
   104   101   100    1
   105   101   104    1
   106   106   105   ar
   107   107   105   ar
   108    83    77   am
   109    73    72    1
   110   105   104    1
   111    95    94    1
   112    95    96    1
   113    77    78    2
   114    77    76    1
   115    71    70    2
   116    90    85   am
   117    90    91    1
   118    85    86    2
   119     1     2    1
   120     2     3    1
   121     4     3    2
   122    96    97    2
   123    76    75    1
   124    76    79    1
   125    72    69    1
   126    72    74    1
   127    70    75   am
   128    70    69    1
   129    91    92    1
   130    69    68    1
   131    79    81    1
   132    79    80    1
   133    92    93    2
   134    80    82    1
