@<TRIPOS>MOLECULE
tmp/3urkB00.pdb
 126 118 0 0 0
SMALL
GASTEIGER

@<TRIPOS>ATOM
      1  N        -40.7670   -6.2280    9.0300 N.3    12  CYS12      -0.1235
      2  CA       -39.9710   -5.5880    7.9780 C.3    12  CYS12       0.1677
      3  C        -38.5980   -6.2290    7.7470 C.2    12  CYS12       0.2270
      4  O        -38.1740   -7.1790    8.4530 O.2    12  CYS12      -0.2867
      5  CB       -39.7800   -4.1000    8.4420 C.3    12  CYS12       0.0956
      6  SG       -38.7700   -4.0850   10.0070 S.3    12  CYS12      -0.0801
      7  N        -35.5590   -4.9850    8.3230 N.3    14  GLY14      -0.1210
      8  CA       -34.6020   -4.7570    9.3860 C.3    14  GLY14       0.1956
      9  C        -34.8530   -5.7010   10.5730 C.2    14  GLY14       0.2611
     10  O        -33.8930   -6.1910   11.1690 O.2    14  GLY14      -0.2717
     11  N        -36.0990   -5.9090   10.9210 N.am   15  VAL15      -0.1979
     12  CA       -36.3930   -6.8070   12.0430 C.3    15  VAL15       0.1595
     13  C        -36.1050   -8.2360   11.7130 C.2    15  VAL15       0.2287
     14  O        -35.5090   -8.9340   12.5530 O.2    15  VAL15      -0.2864
     15  CB       -37.8600   -6.6470   12.4120 C.3    15  VAL15       0.0276
     16  CG1      -38.5260   -7.8470   13.1720 C.3    15  VAL15       0.0022
     17  CG2      -38.0660   -5.2850   13.1370 C.3    15  VAL15       0.0022
     18  N        -35.5470   -6.2000   19.1890 N.3    40  VAL40      -0.1231
     19  CA       -36.6590   -5.4780   18.5810 C.3    40  VAL40       0.1692
     20  C        -37.6680   -5.3140   19.6950 C.2    40  VAL40       0.2592
     21  O        -37.5800   -6.0610   20.7140 O.2    40  VAL40      -0.2718
     22  CB       -37.3100   -6.2520   17.3280 C.3    40  VAL40       0.0266
     23  CG1      -36.2420   -6.4850   16.2440 C.3    40  VAL40       0.0020
     24  CG2      -37.9540   -7.5460   17.7560 C.3    40  VAL40       0.0020
     25  N        -38.5740   -4.3490   19.5630 N.am   41  HIS41      -0.1976
     26  CA       -39.5100   -4.0670   20.6680 C.3    41  HIS41       0.1656
     27  C        -40.7240   -5.0190   20.5930 C.2    41  HIS41       0.2291
     28  O        -41.8420   -4.5810   20.3000 O.2    41  HIS41      -0.2864
     29  CB       -39.9520   -2.5780   20.6550 C.3    41  HIS41       0.0771
     30  CG       -38.7860   -1.6670   20.9250 C.ar   41  HIS41       0.0820
     31  ND1      -38.6520   -0.4030   20.4060 N.ar   41  HIS41      -0.2267
     32  CD2      -37.6910   -1.8810   21.7000 C.ar   41  HIS41       0.1154
     33  CE1      -37.5180    0.1300   20.8300 C.ar   41  HIS41       0.1986
     34  NE2      -36.9030   -0.7540   21.6150 N.ar   41  HIS41      -0.2212
     35  N        -31.6920   -3.6070   16.7270 N.3    73  ALA73      -0.1231
     36  CA       -32.0650   -3.0570   15.4250 C.3    73  ALA73       0.1694
     37  C        -32.0950   -1.4970   15.4260 C.2    73  ALA73       0.2592
     38  O        -32.0490   -0.8850   14.3560 O.2    73  ALA73      -0.2718
     39  CB       -33.4020   -3.6830   14.9750 C.3    73  ALA73       0.0304
     40  N        -32.3530   -0.9060   16.5800 N.am   74  HIS74      -0.1976
     41  CA       -32.6750    0.5360   16.7140 C.3    74  HIS74       0.1656
     42  C        -31.3950    1.3820   16.6340 C.2    74  HIS74       0.2291
     43  O        -31.5020    2.5720   16.4440 O.2    74  HIS74      -0.2864
     44  CB       -33.3260    0.7770   18.0760 C.3    74  HIS74       0.0771
     45  CG       -34.4050   -0.2220   18.3280 C.ar   74  HIS74       0.0820
     46  ND1      -34.1660   -1.3450   19.1060 N.ar   74  HIS74      -0.2267
     47  CD2      -35.6630   -0.3590   17.8210 C.ar   74  HIS74       0.1154
     48  CE1      -35.2400   -2.1250   19.0930 C.ar   74  HIS74       0.1986
     49  NE2      -36.1620   -1.5730   18.3050 N.ar   74  HIS74      -0.2212
     50  N        -30.5940   -1.6740   11.8630 N.3    96  CYS96      -0.1235
     51  CA       -31.1330   -1.7560   10.4960 C.3    96  CYS96       0.1677
     52  C        -30.3140   -0.8240    9.5840 C.2    96  CYS96       0.2270
     53  O        -30.0370    0.3040    9.9730 O.2    96  CYS96      -0.2867
     54  CB       -32.5760   -1.2560   10.5120 C.3    96  CYS96       0.0956
     55  SG       -33.3130   -1.3330    8.8350 S.3    96  CYS96      -0.0801
     56  N        -31.5990    2.7230    9.4710 N.3    99  VAL99      -0.1245
     57  CA       -31.1990    3.6030   10.5990 C.3    99  VAL99       0.1561
     58  C        -29.7580    4.0280   10.3870 C.2    99  VAL99       0.2260
     59  O        -29.4630    5.2330   10.5800 O.2    99  VAL99      -0.2867
     60  CB       -31.3570    2.8310   11.9120 C.3    99  VAL99       0.0252
     61  CG1      -30.5900    3.5910   13.0950 C.3    99  VAL99       0.0019
     62  CG2      -32.8560    2.5770   12.2180 C.3    99  VAL99       0.0019
     63  N        -36.5670    7.4210   23.1130 N.3   124  HIS124     -0.1241
     64  CA       -36.6130    6.1770   22.2950 C.3   124  HIS124      0.1621
     65  C        -35.1560    5.7590   21.9780 C.2   124  HIS124      0.2264
     66  O        -34.3470    6.6290   21.6920 O.2   124  HIS124     -0.2867
     67  CB       -37.3470    6.4790   20.9770 C.3   124  HIS124      0.0745
     68  CG       -37.6380    5.2390   20.1860 C.ar  124  HIS124      0.0817
     69  ND1      -36.7070    4.6570   19.3480 N.ar  124  HIS124     -0.2268
     70  CD2      -38.7610    4.4780   20.1050 C.ar  124  HIS124      0.1154
     71  CE1      -37.2370    3.5600   18.8050 C.ar  124  HIS124      0.1986
     72  NE2      -38.4920    3.4360   19.2450 N.ar  124  HIS124     -0.2212
     73  N        -33.8200    4.5970   19.3620 N.3   126  GLU126     -0.1245
     74  CA       -33.2590    5.0240   18.0720 C.3   126  GLU126      0.1567
     75  C        -32.8630    6.5120   18.1370 C.2   126  GLU126      0.2260
     76  O        -31.7960    6.8890   17.6190 O.2   126  GLU126     -0.2867
     77  CB       -34.3320    4.8930   16.9690 C.3   126  GLU126      0.0388
     78  CG       -33.7990    5.2700   15.6140 C.3   126  GLU126      0.1160
     79  CD       -34.8660    5.3330   14.5360 C.2   126  GLU126      0.3649
     80  OE1      -34.7470    6.1960   13.6190 O.co2 126  GLU126     -0.2457
     81  OE2      -35.7640    4.4550   14.5560 O.co2 126  GLU126     -0.2457
     82  N        -37.1260    6.7440   12.2220 N.3   167  THR167     -0.1203
     83  CA       -37.6200    5.9360   11.0900 C.3   167  THR167      0.1994
     84  C        -39.0910    5.4680   11.2560 C.2   167  THR167      0.2618
     85  O        -39.7100    5.0530   10.2830 O.2   167  THR167     -0.2717
     86  CB       -36.7120    4.6620   10.9120 C.3   167  THR167      0.1784
     87  OG1      -36.7460    3.8700   12.1320 O.3   167  THR167     -0.2211
     88  CG2      -35.2850    5.0160   10.4260 C.3   167  THR167      0.0376
     89  N        -39.6030    5.5010   12.4880 N.am  168  THR168     -0.1952
     90  CA       -40.8820    4.8400   12.7770 C.3   168  THR168      0.1897
     91  C        -41.9070    5.8280   13.2690 C.2   168  THR168      0.2313
     92  O        -42.7870    5.4520   14.0840 O.2   168  THR168     -0.2863
     93  CB       -40.6310    3.7310   13.8340 C.3   168  THR168      0.1794
     94  OG1      -39.9090    4.2990   14.9500 O.3   168  THR168     -0.2208
     95  CG2      -39.8660    2.6120   13.3450 C.3   168  THR168      0.0378
     96  N        -43.1410   -0.4050   21.3460 N.3   225  SER225     -0.1202
     97  CA       -42.8680   -0.3060   19.8650 C.3   225  SER225      0.2020
     98  C        -43.4710    0.9680   19.3480 C.2   225  SER225      0.2619
     99  O        -44.6970    1.0460   19.1700 O.2   225  SER225     -0.2717
    100  CB       -43.5060   -1.5260   19.1820 C.3   225  SER225      0.2103
    101  OG       -43.4190   -1.3990   17.7400 O.3   225  SER225     -0.2182
    102  N        -42.5920    1.8670   18.8760 N.am  226  SER226     -0.1937
    103  CA       -43.0560    3.1360   18.3240 C.3   226  SER226      0.2055
    104  C        -43.9350    2.8540   17.1040 C.2   226  SER226      0.2643
    105  O        -45.0830    3.3590   16.9940 O.2   226  SER226     -0.2714
    106  CB       -41.8530    4.0400   17.9060 C.3   226  SER226      0.2130
    107  OG       -42.3830    5.1570   17.1810 O.3   226  SER226     -0.2179
    108  N        -43.4330    2.0590   16.1600 N.am  227  ASN227     -0.1971
    109  CA       -44.2030    1.9450   14.9020 C.3   227  ASN227      0.1688
    110  C        -45.5570    1.2830   15.1850 C.2   227  ASN227      0.2292
    111  O        -46.5680    1.5800   14.5130 O.2   227  ASN227     -0.2864
    112  CB       -43.3670    1.1740   13.8540 C.3   227  ASN227      0.1181
    113  CG       -43.4390   -0.3350   14.0650 C.2   227  ASN227      0.2629
    114  OD1      -44.3280   -0.9970   13.5140 O.2   227  ASN227     -0.2716
    115  ND2      -42.4560   -0.8860   14.7600 N.am  227  ASN227     -0.0877
    116  N        -44.0160   -3.7230   12.8430 N.3   268  ALA268     -0.1231
    117  CA       -42.8750   -4.2630   12.1280 C.3   268  ALA268      0.1694
    118  C        -42.0600   -5.3060   12.9100 C.2   268  ALA268      0.2592
    119  O        -41.2580   -6.0410   12.3380 O.2   268  ALA268     -0.2718
    120  CB       -42.0040   -3.0980   11.6770 C.3   268  ALA268      0.0304
    121  N        -42.2710   -5.3320   14.2190 N.am  269  SER269     -0.1952
    122  CA       -41.5530   -6.2040   15.1180 C.3   269  SER269      0.1924
    123  C        -42.3700   -7.4320   15.5700 C.2   269  SER269      0.2314
    124  O        -41.8830   -8.1870   16.3880 O.2   269  SER269     -0.2863
    125  CB       -40.9860   -5.3780   16.3170 C.3   269  SER269      0.2116
    126  OG       -42.0490   -4.6140   16.8650 O.3   269  SER269     -0.2180
@<TRIPOS>BOND
     1     3     2    1
     2     3     4    2
     3     2     5    1
     4     2     1    1
     5     7     8    1
     6     5     6    1
     7    55    54    1
     8     8     9    1
     9    56    57    1
    10    52    53    2
    11    52    51    1
    12    85    84    2
    13    58    59    2
    14    58    57    1
    15    88    86    1
    16    51    54    1
    17    51    50    1
    18     9    11   am
    19     9    10    2
    20    57    60    1
    21    86    83    1
    22    86    87    1
    23    11    12    1
    24    83    84    1
    25    83    82    1
    26    84    89   am
    27   120   117    1
    28    13    12    1
    29    13    14    2
    30    60    62    1
    31    60    61    1
    32    12    15    1
    33   117   116    1
    34   117   118    1
    35   119   118    2
    36    15    17    1
    37    15    16    1
    38    89    90    1
    39    90    91    1
    40    90    93    1
    41   118   121   am
    42    91    92    2
    43    95    93    1
    44   114   113    2
    45    80    79   ar
    46    93    94    1
    47   112   113    1
    48   112   109    1
    49   113   115   am
    50   121   122    1
    51    38    37    2
    52   111   110    2
    53    79    81   ar
    54    79    78    1
    55   109   110    1
    56   109   108    1
    57    39    36    1
    58   122   123    1
    59   122   125    1
    60    36    37    1
    61    36    35    1
    62    37    40   am
    63   123   124    2
    64    78    77    1
    65   108   104   am
    66    23    22    1
    67   125   126    1
    68    43    42    2
    69    40    41    1
    70    42    41    1
    71    41    44    1
    72    77    74    1
    73   105   104    2
    74   104   103    1
    75   107   106    1
    76    22    24    1
    77    22    19    1
    78    76    75    2
    79   101   100    1
    80    47    49   ar
    81    47    45   ar
    82   106   103    1
    83    74    75    1
    84    74    73    1
    85    44    45    1
    86    49    48   ar
    87   103   102    1
    88    45    46   ar
    89    19    18    1
    90    19    20    1
    91    71    72   ar
    92    71    69   ar
    93   102    98   am
    94    48    46   ar
    95    99    98    2
    96   100    97    1
    97    72    70   ar
    98    98    97    1
    99    69    68   ar
   100    25    20   am
   101    25    26    1
   102    20    21    2
   103    97    96    1
   104    70    68   ar
   105    68    67    1
   106    28    27    2
   107    31    33   ar
   108    31    30   ar
   109    27    26    1
   110    29    26    1
   111    29    30    1
   112    33    34   ar
   113    30    32   ar
   114    67    64    1
   115    34    32   ar
   116    66    65    2
   117    65    64    1
   118    64    63    1
