@<TRIPOS>MOLECULE
tmp/3urlA00.pdb
 96 90 0 0 0
SMALL
GASTEIGER

@<TRIPOS>ATOM
      1  N          8.6200 -316.7790   18.4720 N.3    15  ASP15      -0.1239
      2  CA         7.8570 -315.5650   18.7070 C.3    15  ASP15       0.1674
      3  C          8.3260 -314.3970   17.8400 C.2    15  ASP15       0.2266
      4  O          7.4890 -313.6410   17.3530 O.2    15  ASP15      -0.2867
      5  CB         7.9510 -315.1180   20.1730 C.3    15  ASP15       0.1410
      6  CG         6.8200 -315.7490   20.9650 C.2    15  ASP15       0.3668
      7  OD1        5.6690 -315.6940   20.4870 O.co2  15  ASP15      -0.2456
      8  OD2        7.1070 -316.3000   22.0460 O.co2  15  ASP15      -0.2456
      9  N          7.2440 -304.6310    8.5740 N.3    37  GLY37      -0.1210
     10  CA         6.0260 -303.8990    8.8780 C.3    37  GLY37       0.1956
     11  C          6.2250 -302.4820    9.3800 C.2    37  GLY37       0.2613
     12  O          5.2610 -301.7750    9.7190 O.2    37  GLY37      -0.2717
     13  N          7.4660 -302.0040    9.4440 N.am   38  SER38      -0.1938
     14  CA         7.7450 -300.6480    9.9390 C.3    38  SER38       0.2055
     15  C          9.0180 -300.1040    9.3080 C.2    38  SER38       0.2643
     16  O          9.7350 -300.8670    8.6390 O.2    38  SER38      -0.2714
     17  CB         7.8370 -300.6400   11.4710 C.3    38  SER38       0.2130
     18  OG         9.0790 -301.1780   11.9190 O.3    38  SER38      -0.2179
     19  N          9.3170 -298.8100    9.4860 N.am   39  SER39      -0.1949
     20  CA        10.4410 -298.2140    8.7610 C.3    39  SER39       0.1924
     21  C         11.3490 -297.3460    9.6310 C.2    39  SER39       0.2314
     22  O         11.9520 -296.3910    9.1340 O.2    39  SER39      -0.2863
     23  CB         9.9830 -297.3490    7.5790 C.3    39  SER39       0.2116
     24  OG         8.8780 -297.9430    6.9240 O.3    39  SER39      -0.2180
     25  N          7.1290 -293.6360   17.9960 N.3    75  ILE75      -0.1245
     26  CA         6.4280 -294.6830   17.2460 C.3    75  ILE75       0.1561
     27  C          5.6160 -295.5930   18.1550 C.2    75  ILE75       0.2260
     28  O          5.9640 -295.8280   19.3070 O.2    75  ILE75      -0.2867
     29  CB         7.4030 -295.5640   16.4300 C.3    75  ILE75       0.0252
     30  CG1        6.7070 -296.4380   15.3820 C.3    75  ILE75       0.0019
     31  CG2        8.2710 -296.4100   17.3440 C.3    75  ILE75       0.0019
     32  CD1        7.6430 -297.1150   14.4130 C.3    75  ILE75       0.0001
     33  N          6.7300 -294.4340    5.8890 N.3   131  LEU131     -0.1245
     34  CA         6.2440 -294.7500    7.2210 C.3   131  LEU131      0.1561
     35  C          7.2370 -294.3040    8.2900 C.2   131  LEU131      0.2260
     36  O          6.9160 -294.4120    9.4810 O.2   131  LEU131     -0.2867
     37  CB         5.9730 -296.2510    7.3640 C.3   131  LEU131      0.0270
     38  CG         4.7670 -296.8220    6.6170 C.3   131  LEU131      0.0019
     39  CD1        4.5810 -298.2980    6.9450 C.3   131  LEU131      0.0001
     40  CD2        3.4870 -296.0630    6.9360 C.3   131  LEU131      0.0001
     41  N          8.9830 -292.5180   11.2260 N.3   133  THR133     -0.1218
     42  CA         8.4010 -291.4980   12.1110 C.3   133  THR133      0.1862
     43  C          9.3310 -290.3410   12.4480 C.2   133  THR133      0.2287
     44  O          9.0260 -289.5010   13.3070 O.2   133  THR133     -0.2866
     45  CB         7.9280 -292.0810   13.4640 C.3   133  THR133      0.1770
     46  OG1        9.0680 -292.3840   14.2780 O.3   133  THR133     -0.2211
     47  CG2        7.1550 -293.3810   13.2850 C.3   133  THR133      0.0375
     48  N          4.1270 -312.3350   14.5950 N.3   221  THR221     -0.1203
     49  CA         4.3570 -313.7450   14.8430 C.3   221  THR221      0.1994
     50  C          3.4270 -314.6460   14.0490 C.2   221  THR221      0.2617
     51  O          3.8580 -315.5930   13.3920 O.2   221  THR221     -0.2717
     52  CB         4.1440 -314.1030   16.3280 C.3   221  THR221      0.1784
     53  OG1        4.9900 -313.2890   17.1430 O.3   221  THR221     -0.2211
     54  CG2        4.5320 -315.5560   16.5600 C.3   221  THR221      0.0376
     55  N          2.1320 -314.3520   14.1480 N.am  222  LEU222     -0.1979
     56  CA         1.1460 -315.2550   13.5620 C.3   222  LEU222      0.1596
     57  C          0.6680 -314.8290   12.1810 C.2   222  LEU222      0.2287
     58  O          1.1220 -313.8330   11.6230 O.2   222  LEU222     -0.2864
     59  CB        -0.0570 -315.3680   14.5210 C.3   222  LEU222      0.0297
     60  CG         0.3410 -315.7400   15.9560 C.3   222  LEU222      0.0022
     61  CD1       -0.8900 -315.9460   16.8080 C.3   222  LEU222      0.0001
     62  CD2        1.2240 -316.9740   15.9700 C.3   222  LEU222      0.0001
     63  N         -2.7890 -313.7830   10.4310 N.3   224  TYR224     -0.1241
     64  CA        -4.1270 -313.2450   10.6640 C.3   224  TYR224      0.1605
     65  C         -4.8840 -313.0820    9.3420 C.2   224  TYR224      0.2264
     66  O         -4.4260 -312.3160    8.5000 O.2   224  TYR224     -0.2867
     67  CB        -4.1130 -311.8780   11.3460 C.3   224  TYR224      0.0534
     68  CG        -3.4620 -311.9300   12.7060 C.ar  224  TYR224     -0.0201
     69  CD1       -4.2350 -312.1990   13.8310 C.ar  224  TYR224     -0.0009
     70  CD2       -2.0940 -311.7150   12.8250 C.ar  224  TYR224     -0.0009
     71  CE1       -3.6460 -312.2500   15.0760 C.ar  224  TYR224      0.0417
     72  CE2       -1.4980 -311.7650   14.0730 C.ar  224  TYR224      0.0417
     73  CZ        -2.2860 -312.0330   15.1750 C.ar  224  TYR224      0.1957
     74  OH        -1.6900 -312.0800   16.4180 O.3   224  TYR224     -0.2866
     75  N          1.0470 -323.5200   17.5020 N.3   278  PHE278     -0.1241
     76  CA         1.9950 -322.5350   17.9930 C.3   278  PHE278      0.1605
     77  C          2.6320 -322.9360   19.3170 C.2   278  PHE278      0.2264
     78  O          3.7990 -322.5980   19.5420 O.2   278  PHE278     -0.2867
     79  CB         1.3520 -321.1420   18.1460 C.3   278  PHE278      0.0534
     80  CG         2.5130 -320.1490   18.2450 C.ar  278  PHE278     -0.0203
     81  CD1        3.3030 -319.9350   17.1270 C.ar  278  PHE278     -0.0042
     82  CD2        2.7840 -319.4900   19.4250 C.ar  278  PHE278     -0.0042
     83  CE1        4.3650 -319.0520   17.1880 C.ar  278  PHE278     -0.0003
     84  CE2        3.8410 -318.5980   19.4880 C.ar  278  PHE278     -0.0003
     85  CZ         4.6290 -318.3920   18.3730 C.ar  278  PHE278     -0.0000
     86  N         -2.1240 -323.1250   21.5300 N.3   289  PHE289     -0.1241
     87  CA        -2.6700 -321.9620   20.8320 C.3   289  PHE289      0.1605
     88  C         -2.4990 -322.0850   19.3240 C.2   289  PHE289      0.2264
     89  O         -1.4340 -322.5010   18.8660 O.2   289  PHE289     -0.2867
     90  CB        -2.0040 -320.6720   21.3210 C.3   289  PHE289      0.0534
     91  CG        -2.7430 -319.3900   20.9610 C.ar  289  PHE289     -0.0203
     92  CD1       -4.0140 -319.1270   21.4490 C.ar  289  PHE289     -0.0042
     93  CD2       -2.1650 -318.4410   20.1280 C.ar  289  PHE289     -0.0042
     94  CE1       -4.7000 -317.9650   21.1410 C.ar  289  PHE289     -0.0003
     95  CE2       -2.8420 -317.2730   19.8260 C.ar  289  PHE289     -0.0003
     96  CZ        -4.1070 -317.0250   20.3180 C.ar  289  PHE289     -0.0000
@<TRIPOS>BOND
     1    33    34    1
     2    38    40    1
     3    38    39    1
     4    38    37    1
     5    24    23    1
     6    34    37    1
     7    34    35    1
     8    23    20    1
     9    35    36    2
    10    66    65    2
    11     9    10    1
    12    16    15    2
    13    20    19    1
    14    20    21    1
    15    10    11    1
    16    22    21    2
    17    15    19   am
    18    15    14    1
    19    65    64    1
    20    11    13   am
    21    11    12    2
    22    13    14    1
    23    14    17    1
    24    63    64    1
    25    64    67    1
    26    41    42    1
    27    67    68    1
    28    17    18    1
    29    58    57    2
    30    42    43    1
    31    42    45    1
    32    57    56    1
    33    43    44    2
    34    68    70   ar
    35    68    69   ar
    36    70    72   ar
    37    47    45    1
    38    51    50    2
    39    45    46    1
    40    56    55    1
    41    56    59    1
    42    69    71   ar
    43    50    55   am
    44    50    49    1
    45    72    73   ar
    46    32    30    1
    47    59    60    1
    48    48    49    1
    49    49    52    1
    50    71    73   ar
    51    73    74    1
    52    30    29    1
    53    60    62    1
    54    60    61    1
    55    52    54    1
    56    52    53    1
    57    29    26    1
    58    29    31    1
    59    81    83   ar
    60    81    80   ar
    61    83    85   ar
    62    26    25    1
    63    26    27    1
    64     4     3    2
    65    75    76    1
    66     3     2    1
    67    76    79    1
    68    76    77    1
    69    79    80    1
    70    27    28    2
    71    80    82   ar
    72    85    84   ar
    73     1     2    1
    74     2     5    1
    75    89    88    2
    76    77    78    2
    77    88    87    1
    78    82    84   ar
    79    95    93   ar
    80    95    96   ar
    81    93    91   ar
    82     5     6    1
    83    96    94   ar
    84     7     6   ar
    85    87    90    1
    86    87    86    1
    87    91    90    1
    88    91    92   ar
    89     6     8   ar
    90    94    92   ar
