@<TRIPOS>MOLECULE
tmp/3urmA00.pdb
 129 125 0 0 0
SMALL
GASTEIGER

@<TRIPOS>ATOM
      1  N        -35.5510   48.4690   -7.3740 N.3    14  SER14      -0.1217
      2  CA       -36.5540   49.2410   -8.0920 C.3    14  SER14       0.1889
      3  C        -36.7150   50.5650   -7.3710 C.2    14  SER14       0.2288
      4  O        -36.9590   50.5890   -6.1660 O.2    14  SER14      -0.2866
      5  CB       -37.8920   48.5010   -8.1180 C.3    14  SER14       0.2089
      6  OG       -37.8280   47.4020   -9.0060 O.3    14  SER14      -0.2183
      7  N        -38.8620   52.9830   -6.9580 N.3    16  ARG16      -0.1231
      8  CA       -40.0360   53.4970   -6.2550 C.3    16  ARG16       0.1694
      9  C        -40.0500   53.1810   -4.7610 C.2    16  ARG16       0.2592
     10  O        -40.4860   54.0140   -3.9650 O.2    16  ARG16      -0.2718
     11  CB       -41.3430   53.0290   -6.9050 C.3    16  ARG16       0.0321
     12  CG       -41.6650   51.5510   -6.6760 C.3    16  ARG16       0.0489
     13  CD       -43.1200   51.2860   -6.9930 C.3    16  ARG16       0.2205
     14  NE       -43.9920   51.7330   -5.9100 N.pl3  16  ARG16      -0.0865
     15  CZ       -45.3080   51.5380   -5.8910 C.cat  16  ARG16       0.5346
     16  NH1      -45.8900   50.9000   -6.8960 N.pl3  16  ARG16       0.1354
     17  NH2      -46.0390   51.9620   -4.8630 N.pl3  16  ARG16       0.1354
     18  N        -39.5680   52.0000   -4.3700 N.am   17  TRP17      -0.1976
     19  CA       -39.7370   51.5720   -2.9800 C.3    17  TRP17       0.1640
     20  C        -38.9590   52.4520   -2.0110 C.2    17  TRP17       0.2290
     21  O        -39.3310   52.5680   -0.8480 O.2    17  TRP17      -0.2864
     22  CB       -39.3770   50.0870   -2.7900 C.3    17  TRP17       0.0576
     23  CG       -40.0590   49.1850   -3.7990 C.ar   17  TRP17       0.0006
     24  CD1      -39.4620   48.4840   -4.8110 C.ar   17  TRP17       0.0946
     25  CD2      -41.4630   48.9000   -3.8900 C.ar   17  TRP17       0.0152
     26  NE1      -40.4050   47.7830   -5.5270 N.ar   17  TRP17      -0.2442
     27  CE2      -41.6440   48.0230   -4.9830 C.ar   17  TRP17       0.0810
     28  CE3      -42.5850   49.3110   -3.1650 C.ar   17  TRP17       0.0012
     29  CZ2      -42.9010   47.5430   -5.3620 C.ar   17  TRP17       0.0191
     30  CZ3      -43.8370   48.8310   -3.5430 C.ar   17  TRP17       0.0001
     31  CH2      -43.9810   47.9570   -4.6310 C.ar   17  TRP17       0.0015
     32  N        -49.4490   48.3930   -1.7620 N.3    90  ASP90      -0.1225
     33  CA       -49.2400   48.2770   -3.2130 C.3    90  ASP90       0.1805
     34  C        -49.5470   46.9100   -3.8300 C.2    90  ASP90       0.2597
     35  O        -50.3260   46.8150   -4.7880 O.2    90  ASP90      -0.2718
     36  CB       -47.8480   48.7370   -3.6490 C.3    90  ASP90       0.1424
     37  CG       -47.7690   48.9010   -5.1470 C.2    90  ASP90       0.3668
     38  OD1      -48.2430   49.9460   -5.6390 O.co2  90  ASP90      -0.2456
     39  OD2      -47.3000   47.9650   -5.8290 O.co2  90  ASP90      -0.2456
     40  N        -48.9130   45.8700   -3.2950 N.am   91  ARG91      -0.1979
     41  CA       -49.1430   44.4960   -3.7120 C.3    91  ARG91       0.1597
     42  C        -50.0460   43.7920   -2.7160 C.2    91  ARG91       0.2287
     43  O        -49.8260   43.8760   -1.5030 O.2    91  ARG91      -0.2864
     44  CB       -47.8120   43.7450   -3.7660 C.3    91  ARG91       0.0334
     45  CG       -46.8520   44.2950   -4.7990 C.3    91  ARG91       0.0492
     46  CD       -45.4280   43.7590   -4.5890 C.3    91  ARG91       0.2205
     47  NE       -44.5760   44.0940   -5.7290 N.pl3  91  ARG91      -0.0865
     48  CZ       -43.2790   43.8180   -5.8070 C.cat  91  ARG91       0.5346
     49  NH1      -42.6680   43.2150   -4.7990 N.pl3  91  ARG91       0.1354
     50  NH2      -42.5960   44.1530   -6.8960 N.pl3  91  ARG91       0.1354
     51  N        -46.1920   38.2680   -7.7920 N.3   142  ASP142     -0.1239
     52  CA       -46.7140   39.6100   -7.5450 C.3   142  ASP142      0.1674
     53  C        -48.1650   39.6640   -8.0390 C.2   142  ASP142      0.2266
     54  O        -48.4060   39.6340   -9.2460 O.2   142  ASP142     -0.2867
     55  CB       -45.8480   40.6260   -8.3050 C.3   142  ASP142      0.1410
     56  CG       -46.2900   42.0750   -8.0960 C.2   142  ASP142      0.3668
     57  OD1      -47.3560   42.3280   -7.4960 O.co2 142  ASP142     -0.2456
     58  OD2      -45.5550   42.9680   -8.5520 O.co2 142  ASP142     -0.2456
     59  N        -50.1420   42.0050   -8.3960 N.3   144  ASN144     -0.1240
     60  CA       -50.3080   43.1260   -9.3310 C.3   144  ASN144      0.1653
     61  C        -50.0650   42.7460  -10.7910 C.2   144  ASN144      0.2266
     62  O        -50.6930   43.3010  -11.6980 O.2   144  ASN144     -0.2867
     63  CB       -49.3610   44.2850   -8.9830 C.3   144  ASN144      0.1155
     64  CG       -49.7040   44.9630   -7.6710 C.2   144  ASN144      0.2627
     65  OD1      -50.6840   44.6230   -7.0150 O.2   144  ASN144     -0.2716
     66  ND2      -48.8860   45.9330   -7.2800 N.am  144  ASN144     -0.0877
     67  N        -52.0640   44.0290  -14.1530 N.3   148  PHE148     -0.1241
     68  CA       -51.4630   44.8070  -15.2310 C.3   148  PHE148      0.1605
     69  C        -51.7080   44.1040  -16.5620 C.2   148  PHE148      0.2264
     70  O        -52.0880   44.7370  -17.5430 O.2   148  PHE148     -0.2867
     71  CB       -49.9480   44.9840  -15.0560 C.3   148  PHE148      0.0534
     72  CG       -49.5430   45.6480  -13.7730 C.ar  148  PHE148     -0.0203
     73  CD1      -48.3700   45.2670  -13.1350 C.ar  148  PHE148     -0.0042
     74  CD2      -50.3170   46.6480  -13.2040 C.ar  148  PHE148     -0.0042
     75  CE1      -47.9820   45.8590  -11.9430 C.ar  148  PHE148     -0.0003
     76  CE2      -49.9280   47.2500  -12.0210 C.ar  148  PHE148     -0.0003
     77  CZ       -48.7560   46.8530  -11.3890 C.ar  148  PHE148     -0.0000
     78  N        -39.2510   40.6010  -11.5440 N.3   182  TRP182     -0.1241
     79  CA       -39.2120   41.8080  -12.3630 C.3   182  TRP182      0.1605
     80  C        -37.7850   42.1410  -12.8050 C.2   182  TRP182      0.2264
     81  O        -37.4050   43.3110  -12.8430 O.2   182  TRP182     -0.2867
     82  CB       -39.7640   43.0060  -11.5810 C.3   182  TRP182      0.0550
     83  CG       -41.2250   42.9390  -11.1920 C.ar  182  TRP182      0.0003
     84  CD1      -41.7470   42.4400  -10.0250 C.ar  182  TRP182      0.0946
     85  CD2      -42.3430   43.4190  -11.9560 C.ar  182  TRP182      0.0152
     86  NE1      -43.1160   42.5760  -10.0230 N.ar  182  TRP182     -0.2442
     87  CE2      -43.5070   43.1760  -11.1920 C.ar  182  TRP182      0.0810
     88  CE3      -42.4720   44.0360  -13.2070 C.ar  182  TRP182      0.0012
     89  CZ2      -44.7800   43.5250  -11.6400 C.ar  182  TRP182      0.0191
     90  CZ3      -43.7360   44.3800  -13.6480 C.ar  182  TRP182      0.0001
     91  CH2      -44.8750   44.1210  -12.8670 C.ar  182  TRP182      0.0015
     92  N        -43.2290   47.3810  -16.8360 N.3   211  TYR211     -0.1241
     93  CA       -42.3770   48.0620  -15.8580 C.3   211  TYR211      0.1605
     94  C        -41.1380   48.6920  -16.5090 C.2   211  TYR211      0.2264
     95  O        -40.5200   48.1060  -17.4010 O.2   211  TYR211     -0.2867
     96  CB       -41.9910   47.0900  -14.7190 C.3   211  TYR211      0.0534
     97  CG       -40.8480   47.5570  -13.8340 C.ar  211  TYR211     -0.0201
     98  CD1      -40.9030   48.7820  -13.1840 C.ar  211  TYR211     -0.0009
     99  CD2      -39.7200   46.7570  -13.6340 C.ar  211  TYR211     -0.0009
    100  CE1      -39.8550   49.2190  -12.3780 C.ar  211  TYR211      0.0417
    101  CE2      -38.6640   47.1880  -12.8300 C.ar  211  TYR211      0.0417
    102  CZ       -38.7420   48.4160  -12.2020 C.ar  211  TYR211      0.1957
    103  OH       -37.7050   48.8640  -11.4080 O.3   211  TYR211     -0.2866
    104  N        -43.7900   51.4890  -16.6320 N.3   240  GLN240     -0.1231
    105  CA       -44.4440   51.8530  -15.3780 C.3   240  GLN240      0.1698
    106  C        -43.4280   52.3040  -14.3240 C.2   240  GLN240      0.2592
    107  O        -42.3560   51.7080  -14.2010 O.2   240  GLN240     -0.2718
    108  CB       -45.2730   50.6820  -14.8230 C.3   240  GLN240      0.0381
    109  CG       -46.0830   51.0510  -13.5850 C.3   240  GLN240      0.0905
    110  CD       -46.9380   49.9090  -13.0340 C.2   240  GLN240      0.2608
    111  OE1      -47.8260   50.1370  -12.2210 O.2   240  GLN240     -0.2717
    112  NE2      -46.6690   48.6860  -13.4700 N.am  240  GLN240     -0.0878
    113  N        -43.7950   53.3520  -13.5840 N.am  241  ASP241     -0.1974
    114  CA       -43.0790   53.8710  -12.4050 C.3   241  ASP241      0.1709
    115  C        -42.4200   55.2280  -12.6200 C.2   241  ASP241      0.2293
    116  O        -42.0610   55.9000  -11.6570 O.2   241  ASP241     -0.2864
    117  CB       -42.0510   52.8850  -11.8320 C.3   241  ASP241      0.1436
    118  CG       -42.6950   51.7490  -11.0550 C.2   241  ASP241      0.3671
    119  OD1      -43.9240   51.5690  -11.1790 O.co2 241  ASP241     -0.2456
    120  OD2      -41.9700   51.0330  -10.3260 O.co2 241  ASP241     -0.2456
    121  N        -47.1150   56.7790  -10.8550 N.3   261  LYS261     -0.1245
    122  CA       -47.8480   56.4180   -9.6560 C.3   261  LYS261      0.1561
    123  C        -47.2130   57.1740   -8.5000 C.2   261  LYS261      0.2260
    124  O        -46.1440   56.8120   -8.0140 O.2   261  LYS261     -0.2867
    125  CB       -47.8180   54.9040   -9.4360 C.3   261  LYS261      0.0271
    126  CG       -48.3800   54.1220  -10.6410 C.3   261  LYS261      0.0035
    127  CD       -48.8030   52.6940  -10.2930 C.3   261  LYS261      0.0206
    128  CE       -47.6340   51.8790   -9.7360 C.3   261  LYS261      0.1093
    129  NZ       -47.9820   50.4410   -9.6270 N.3   261  LYS261     -0.1314
@<TRIPOS>BOND
     1    70    69    2
     2    95    94    2
     3    92    93    1
     4   104   105    1
     5    69    68    1
     6    94    93    1
     7    93    96    1
     8   105   108    1
     9   105   106    1
    10    68    71    1
    11    68    67    1
    12    71    72    1
    13   108   109    1
    14    96    97    1
    15   106   107    2
    16   106   113   am
    17    97    99   ar
    18    97    98   ar
    19    72    74   ar
    20    72    73   ar
    21    90    88   ar
    22    90    91   ar
    23    99   101   ar
    24   109   110    1
    25   113   114    1
    26   112   110   am
    27    88    85   ar
    28    74    76   ar
    29    98   100   ar
    30    73    75   ar
    31   110   111    2
    32    91    89   ar
    33    81    80    2
    34   101   102   ar
    35    80    79    1
    36   115   114    1
    37   115   116    2
    38   114   117    1
    39   100   102   ar
    40    79    82    1
    41    79    78    1
    42   102   103    1
    43    76    77   ar
    44    85    83   ar
    45    85    87   ar
    46    75    77   ar
    47   117   118    1
    48    62    61    2
    49    89    87   ar
    50    82    83    1
    51    83    84   ar
    52    87    86   ar
    53   119   118   ar
    54   118   120   ar
    55   121   122    1
    56    61    60    1
    57   126   127    1
    58   126   125    1
    59   127   128    1
    60    84    86   ar
    61   128   129    1
    62   122   125    1
    63   122   123    1
    64    60    63    1
    65    60    59    1
    66    54    53    2
    67     6     5    1
    68    63    64    1
    69    58    56   ar
    70   123   124    2
    71    55    56    1
    72    55    52    1
    73     5     2    1
    74    56    57   ar
    75     2     1    1
    76     2     3    1
    77    53    52    1
    78    51    52    1
    79    64    66   am
    80    64    65    2
    81     3     4    2
    82    13    12    1
    83    13    14    1
    84     7     8    1
    85    11    12    1
    86    11     8    1
    87    16    15    1
    88    50    48    1
    89     8     9    1
    90    14    15    2
    91    15    17    1
    92    39    37   ar
    93    48    47    2
    94    48    49    1
    95    47    46    1
    96    38    37   ar
    97    26    27   ar
    98    26    24   ar
    99    29    27   ar
   100    29    31   ar
   101    37    36    1
   102    27    25   ar
   103    24    23   ar
   104    45    46    1
   105    45    44    1
   106    35    34    2
   107     9    18   am
   108     9    10    2
   109    31    30   ar
   110    18    19    1
   111    25    23   ar
   112    25    28   ar
   113    34    40   am
   114    34    33    1
   115    23    22    1
   116    44    41    1
   117    41    40    1
   118    41    42    1
   119    36    33    1
   120    30    28   ar
   121    33    32    1
   122    19    22    1
   123    19    20    1
   124    42    43    2
   125    20    21    2
