@<TRIPOS>MOLECULE
tmp/3urpA00.pdb
 112 112 0 0 0
SMALL
GASTEIGER

@<TRIPOS>ATOM
      1  N         39.0360   14.5930    8.4100 N.3    35  ASN35      -0.1240
      2  CA        40.1350   15.4230    7.9520 C.3    35  ASN35       0.1653
      3  C         41.3980   15.2090    8.7790 C.2    35  ASN35       0.2266
      4  O         42.3360   15.9790    8.6460 O.2    35  ASN35      -0.2867
      5  CB        39.7140   16.8910    7.8990 C.3    35  ASN35       0.1155
      6  CG        38.5220   17.1520    7.0060 C.2    35  ASN35       0.2627
      7  OD1       37.4700   17.6450    7.4390 O.2    35  ASN35      -0.2716
      8  ND2       38.6530   16.8080    5.7360 N.am   35  ASN35      -0.0877
      9  N         46.8190   17.9570   12.3120 N.3    39  HIS39      -0.1226
     10  CA        47.7160   17.7270   11.1970 C.3    39  HIS39       0.1752
     11  C         48.5160   18.9570   10.9820 C.2    39  HIS39       0.2596
     12  O         48.1880   20.0310   11.5090 O.2    39  HIS39      -0.2718
     13  CB        47.0490   17.1940    9.9160 C.3    39  HIS39       0.0759
     14  CG        45.9450   18.0460    9.3840 C.ar   39  HIS39       0.0818
     15  ND1       44.6520   17.5740    9.3030 N.ar   39  HIS39      -0.2268
     16  CD2       45.9720   19.3120    8.9070 C.ar   39  HIS39       0.1154
     17  CE1       43.9320   18.5730    8.8160 C.ar   39  HIS39       0.1986
     18  NE2       44.6820   19.6380    8.5670 N.ar   39  HIS39      -0.2212
     19  N         49.6060   18.7880   10.2480 N.am   40  LYS40      -0.1966
     20  CA        50.5400   19.8500    9.9600 C.3    40  LYS40       0.1728
     21  C         49.8660   21.0520    9.2900 C.2    40  LYS40       0.2616
     22  O         48.9880   20.9000    8.4320 O.2    40  LYS40      -0.2715
     23  CB        51.6780   19.3020    9.1060 C.3    40  LYS40       0.0311
     24  CG        52.9410   20.1160    9.2110 C.3    40  LYS40       0.0038
     25  CD        54.1030   19.4010    8.5420 C.3    40  LYS40       0.0206
     26  CE        55.2260   20.3540    8.2190 C.3    40  LYS40       0.1093
     27  NZ        56.5130   19.6360    7.9800 N.3    40  LYS40      -0.1314
     28  N         50.2370   22.2380    9.7450 N.am   41  TYR41      -0.1960
     29  CA        49.7770   23.4720    9.1530 C.3    41  TYR41       0.1771
     30  C         51.0320   24.0650    8.5180 C.2    41  TYR41       0.2620
     31  O         51.9870   24.4030    9.2250 O.2    41  TYR41      -0.2715
     32  CB        49.1430   24.3890   10.2020 C.3    41  TYR41       0.0574
     33  CG        48.7440   25.7170    9.6110 C.ar   41  TYR41      -0.0198
     34  CD1       47.5920   25.8410    8.8400 C.ar   41  TYR41      -0.0009
     35  CD2       49.5470   26.8370    9.7720 C.ar   41  TYR41      -0.0009
     36  CE1       47.2190   27.0640    8.2940 C.ar   41  TYR41       0.0417
     37  CE2       49.2110   28.0510    9.1910 C.ar   41  TYR41       0.0417
     38  CZ        48.0450   28.1610    8.4540 C.ar   41  TYR41       0.1957
     39  OH        47.7700   29.3550    7.8400 O.3    41  TYR41      -0.2866
     40  N         51.0520   24.1460    7.1820 N.am   42  ASN42      -0.1958
     41  CA        52.2240   24.5780    6.4250 C.3    42  ASN42       0.1819
     42  C         52.5340   26.0400    6.4250 C.2    42  ASN42       0.2621
     43  O         53.6540   26.4070    6.0850 O.2    42  ASN42      -0.2715
     44  CB        52.1110   24.0910    5.0010 C.3    42  ASN42       0.1195
     45  CG        52.2240   22.6040    4.8980 C.2    42  ASN42       0.2630
     46  OD1       52.9650   21.9680    5.6570 O.2    42  ASN42      -0.2716
     47  ND2       51.4030   22.0100    4.0480 N.am   42  ASN42      -0.0877
     48  N         51.5520   26.8800    6.7460 N.am   43  ASN43      -0.1958
     49  CA        51.6860   28.3320    6.7070 C.3    43  ASN43       0.1819
     50  C         51.8060   28.8690    5.2830 C.2    43  ASN43       0.2621
     51  O         52.6250   29.7600    5.0040 O.2    43  ASN43      -0.2715
     52  CB        52.7780   28.8740    7.6440 C.3    43  ASN43       0.1195
     53  CG        52.5960   30.3310    7.9360 C.2    43  ASN43       0.2630
     54  OD1       51.5190   30.9070    7.7240 O.2    43  ASN43      -0.2716
     55  ND2       53.6440   30.9600    8.4320 N.am   43  ASN43      -0.0877
     56  N         50.9230   28.3630    4.3890 N.am   44  TYR44      -0.1960
     57  CA        50.8330   28.8520    3.0200 C.3    44  TYR44       0.1771
     58  C         50.4620   30.3250    3.0420 C.2    44  TYR44       0.2619
     59  O         50.9120   31.0730    2.1810 O.2    44  TYR44      -0.2715
     60  CB        49.7610   28.1100    2.2240 C.3    44  TYR44       0.0574
     61  CG        50.0550   26.6610    1.9140 C.ar   44  TYR44      -0.0198
     62  CD1       51.1920   26.2950    1.1970 C.ar   44  TYR44      -0.0009
     63  CD2       49.1280   25.6680    2.2090 C.ar   44  TYR44      -0.0009
     64  CE1       51.4490   24.9630    0.8780 C.ar   44  TYR44       0.0417
     65  CE2       49.3670   24.3340    1.8870 C.ar   44  TYR44       0.0417
     66  CZ        50.5210   23.9890    1.2040 C.ar   44  TYR44       0.1957
     67  OH        50.7480   22.6730    0.8790 O.3    44  TYR44      -0.2866
     68  N         49.6310   30.7400    4.0100 N.am   45  GLU45      -0.1977
     69  CA        49.1990   32.1360    4.1520 C.3    45  GLU45       0.1602
     70  C         50.3290   33.0850    4.4660 C.2    45  GLU45       0.2287
     71  O         50.2200   34.2800    4.1860 O.2    45  GLU45      -0.2864
     72  CB        48.1280   32.2720    5.2310 C.3    45  GLU45       0.0415
     73  CG        46.7760   31.7940    4.7780 C.3    45  GLU45       0.1163
     74  CD        46.5440   30.3010    4.7950 C.2    45  GLU45       0.3649
     75  OE1       47.4570   29.5230    5.1560 O.co2  45  GLU45      -0.2457
     76  OE2       45.4310   29.9050    4.3900 O.co2  45  GLU45      -0.2457
     77  N         47.6010   22.1430   13.2470 N.3    57  GLU57      -0.1245
     78  CA        46.3100   22.7960   13.4660 C.3    57  GLU57       0.1567
     79  C         45.3130   21.8290   14.0580 C.2    57  GLU57       0.2260
     80  O         45.3600   20.6380   13.7690 O.2    57  GLU57      -0.2867
     81  CB        45.7610   23.4480   12.2020 C.3    57  GLU57       0.0388
     82  CG        45.6200   22.4940   11.0350 C.3    57  GLU57       0.1160
     83  CD        44.8220   23.0290    9.8640 C.2    57  GLU57       0.3649
     84  OE1       43.7840   23.6990   10.0720 O.co2  57  GLU57      -0.2457
     85  OE2       45.2430   22.7450    8.7200 O.co2  57  GLU57      -0.2457
     86  N         39.8020   29.0100    0.1700 N.3    97  ASN97      -0.1225
     87  CA        39.9490   28.0910    1.2870 C.3    97  ASN97       0.1785
     88  C         41.0890   28.5140    2.1980 C.2    97  ASN97       0.2597
     89  O         41.6050   27.7080    2.9750 O.2    97  ASN97      -0.2718
     90  CB        40.0820   26.6530    0.8200 C.3    97  ASN97       0.1169
     91  CG        38.9310   25.8300    1.2990 C.2    97  ASN97       0.2627
     92  OD1       37.7580   26.1810    1.1060 O.2    97  ASN97      -0.2716
     93  ND2       39.2380   24.7120    1.9360 N.am   97  ASN97      -0.0877
     94  N         41.4590   29.8020    2.1330 N.am   98  ASN98      -0.1960
     95  CA        42.4930   30.3630    2.9930 C.3    98  ASN98       0.1819
     96  C         41.9440   30.6200    4.3800 C.2    98  ASN98       0.2621
     97  O         40.7440   30.5170    4.6220 O.2    98  ASN98      -0.2715
     98  CB        43.0400   31.6760    2.4160 C.3    98  ASN98       0.1195
     99  CG        44.0880   31.5300    1.3480 C.2    98  ASN98       0.2630
    100  OD1       44.4670   30.4300    0.9030 O.2    98  ASN98      -0.2716
    101  ND2       44.5500   32.6660    0.8880 N.am   98  ASN98      -0.0877
    102  N         42.8430   30.9780    5.2820 N.am   99  PHE99      -0.1974
    103  CA        42.5640   31.3890    6.6420 C.3    99  PHE99       0.1639
    104  C         43.0160   32.8300    6.8270 C.2    99  PHE99       0.2290
    105  O         43.8990   33.3180    6.1180 O.2    99  PHE99      -0.2864
    106  CB        43.3800   30.5520    7.6410 C.3    99  PHE99       0.0560
    107  CG        42.9430   29.1250    7.7630 C.ar   99  PHE99      -0.0200
    108  CD1       41.9400   28.7650    8.6490 C.ar   99  PHE99      -0.0042
    109  CD2       43.5360   28.1330    6.9920 C.ar   99  PHE99      -0.0042
    110  CE1       41.5180   27.4470    8.7370 C.ar   99  PHE99      -0.0003
    111  CE2       43.1100   26.8120    7.0800 C.ar   99  PHE99      -0.0003
    112  CZ        42.1250   26.4750    7.9700 C.ar   99  PHE99      -0.0000
@<TRIPOS>BOND
     1    86    87    1
     2    90    87    1
     3    90    91    1
     4    64    62   ar
     5    64    66   ar
     6    67    66    1
     7   101    99   am
     8   100    99    2
     9    92    91    2
    10    62    61   ar
    11    66    65   ar
    12    87    88    1
    13    91    93   am
    14    99    98    1
    15    65    63   ar
    16    61    63   ar
    17    61    60    1
    18    94    88   am
    19    94    95    1
    20    59    58    2
    21    88    89    2
    22    60    57    1
    23    98    95    1
    24    95    96    1
    25    57    58    1
    26    57    56    1
    27    58    68   am
    28    68    69    1
    29    47    45   am
    30    69    70    1
    31    69    72    1
    32    71    70    2
    33    96    97    2
    34    96   102   am
    35    56    50   am
    36    76    74   ar
    37    73    74    1
    38    73    72    1
    39    74    75   ar
    40    45    44    1
    41    45    46    2
    42    44    41    1
    43    51    50    2
    44   102   103    1
    45    50    49    1
    46     8     6   am
    47    43    42    2
    48   105   104    2
    49    42    41    1
    50    42    48   am
    51    41    40    1
    52   103   104    1
    53   103   106    1
    54    49    48    1
    55    49    52    1
    56   109   111   ar
    57   109   107   ar
    58     6     7    2
    59     6     5    1
    60   111   112   ar
    61    40    30   am
    62   106   107    1
    63    52    53    1
    64    54    53    2
    65   107   108   ar
    66    39    38    1
    67     5     2    1
    68    53    55   am
    69     2     1    1
    70     2     3    1
    71   112   110   ar
    72    27    26    1
    73    26    25    1
    74    36    38   ar
    75    36    34   ar
    76    22    21    2
    77    38    37   ar
    78    30    29    1
    79    30    31    2
    80    25    24    1
    81    18    17   ar
    82    18    16   ar
    83     4     3    2
    84   108   110   ar
    85    85    83   ar
    86    17    15   ar
    87    34    33   ar
    88    16    14   ar
    89    23    24    1
    90    23    20    1
    91    29    28    1
    92    29    32    1
    93    37    35   ar
    94    21    28   am
    95    21    20    1
    96    15    14   ar
    97    14    13    1
    98    33    35   ar
    99    33    32    1
   100    83    84   ar
   101    83    82    1
   102    13    10    1
   103    20    19    1
   104    19    11   am
   105    11    10    1
   106    11    12    2
   107    82    81    1
   108    10     9    1
   109    81    78    1
   110    77    78    1
   111    78    79    1
   112    80    79    2
