@<TRIPOS>MOLECULE
tmp/3urqA00.pdb
 126 122 0 0 0
SMALL
GASTEIGER

@<TRIPOS>ATOM
      1  N         25.5040   15.6090   -0.5560 N.3    21  HIS21      -0.1241
      2  CA        25.8030   15.0990    0.7860 C.3    21  HIS21       0.1621
      3  C         26.9830   15.8860    1.3430 C.2    21  HIS21       0.2264
      4  O         28.1370   15.5850    1.0450 O.2    21  HIS21      -0.2867
      5  CB        26.1100   13.5830    0.7050 C.3    21  HIS21       0.0745
      6  CG        26.2450   12.8950    2.0310 C.ar   21  HIS21       0.0817
      7  ND1       25.3890   11.8960    2.4370 N.ar   21  HIS21      -0.2268
      8  CD2       27.1560   13.0320    3.0250 C.ar   21  HIS21       0.1154
      9  CE1       25.7640   11.4490    3.6210 C.ar   21  HIS21       0.1986
     10  NE2       26.8330   12.1240    4.0010 N.ar   21  HIS21      -0.2212
     11  N         28.1240   18.7650    4.9240 N.3    23  HIS23      -0.1241
     12  CA        27.8320   19.2160    6.2860 C.3    23  HIS23       0.1621
     13  C         28.5060   20.5670    6.4670 C.2    23  HIS23       0.2264
     14  O         29.5520   20.8210    5.8730 O.2    23  HIS23      -0.2867
     15  CB        28.4310   18.2820    7.3540 C.3    23  HIS23       0.0745
     16  CG        27.9580   16.8650    7.2840 C.ar   23  HIS23       0.0817
     17  ND1       26.8540   16.4130    7.9710 N.ar   23  HIS23      -0.2268
     18  CD2       28.4580   15.7910    6.6270 C.ar   23  HIS23       0.1154
     19  CE1       26.6940   15.1220    7.7430 C.ar   23  HIS23       0.1986
     20  NE2       27.6550   14.7200    6.9310 N.ar   23  HIS23      -0.2212
     21  N         29.6890   18.9890   11.6840 N.3    26  GLY26      -0.1225
     22  CA        29.3700   17.6540   12.1690 C.3    26  GLY26       0.1811
     23  C         29.5130   17.7120   13.6770 C.2    26  GLY26       0.2280
     24  O         30.6300   17.7700   14.1930 O.2    26  GLY26      -0.2866
     25  N         23.1060   14.9080   14.7250 N.3    72  CYS72      -0.1235
     26  CA        24.3910   15.1740   14.0830 C.3    72  CYS72       0.1677
     27  C         24.7090   16.6610   14.3000 C.2    72  CYS72       0.2270
     28  O         25.5870   17.2300   13.6510 O.2    72  CYS72      -0.2867
     29  CB        24.3420   14.8200   12.5930 C.3    72  CYS72       0.0956
     30  SG        25.9310   14.9570   11.7300 S.3    72  CYS72      -0.0801
     31  N         20.5880   10.1850   12.6370 N.3    97  TRP97      -0.1227
     32  CA        21.8980    9.6460   12.2450 C.3    97  TRP97       0.1737
     33  C         22.2970    8.4800   13.1860 C.2    97  TRP97       0.2595
     34  O         21.4120    7.8120   13.7280 O.2    97  TRP97      -0.2718
     35  CB        22.8900   10.8250   12.2630 C.3    97  TRP97       0.0564
     36  CG        24.2980   10.6280   11.7670 C.ar   97  TRP97       0.0003
     37  CD1       24.6940   10.1930   10.5300 C.ar   97  TRP97       0.0946
     38  CD2       25.4940   10.9520   12.4840 C.ar   97  TRP97       0.0152
     39  NE1       26.0670   10.2370   10.4280 N.ar   97  TRP97      -0.2442
     40  CE2       26.5880   10.6970   11.6100 C.ar   97  TRP97       0.0810
     41  CE3       25.7540   11.4390   13.7860 C.ar   97  TRP97       0.0012
     42  CZ2       27.9390   10.9160   11.9950 C.ar   97  TRP97       0.0191
     43  CZ3       27.1050   11.6600   14.1780 C.ar   97  TRP97       0.0001
     44  CH2       28.1770   11.3940   13.2760 C.ar   97  TRP97       0.0015
     45  N         23.6010    8.2440   13.3820 N.am   98  ILE98      -0.1980
     46  CA        24.1030    7.1420   14.2240 C.3    98  ILE98       0.1595
     47  C         24.1960    7.3870   15.7370 C.2    98  ILE98       0.2287
     48  O         24.5120    6.4630   16.5010 O.2    98  ILE98      -0.2864
     49  CB        25.4900    6.6000   13.7220 C.3    98  ILE98       0.0276
     50  CG1       26.6030    7.6420   13.9330 C.3    98  ILE98       0.0022
     51  CG2       25.3920    6.1970   12.2490 C.3    98  ILE98       0.0022
     52  CD1       28.0310    7.1050   13.8000 C.3    98  ILE98       0.0001
     53  N         23.1230    6.7560    5.2040 N.3   166  HIS166     -0.1241
     54  CA        24.5170    6.5760    5.6070 C.3   166  HIS166      0.1621
     55  C         24.5700    5.0480    5.6420 C.2   166  HIS166      0.2264
     56  O         23.6460    4.4010    6.1510 O.2   166  HIS166     -0.2867
     57  CB        24.7640    7.1660    7.0130 C.3   166  HIS166      0.0745
     58  CG        26.0190    6.6880    7.6960 C.ar  166  HIS166      0.0817
     59  ND1       27.1590    7.4570    7.7800 N.ar  166  HIS166     -0.2268
     60  CD2       26.2900    5.5460    8.3780 C.ar  166  HIS166      0.1154
     61  CE1       28.0750    6.8120    8.4810 C.ar  166  HIS166      0.1986
     62  NE2       27.5750    5.6490    8.8540 N.ar  166  HIS166     -0.2212
     63  N         27.3250    6.8640    0.9330 N.3   195  HIS195     -0.1241
     64  CA        28.6460    6.2860    1.2570 C.3   195  HIS195      0.1621
     65  C         28.9840    5.0570    0.4210 C.2   195  HIS195      0.2264
     66  O         29.7900    4.2250    0.8210 O.2   195  HIS195     -0.2867
     67  CB        28.7790    5.9720    2.7550 C.3   195  HIS195      0.0745
     68  CG        28.6470    7.1680    3.6400 C.ar  195  HIS195      0.0817
     69  ND1       28.7440    8.4620    3.1750 N.ar  195  HIS195     -0.2268
     70  CD2       28.4100    7.2630    4.9670 C.ar  195  HIS195      0.1154
     71  CE1       28.5690    9.3010    4.1780 C.ar  195  HIS195      0.1986
     72  NE2       28.3630    8.5990    5.2770 N.ar  195  HIS195     -0.2212
     73  N         38.0590   11.6300    0.6380 N.3   222  TRP222     -0.1241
     74  CA        38.4400   10.8670    1.8310 C.3   222  TRP222      0.1605
     75  C         39.4700    9.7570    1.5730 C.2   222  TRP222      0.2264
     76  O         39.1330    8.6810    1.0730 O.2   222  TRP222     -0.2867
     77  CB        37.1950   10.3150    2.5550 C.3   222  TRP222      0.0550
     78  CG        36.2870   11.3900    3.1400 C.ar  222  TRP222      0.0003
     79  CD1       35.5300   12.2920    2.4450 C.ar  222  TRP222      0.0946
     80  CD2       36.0610   11.6720    4.5310 C.ar  222  TRP222      0.0152
     81  NE1       34.8530   13.1190    3.3040 N.ar  222  TRP222     -0.2442
     82  CE2       35.1560   12.7680    4.5920 C.ar  222  TRP222      0.0810
     83  CE3       36.5330   11.1100    5.7350 C.ar  222  TRP222      0.0012
     84  CZ2       34.7080   13.3220    5.8190 C.ar  222  TRP222      0.0191
     85  CZ3       36.0890   11.6600    6.9660 C.ar  222  TRP222      0.0001
     86  CH2       35.1820   12.7590    6.9890 C.ar  222  TRP222      0.0015
     87  N         38.7570    6.5060    9.7110 N.3   236  ILE236     -0.1245
     88  CA        37.6570    7.2880    9.1480 C.3   236  ILE236      0.1561
     89  C         37.8200    7.6340    7.6550 C.2   236  ILE236      0.2260
     90  O         36.8470    7.5900    6.8990 O.2   236  ILE236     -0.2867
     91  CB        37.3600    8.5550   10.0390 C.3   236  ILE236      0.0252
     92  CG1       35.9500    9.0910    9.7630 C.3   236  ILE236      0.0019
     93  CG2       38.4480    9.6350    9.8720 C.3   236  ILE236      0.0019
     94  CD1       35.4430   10.0940   10.7860 C.3   236  ILE236      0.0001
     95  N         31.2210   15.0730    1.1730 N.3   266  ASP266     -0.1239
     96  CA        30.9290   14.7130    2.5740 C.3   266  ASP266      0.1674
     97  C         31.8870   15.5360    3.4400 C.2   266  ASP266      0.2266
     98  O         32.5440   15.0370    4.3630 O.2   266  ASP266     -0.2867
     99  CB        31.0320   13.1990    2.8610 C.3   266  ASP266      0.1410
    100  CG        30.3910   12.8070    4.1970 C.2   266  ASP266      0.3668
    101  OD1       29.7070   13.6510    4.8160 O.co2 266  ASP266     -0.2456
    102  OD2       30.5610   11.6570    4.6300 O.co2 266  ASP266     -0.2456
    103  N         33.0040   19.1380    5.6940 N.3   268  THR268     -0.1218
    104  CA        32.5410   19.8940    6.8470 C.3   268  THR268      0.1862
    105  C         33.5500   20.9800    7.2010 C.2   268  THR268      0.2287
    106  O         34.6840   20.9490    6.7330 O.2   268  THR268     -0.2866
    107  CB        32.3150   18.9450    8.0600 C.3   268  THR268      0.1770
    108  OG1       31.5550   19.6200    9.0580 O.3   268  THR268     -0.2211
    109  CG2       33.6450   18.4140    8.6540 C.3   268  THR268      0.0375
    110  N         34.0260   19.7410   13.1590 N.3   271  PHE271     -0.1241
    111  CA        33.8600   18.3100   13.3970 C.3   271  PHE271      0.1605
    112  C         34.1640   17.9780   14.8580 C.2   271  PHE271      0.2264
    113  O         35.3310   17.8800   15.2530 O.2   271  PHE271     -0.2867
    114  CB        34.7890   17.5320   12.4380 C.3   271  PHE271      0.0534
    115  CG        34.4000   16.0770   12.1810 C.ar  271  PHE271     -0.0203
    116  CD1       33.4050   15.4000   12.9290 C.ar  271  PHE271     -0.0042
    117  CD2       35.0810   15.3620   11.1780 C.ar  271  PHE271     -0.0042
    118  CE1       33.1020   14.0350   12.6830 C.ar  271  PHE271     -0.0003
    119  CE2       34.7920   13.9970   10.9190 C.ar  271  PHE271     -0.0003
    120  CZ        33.8000   13.3340   11.6760 C.ar  271  PHE271     -0.0000
    121  N         32.1350   15.3410   16.5090 N.3   273  SER273     -0.1217
    122  CA        31.7210   13.9510   16.7220 C.3   273  SER273      0.1889
    123  C         32.8130   12.9020   16.4350 C.2   273  SER273      0.2288
    124  O         32.5240   11.7460   16.1040 O.2   273  SER273     -0.2866
    125  CB        30.4200   13.6540   15.9610 C.3   273  SER273      0.2089
    126  OG        30.4970   14.0540   14.6090 O.3   273  SER273     -0.2183
@<TRIPOS>BOND
     1     1     2    1
     2    65    66    2
     3    65    64    1
     4    73    74    1
     5     5     2    1
     6     5     6    1
     7     2     3    1
     8    63    64    1
     9     4     3    2
    10    76    75    2
    11    95    96    1
    12    64    67    1
    13    75    74    1
    14    74    77    1
    15     6     7   ar
    16     6     8   ar
    17     7     9   ar
    18    79    78   ar
    19    79    81   ar
    20    77    78    1
    21    96    99    1
    22    96    97    1
    23    67    68    1
    24    99   100    1
    25     8    10   ar
    26    78    80   ar
    27    69    68   ar
    28    69    71   ar
    29    81    82   ar
    30    97    98    2
    31     9    10   ar
    32    68    70   ar
    33    71    72   ar
    34   100   102   ar
    35   100   101   ar
    36    80    82   ar
    37    80    83   ar
    38    82    84   ar
    39    11    12    1
    40    70    72   ar
    41    53    54    1
    42    54    55    1
    43    54    57    1
    44    55    56    2
    45   103   104    1
    46    83    85   ar
    47    84    86   ar
    48    14    13    2
    49    12    13    1
    50    12    15    1
    51    18    20   ar
    52    18    16   ar
    53   106   105    2
    54   104   105    1
    55   104   107    1
    56    90    89    2
    57    20    19   ar
    58    85    86   ar
    59    57    58    1
    60    16    15    1
    61    16    17   ar
    62    89    88    1
    63    58    59   ar
    64    58    60   ar
    65    19    17   ar
    66    59    61   ar
    67   107   109    1
    68   107   108    1
    69    60    62   ar
    70    61    62   ar
    71    88    87    1
    72    88    91    1
    73    92    91    1
    74    92    94    1
    75    93    91    1
    76    39    37   ar
    77    39    40   ar
    78    37    36   ar
    79   119   117   ar
    80   119   120   ar
    81   117   115   ar
    82    40    42   ar
    83    40    38   ar
    84   120   118   ar
    85    21    22    1
    86    30    29    1
    87    36    35    1
    88    36    38   ar
    89    42    44   ar
    90    22    23    1
    91   115   114    1
    92   115   116   ar
    93    32    35    1
    94    32    31    1
    95    32    33    1
    96    51    49    1
    97   114   111    1
    98    38    41   ar
    99    29    26    1
   100   118   116   ar
   101   110   111    1
   102    33    45   am
   103    33    34    2
   104    44    43   ar
   105    45    46    1
   106   111   112    1
   107    28    27    2
   108    23    24    2
   109    49    50    1
   110    49    46    1
   111    41    43   ar
   112    52    50    1
   113    26    27    1
   114    26    25    1
   115    46    47    1
   116   126   125    1
   117   112   113    2
   118    47    48    2
   119   125   122    1
   120   124   123    2
   121   123   122    1
   122   121   122    1
