@<TRIPOS>MOLECULE
tmp/3usbB00.pdb
 112 103 0 0 0
SMALL
GASTEIGER

@<TRIPOS>ATOM
      1  N         57.1450   30.2640  144.8490 N.3    56  ALA56      -0.1231
      2  CA        58.5370   30.0530  144.4880 C.3    56  ALA56       0.1694
      3  C         59.2210   28.9300  145.2300 C.2    56  ALA56       0.2592
      4  O         58.8870   28.5680  146.3640 O.2    56  ALA56      -0.2718
      5  CB        59.3380   31.3600  144.6350 C.3    56  ALA56       0.0304
      6  N         60.2820   28.4630  144.6070 N.am   57  GLY57      -0.1957
      7  CA        61.0300   27.2870  145.0080 C.3    57  GLY57       0.1869
      8  C         62.0250   27.6740  146.0850 C.2    57  GLY57       0.2309
      9  O         63.1640   27.2370  146.0540 O.2    57  GLY57      -0.2863
     10  N         66.8170   25.9240  137.6220 N.3   209  ASP209     -0.1239
     11  CA        66.9520   27.3070  138.0350 C.3   209  ASP209      0.1674
     12  C         68.4030   27.7090  138.1630 C.2   209  ASP209      0.2266
     13  O         69.2220   26.9580  138.6950 O.2   209  ASP209     -0.2867
     14  CB        66.3000   27.4930  139.4100 C.3   209  ASP209      0.1410
     15  CG        65.1500   28.4830  139.3830 C.2   209  ASP209      0.3668
     16  OD1       64.9450   29.1150  138.3250 O.co2 209  ASP209     -0.2456
     17  OD2       64.4580   28.6340  140.4200 O.co2 209  ASP209     -0.2456
     18  N         70.6760   31.8350  138.4160 N.3   211  ALA211     -0.1245
     19  CA        70.6770   33.2870  138.2700 C.3   211  ALA211      0.1562
     20  C         70.7290   33.7190  136.8030 C.2   211  ALA211      0.2260
     21  O         69.9710   34.5850  136.3810 O.2   211  ALA211     -0.2867
     22  CB        71.8520   33.8910  139.0380 C.3   211  ALA211      0.0290
     23  N         66.6420   31.6940  134.9740 N.3   238  ASN238     -0.1240
     24  CA        65.8560   32.8510  134.6260 C.3   238  ASN238      0.1653
     25  C         66.4520   33.6030  133.4510 C.2   238  ASN238      0.2266
     26  O         67.6380   33.7180  133.3190 O.2   238  ASN238     -0.2867
     27  CB        65.7150   33.7720  135.8180 C.3   238  ASN238      0.1155
     28  CG        64.6040   33.3630  136.7490 C.2   238  ASN238      0.2627
     29  OD1       64.3030   32.2070  136.8820 O.2   238  ASN238     -0.2716
     30  ND2       64.0090   34.3210  137.4080 N.am  238  ASN238     -0.0877
     31  N         61.1240   30.7770  132.3950 N.3   257  LYS257     -0.1245
     32  CA        60.9980   31.6440  133.5360 C.3   257  LYS257      0.1561
     33  C         61.7590   32.9630  133.3780 C.2   257  LYS257      0.2260
     34  O         62.9130   32.9870  133.0630 O.2   257  LYS257     -0.2867
     35  CB        61.3720   30.9130  134.8110 C.3   257  LYS257      0.0271
     36  CG        60.9990   31.6530  136.0650 C.3   257  LYS257      0.0035
     37  CD        60.4480   30.7390  137.1350 C.3   257  LYS257      0.0206
     38  CE        61.5240   29.8840  137.7570 C.3   257  LYS257      0.1093
     39  NZ        62.4320   30.6560  138.6120 N.3   257  LYS257     -0.1314
     40  N         63.5850   40.7280  141.5390 N.3   263  GLY263     -0.1210
     41  CA        63.2790   40.0910  142.8090 C.3   263  GLY263      0.1956
     42  C         63.4940   41.0670  143.9580 C.2   263  GLY263      0.2613
     43  O         64.4290   41.8860  143.9100 O.2   263  GLY263     -0.2717
     44  N         62.6150   41.0130  144.9640 N.am  264  SER264     -0.1938
     45  CA        62.6620   41.9360  146.1150 C.3   264  SER264      0.2055
     46  C         63.9230   41.7740  146.9830 C.2   264  SER264      0.2643
     47  O         64.4570   42.7520  147.5280 O.2   264  SER264     -0.2714
     48  CB        61.3980   41.8030  146.9830 C.3   264  SER264      0.2130
     49  OG        61.3190   40.5350  147.6210 O.3   264  SER264     -0.2179
     50  N         64.3800   40.5290  147.0980 N.am  265  ILE265     -0.1963
     51  CA        65.5680   40.1870  147.8780 C.3   265  ILE265      0.1727
     52  C         66.8650   40.1750  147.0190 C.2   265  ILE265      0.2616
     53  O         67.9840   40.0620  147.5480 O.2   265  ILE265     -0.2715
     54  CB        65.3000   38.8810  148.7130 C.3   265  ILE265      0.0290
     55  CG1       65.0850   39.2330  150.1930 C.3   265  ILE265      0.0022
     56  CG2       66.3790   37.8080  148.5110 C.3   265  ILE265      0.0023
     57  CD1       64.0210   40.2920  150.4310 C.3   265  ILE265      0.0001
     58  N         66.6970   40.3380  145.7000 N.am  266  CYS266     -0.1968
     59  CA        67.8200   40.3640  144.7400 C.3   266  CYS266      0.1712
     60  C         68.6440   41.6510  144.7320 C.2   266  CYS266      0.2296
     61  O         68.1270   42.7670  144.6360 O.2   266  CYS266     -0.2864
     62  CB        67.3770   40.0600  143.2960 C.3   266  CYS266      0.0983
     63  SG        66.7240   38.4070  142.9860 S.3   266  CYS266     -0.0798
     64  N         71.2140   41.7490  142.5190 N.3   268  THR268     -0.1218
     65  CA        71.8560   41.6960  141.2030 C.3   268  THR268      0.1862
     66  C         72.1260   43.0920  140.6200 C.2   268  THR268      0.2287
     67  O         73.2150   43.3600  140.0960 O.2   268  THR268     -0.2866
     68  CB        70.9620   40.9450  140.2080 C.3   268  THR268      0.1770
     69  OG1       70.5430   39.7130  140.8010 O.3   268  THR268     -0.2211
     70  CG2       71.7110   40.6540  138.9120 C.3   268  THR268      0.0375
     71  N         58.5730   35.9880  136.9950 N.3   299  ASP299     -0.1225
     72  CA        59.0870   35.7080  138.3320 C.3   299  ASP299      0.1805
     73  C         59.8130   36.9150  138.9220 C.2   299  ASP299      0.2598
     74  O         60.8860   37.2750  138.4670 O.2   299  ASP299     -0.2718
     75  CB        60.0130   34.4920  138.2650 C.3   299  ASP299      0.1424
     76  CG        60.7960   34.2680  139.5410 C.2   299  ASP299      0.3668
     77  OD1       60.3410   34.7110  140.6280 O.co2 299  ASP299     -0.2456
     78  OD2       61.8710   33.6200  139.4490 O.co2 299  ASP299     -0.2456
     79  N         59.2370   37.5070  139.9610 N.am  300  GLY300     -0.1942
     80  CA        59.8770   38.5950  140.6900 C.3   300  GLY300      0.2014
     81  C         59.2780   39.9760  140.5230 C.2   300  GLY300      0.2639
     82  O         58.6310   40.2980  139.5320 O.2   300  GLY300     -0.2714
     83  N         59.4740   40.7970  141.5470 N.am  301  GLY301     -0.1939
     84  CA        59.0610   42.1870  141.5160 C.3   301  GLY301      0.2014
     85  C         57.6010   42.5000  141.7890 C.2   301  GLY301      0.2638
     86  O         57.2220   43.6570  141.7110 O.2   301  GLY301     -0.2714
     87  N         56.7760   41.5030  142.1060 N.am  302  ILE302     -0.1977
     88  CA        55.3450   41.7620  142.2300 C.3   302  ILE302      0.1596
     89  C         54.9800   42.0530  143.6720 C.2   302  ILE302      0.2287
     90  O         55.1280   41.1950  144.5270 O.2   302  ILE302     -0.2864
     91  CB        54.5580   40.5590  141.7260 C.3   302  ILE302      0.0276
     92  CG1       54.6950   40.4900  140.2040 C.3   302  ILE302      0.0022
     93  CG2       53.0760   40.6120  142.1870 C.3   302  ILE302      0.0022
     94  CD1       54.0520   39.3210  139.6140 C.3   302  ILE302      0.0001
     95  N         55.5200   33.9860  142.9320 N.3   319  LEU319     -0.1231
     96  CA        55.5690   34.9300  144.0640 C.3   319  LEU319      0.1693
     97  C         56.3960   34.2990  145.1710 C.2   319  LEU319      0.2593
     98  O         56.0970   33.1670  145.5430 O.2   319  LEU319     -0.2718
     99  CB        54.1610   35.1970  144.6110 C.3   319  LEU319      0.0284
    100  CG        53.1700   35.8520  143.6520 C.3   319  LEU319      0.0019
    101  CD1       51.8360   36.1390  144.3370 C.3   319  LEU319      0.0001
    102  CD2       53.7720   37.1190  143.0900 C.3   319  LEU319      0.0001
    103  N         57.5440   34.8750  145.5390 N.am  320  GLY320     -0.1942
    104  CA        58.1490   34.4970  146.8070 C.3   320  GLY320      0.2014
    105  C         57.7010   35.1880  148.0840 C.2   320  GLY320      0.2639
    106  O         57.0130   34.5980  148.9130 O.2   320  GLY320     -0.2714
    107  N         57.9040   36.4980  148.1350 N.am  321  SER321     -0.1949
    108  CA        57.7680   37.2500  149.3790 C.3   321  SER321      0.1924
    109  C         56.3260   37.5930  149.7300 C.2   321  SER321      0.2314
    110  O         55.9940   37.8130  150.8850 O.2   321  SER321     -0.2863
    111  CB        58.6230   38.5310  149.3430 C.3   321  SER321      0.2116
    112  OG        58.0290   39.5540  148.5460 O.3   321  SER321     -0.2180
@<TRIPOS>BOND
     1    31    32    1
     2    34    33    2
     3    26    25    2
     4    33    32    1
     5    25    24    1
     6    32    35    1
     7    24    23    1
     8    24    27    1
     9    35    36    1
    10    27    28    1
    11    36    37    1
    12    21    20    2
    13    28    29    2
    14    28    30   am
    15    20    19    1
    16    71    72    1
    17    37    38    1
    18    10    11    1
    19    38    39    1
    20    11    12    1
    21    11    14    1
    22    12    13    2
    23    75    72    1
    24    75    76    1
    25    19    18    1
    26    19    22    1
    27    16    15   ar
    28    72    73    1
    29    74    73    2
    30    70    68    1
    31    73    79   am
    32    15    14    1
    33    15    17   ar
    34    78    76   ar
    35    82    81    2
    36    76    77   ar
    37    94    92    1
    38    79    80    1
    39    67    66    2
    40    92    91    1
    41    68    69    1
    42    68    65    1
    43    81    80    1
    44    81    83   am
    45    66    65    1
    46    65    64    1
    47    84    83    1
    48    84    85    1
    49    40    41    1
    50    86    85    2
    51    91    93    1
    52    91    88    1
    53    85    87   am
    54    87    88    1
    55    88    89    1
    56    41    42    1
    57    95    96    1
    58    63    62    1
    59   102   100    1
    60    62    59    1
    61   100   101    1
    62   100    99    1
    63    89    90    2
    64    43    42    2
    65    42    44   am
    66    96    99    1
    67    96    97    1
    68     2     5    1
    69     2     1    1
    70     2     3    1
    71     6     7    1
    72     6     3   am
    73    61    60    2
    74    60    59    1
    75    59    58    1
    76    44    45    1
    77     7     8    1
    78    97   103   am
    79    97    98    2
    80     3     4    2
    81   103   104    1
    82    58    52   am
    83     9     8    2
    84    45    48    1
    85    45    46    1
    86   104   105    1
    87    48    49    1
    88    46    50   am
    89    46    47    2
    90    52    53    2
    91    52    51    1
    92    50    51    1
    93    51    54    1
    94   105   107   am
    95   105   106    2
    96   107   108    1
    97    56    54    1
    98   112   111    1
    99    54    55    1
   100   111   108    1
   101   108   109    1
   102   109   110    2
   103    55    57    1
