@<TRIPOS>MOLECULE
tmp/3usdA00.pdb
 87 81 0 0 0
SMALL
GASTEIGER

@<TRIPOS>ATOM
      1  N         18.8320   -2.2120   27.1650 N.3    37  ASP37      -0.1225
      2  CA        18.4920   -1.6580   28.4620 C.3    37  ASP37       0.1805
      3  C         19.6510   -1.8170   29.4250 C.2    37  ASP37       0.2597
      4  O         19.9010   -0.9250   30.2190 O.2    37  ASP37      -0.2718
      5  CB        17.2790   -2.3480   29.0590 C.3    37  ASP37       0.1424
      6  CG        15.9900   -1.9200   28.4200 C.2    37  ASP37       0.3668
      7  OD1       15.9150   -0.8250   27.8240 O.co2  37  ASP37      -0.2456
      8  OD2       15.0270   -2.6900   28.5440 O.co2  37  ASP37      -0.2456
      9  N         20.3390   -2.9580   29.3470 N.am   38  ASP38      -0.1974
     10  CA        21.4950   -3.2390   30.1890 C.3    38  ASP38       0.1709
     11  C         22.5390   -2.1750   29.9330 C.2    38  ASP38       0.2293
     12  O         23.1370   -1.6530   30.8610 O.2    38  ASP38      -0.2864
     13  CB        22.0600   -4.6350   29.8840 C.3    38  ASP38       0.1436
     14  CG        21.3640   -5.7190   30.6760 C.2    38  ASP38       0.3671
     15  OD1       20.5200   -5.3600   31.5130 O.co2  38  ASP38      -0.2456
     16  OD2       21.6600   -6.9210   30.4860 O.co2  38  ASP38      -0.2456
     17  N         22.0550    0.8090   28.8280 N.3    40  ILE40      -0.1231
     18  CA        21.5740    2.0620   29.3790 C.3    40  ILE40       0.1692
     19  C         21.8650    2.0910   30.8620 C.2    40  ILE40       0.2591
     20  O         22.1640    3.1400   31.4110 O.2    40  ILE40      -0.2718
     21  CB        20.0720    2.1960   29.1480 C.3    40  ILE40       0.0266
     22  CG1       19.8280    2.4030   27.6760 C.3    40  ILE40       0.0019
     23  CG2       19.5230    3.4250   29.8350 C.3    40  ILE40       0.0020
     24  CD1       20.6460    3.5820   27.1790 C.3    40  ILE40       0.0001
     25  N         21.7910    0.9300   31.5020 N.am   41  VAL41      -0.1980
     26  CA        22.0790    0.8490   32.9260 C.3    41  VAL41       0.1595
     27  C         23.5430    1.1350   33.1800 C.2    41  VAL41       0.2287
     28  O         23.8770    1.9260   34.0600 O.2    41  VAL41      -0.2864
     29  CB        21.7210   -0.5550   33.5220 C.3    41  VAL41       0.0276
     30  CG1       22.3160   -0.6990   34.9300 C.3    41  VAL41       0.0022
     31  CG2       20.2260   -0.6880   33.6360 C.3    41  VAL41       0.0022
     32  N         24.3250    4.6620   33.1090 N.3    44  LEU44      -0.1245
     33  CA        23.7960    5.3820   34.2640 C.3    44  LEU44       0.1561
     34  C         24.6960    5.2820   35.4560 C.2    44  LEU44       0.2260
     35  O         24.6930    6.1390   36.3330 O.2    44  LEU44      -0.2867
     36  CB        22.4410    4.8180   34.6590 C.3    44  LEU44       0.0270
     37  CG        21.3770    5.0910   33.6130 C.3    44  LEU44       0.0019
     38  CD1       20.1110    4.3580   33.9830 C.3    44  LEU44       0.0001
     39  CD2       21.1390    6.5940   33.5210 C.3    44  LEU44       0.0001
     40  N         13.8630    7.1470   24.5490 N.3    59  TYR59      -0.1227
     41  CA        12.7850    7.4130   25.4870 C.3    59  TYR59       0.1736
     42  C         13.1010    6.8070   26.8640 C.2    59  TYR59       0.2596
     43  O         12.8650    7.4470   27.8910 O.2    59  TYR59      -0.2718
     44  CB        11.4910    6.7940   24.9410 C.3    59  TYR59       0.0548
     45  CG        10.2870    7.0050   25.8230 C.ar   59  TYR59      -0.0200
     46  CD1        9.5870    8.1980   25.7910 C.ar   59  TYR59      -0.0009
     47  CD2        9.9120    6.0460   26.7640 C.ar   59  TYR59      -0.0009
     48  CE1        8.5430    8.4470   26.6860 C.ar   59  TYR59       0.0417
     49  CE2        8.8740    6.2790   27.6680 C.ar   59  TYR59       0.0417
     50  CZ         8.1940    7.4860   27.6240 C.ar   59  TYR59       0.1957
     51  OH         7.1930    7.7490   28.5370 O.3    59  TYR59      -0.2866
     52  N         13.6260    5.5810   26.8850 N.am   60  THR60      -0.1953
     53  CA        13.9630    4.9270   28.1500 C.3    60  THR60       0.1897
     54  C         15.1110    5.6780   28.7760 C.2    60  THR60       0.2313
     55  O         15.0120    6.1230   29.9020 O.2    60  THR60      -0.2863
     56  CB        14.3800    3.4390   27.9500 C.3    60  THR60       0.1794
     57  OG1       13.2620    2.6990   27.4480 O.3    60  THR60      -0.2208
     58  CG2       14.7860    2.8100   29.2770 C.3    60  THR60       0.0378
     59  N         14.2580    9.2920   30.1360 N.3    63  LYS63      -0.1231
     60  CA        13.5420    9.3070   31.4020 C.3    63  LYS63       0.1693
     61  C         14.5380    9.0940   32.5260 C.2    63  LYS63       0.2592
     62  O         14.2910    9.4550   33.6680 O.2    63  LYS63      -0.2718
     63  CB        12.5550    8.1490   31.4590 C.3    63  LYS63       0.0285
     64  CG        11.3430    8.2920   30.5980 C.3    63  LYS63       0.0035
     65  CD        10.4180    9.3300   31.1800 C.3    63  LYS63       0.0206
     66  CE         9.1080    9.3430   30.4290 C.3    63  LYS63       0.1093
     67  NZ         8.1700   10.3500   30.9910 N.3    63  LYS63      -0.1314
     68  N         15.6620    8.4760   32.1970 N.am   64  CYS64      -0.1970
     69  CA        16.6660    8.1900   33.2020 C.3    64  CYS64       0.1712
     70  C         17.6750    9.3310   33.3230 C.2    64  CYS64       0.2296
     71  O         18.5710    9.3230   34.1740 O.2    64  CYS64      -0.2864
     72  CB        17.2870    6.8350   32.8600 C.3    64  CYS64       0.0983
     73  SG        15.9360    5.6050   32.8700 S.3    64  CYS64      -0.0798
     74  N          4.2890    7.1110   25.7820 N.3   329  ALA329     -0.1245
     75  CA         3.7110    7.2200   27.1170 C.3   329  ALA329      0.1562
     76  C          2.4060    6.4510   27.1610 C.2   329  ALA329      0.2260
     77  O          2.1510    5.6800   28.0860 O.2   329  ALA329     -0.2867
     78  CB         3.4510    8.6810   27.4450 C.3   329  ALA329      0.0290
     79  N          1.3580    2.6190   28.9940 N.3   333  LYS333     -0.1245
     80  CA         0.3270    2.5650   30.0200 C.3   333  LYS333      0.1561
     81  C         -0.2910    1.1710   30.0530 C.2   333  LYS333      0.2260
     82  O         -1.0360    0.8280   30.9660 O.2   333  LYS333     -0.2867
     83  CB        -0.7640    3.6110   29.7230 C.3   333  LYS333      0.0271
     84  CG        -0.2740    5.0390   29.6730 C.3   333  LYS333      0.0035
     85  CD        -0.1340    5.6630   31.0650 C.3   333  LYS333      0.0206
     86  CE         0.4790    7.0680   30.9970 C.3   333  LYS333      0.1093
     87  NZ        -0.3670    8.0360   30.2310 N.3   333  LYS333     -0.1314
@<TRIPOS>BOND
     1    40    41    1
     2    44    41    1
     3    44    45    1
     4    41    42    1
     5    74    75    1
     6    46    45   ar
     7    46    48   ar
     8    45    47   ar
     9    48    50   ar
    10    47    49   ar
    11    42    52   am
    12    42    43    2
    13    52    53    1
    14    75    76    1
    15    75    78    1
    16    76    77    2
    17     1     2    1
    18    24    22    1
    19    57    56    1
    20    50    49   ar
    21    50    51    1
    22    22    21    1
    23     7     6   ar
    24    56    53    1
    25    56    58    1
    26    53    54    1
    27     6     8   ar
    28     6     5    1
    29     2     5    1
    30     2     3    1
    31    54    55    2
    32    17    18    1
    33    79    80    1
    34    21    18    1
    35    21    23    1
    36     9     3   am
    37     9    10    1
    38    18    19    1
    39     3     4    2
    40    84    83    1
    41    84    85    1
    42    83    80    1
    43    13    10    1
    44    13    14    1
    45    11    10    1
    46    11    12    2
    47    80    81    1
    48    81    82    2
    49    59    60    1
    50    87    86    1
    51    66    67    1
    52    66    65    1
    53    16    14   ar
    54    64    65    1
    55    64    63    1
    56    14    15   ar
    57    19    20    2
    58    19    25   am
    59    86    85    1
    60    60    63    1
    61    60    61    1
    62    25    26    1
    63    68    61   am
    64    68    69    1
    65    61    62    2
    66    72    73    1
    67    72    69    1
    68    26    27    1
    69    26    29    1
    70    32    33    1
    71    27    28    2
    72    69    70    1
    73    70    71    2
    74    39    37    1
    75    29    31    1
    76    29    30    1
    77    37    38    1
    78    37    36    1
    79    33    36    1
    80    33    34    1
    81    34    35    2
