@<TRIPOS>MOLECULE
tmp/3usfB01.pdb
 105 98 0 0 0
SMALL
GASTEIGER

@<TRIPOS>ATOM
      1  N          9.5110   18.2400  -19.7370 N.3   116  SER116     -0.1202
      2  CA         9.2650   17.2210  -18.7150 C.3   116  SER116      0.2020
      3  C         10.5650   16.5160  -18.3400 C.2   116  SER116      0.2619
      4  O         11.5870   16.6760  -19.0030 O.2   116  SER116     -0.2717
      5  CB         8.2500   16.1840  -19.2170 C.3   116  SER116      0.2103
      6  OG         8.7780   15.4020  -20.2820 O.3   116  SER116     -0.2182
      7  N         10.5310   15.7460  -17.2610 N.am  117  GLY117     -0.1942
      8  CA        11.7190   15.0200  -16.8710 C.3   117  GLY117      0.2014
      9  C         11.9770   13.9330  -17.9000 C.2   117  GLY117      0.2639
     10  O         13.1180   13.5160  -18.1010 O.2   117  GLY117     -0.2714
     11  N         10.9110   13.4870  -18.5660 N.am  118  THR118     -0.1950
     12  CA        11.0230   12.4370  -19.5700 C.3   118  THR118      0.1897
     13  C         11.7530   12.8980  -20.8240 C.2   118  THR118      0.2313
     14  O         12.5800   12.1620  -21.3580 O.2   118  THR118     -0.2863
     15  CB         9.6280   11.8690  -19.9410 C.3   118  THR118      0.1794
     16  OG1        9.1180   11.1160  -18.8340 O.3   118  THR118     -0.2208
     17  CG2        9.7060   10.9540  -21.1590 C.3   118  THR118      0.0378
     18  N         15.4840   13.0110  -20.0110 N.3   121  CYS121     -0.1235
     19  CA        16.1640   11.7170  -19.9940 C.3   121  CYS121      0.1677
     20  C         16.4050   11.1810  -21.4170 C.2   121  CYS121      0.2270
     21  O         17.4400   10.5640  -21.6840 O.2   121  CYS121     -0.2867
     22  CB        15.3710   10.7010  -19.1590 C.3   121  CYS121      0.0956
     23  SG        15.3200   11.0580  -17.3650 S.3   121  CYS121     -0.0801
     24  N         13.9650    4.9340  -11.9430 N.3   144  TYR144     -0.1227
     25  CA        13.0880    5.3840  -13.0160 C.3   144  TYR144      0.1736
     26  C         13.6090    6.6220  -13.7540 C.2   144  TYR144      0.2595
     27  O         13.9550    7.6250  -13.1290 O.2   144  TYR144     -0.2718
     28  CB        11.7000    5.6690  -12.4400 C.3   144  TYR144      0.0548
     29  CG        10.6830    6.1380  -13.4610 C.ar  144  TYR144     -0.0200
     30  CD1       10.2850    5.3100  -14.5180 C.ar  144  TYR144     -0.0009
     31  CD2       10.1110    7.4050  -13.3660 C.ar  144  TYR144     -0.0009
     32  CE1        9.3420    5.7370  -15.4480 C.ar  144  TYR144      0.0417
     33  CE2        9.1730    7.8380  -14.2870 C.ar  144  TYR144      0.0417
     34  CZ         8.7910    7.0040  -15.3250 C.ar  144  TYR144      0.1957
     35  OH         7.8600    7.4520  -16.2360 O.3   144  TYR144     -0.2866
     36  N         13.6630    6.5370  -15.0840 N.am  145  HIS145     -0.1961
     37  CA        14.1240    7.6420  -15.9340 C.3   145  HIS145      0.1787
     38  C         13.2040    7.7780  -17.1460 C.2   145  HIS145      0.2620
     39  O         13.6730    7.8770  -18.2830 O.2   145  HIS145     -0.2715
     40  CB        15.5510    7.3960  -16.4440 C.3   145  HIS145      0.0785
     41  CG        16.5190    6.9950  -15.3790 C.ar  145  HIS145      0.0821
     42  ND1       16.7870    5.6770  -15.0760 N.ar  145  HIS145     -0.2267
     43  CD2       17.2700    7.7360  -14.5310 C.ar  145  HIS145      0.1154
     44  CE1       17.6600    5.6240  -14.0870 C.ar  145  HIS145      0.1986
     45  NE2       17.9690    6.8590  -13.7370 N.ar  145  HIS145     -0.2212
     46  N         11.8970    7.7810  -16.9050 N.am  146  GLY146     -0.1954
     47  CA        10.9540    7.8880  -18.0020 C.3   146  GLY146      0.1869
     48  C         10.9020    6.5730  -18.7530 C.2   146  GLY146      0.2309
     49  O         11.3490    5.5440  -18.2460 O.2   146  GLY146     -0.2863
     50  N         19.6860    7.5220   -9.9660 N.3   181  GLU181     -0.1245
     51  CA        19.1210    8.5060   -9.0420 C.3   181  GLU181      0.1567
     52  C         20.1110    8.5100   -7.8690 C.2   181  GLU181      0.2260
     53  O         20.2170    7.5140   -7.1510 O.2   181  GLU181     -0.2867
     54  CB        17.7460    8.0570   -8.5290 C.3   181  GLU181      0.0388
     55  CG        16.6650    7.8740   -9.5860 C.3   181  GLU181      0.1160
     56  CD        15.3580    7.3710   -8.9940 C.2   181  GLU181      0.3649
     57  OE1       14.8570    8.0040   -8.0440 O.co2 181  GLU181     -0.2457
     58  OE2       14.8230    6.3470   -9.4720 O.co2 181  GLU181     -0.2457
     59  N         11.9430    6.4060   -6.4550 N.3   186  ASN186     -0.1240
     60  CA        10.9860    5.6680   -7.2820 C.3   186  ASN186      0.1653
     61  C         10.7790    4.1740   -7.0150 C.2   186  ASN186      0.2266
     62  O         10.2960    3.4410   -7.8760 O.2   186  ASN186     -0.2867
     63  CB        11.3160    5.9010   -8.7580 C.3   186  ASN186      0.1155
     64  CG        10.9080    7.2900   -9.2210 C.2   186  ASN186      0.2627
     65  OD1        9.7220    7.5660   -9.3970 O.2   186  ASN186     -0.2716
     66  ND2       11.8850    8.1760   -9.3970 N.am  186  ASN186     -0.0877
     67  N         20.2740   11.6170  -12.3900 N.3   214  ASP214     -0.1239
     68  CA        18.8980   11.9490  -12.7030 C.3   214  ASP214      0.1674
     69  C         18.3980   12.5770  -11.4070 C.2   214  ASP214      0.2266
     70  O         18.0060   11.8590  -10.4910 O.2   214  ASP214     -0.2867
     71  CB        18.0910   10.6810  -12.9910 C.3   214  ASP214      0.1410
     72  CG        16.6500   10.9790  -13.3880 C.2   214  ASP214      0.3668
     73  OD1       16.1420   12.0450  -12.9920 O.co2 214  ASP214     -0.2456
     74  OD2       16.0220   10.1480  -14.0840 O.co2 214  ASP214     -0.2456
     75  N         15.7590   14.6850  -11.0830 N.3   216  VAL216     -0.1231
     76  CA        14.4430   15.2620  -11.3170 C.3   216  VAL216      0.1692
     77  C         13.6740   15.3630   -9.9970 C.2   216  VAL216      0.2591
     78  O         12.9140   16.3080   -9.7870 O.2   216  VAL216     -0.2718
     79  CB        13.6260   14.4050  -12.3270 C.3   216  VAL216      0.0266
     80  CG1       12.1860   14.8940  -12.3930 C.3   216  VAL216      0.0020
     81  CG2       14.2620   14.4830  -13.7050 C.3   216  VAL216      0.0020
     82  N         13.8890   14.3970   -9.1070 N.am  217  MET217     -0.1979
     83  CA        13.2090   14.3810   -7.8170 C.3   217  MET217      0.1605
     84  C         14.0570   14.9250   -6.6570 C.2   217  MET217      0.2287
     85  O         13.5200   15.5010   -5.7080 O.2   217  MET217     -0.2864
     86  CB        12.7580   12.9540   -7.4900 C.3   217  MET217      0.0413
     87  CG        11.9140   12.8210   -6.2250 C.3   217  MET217      0.0598
     88  SD        11.3300   11.1220   -5.9720 S.3   217  MET217     -0.1393
     89  CE         9.9290   11.1010   -7.0920 C.3   217  MET217      0.0692
     90  N         10.3950   18.6550  -12.2180 N.3   242  LYS242     -0.1245
     91  CA         9.5490   18.9560  -11.0650 C.3   242  LYS242      0.1561
     92  C          9.6530   20.3600  -10.4640 C.2   242  LYS242      0.2260
     93  O          8.9720   21.2830  -10.9060 O.2   242  LYS242     -0.2867
     94  CB         9.8000   17.9310   -9.9670 C.3   242  LYS242      0.0271
     95  CG         9.3150   16.5480  -10.3210 C.3   242  LYS242      0.0035
     96  CD         9.7270   15.5640   -9.2490 C.3   242  LYS242      0.0206
     97  CE         9.0690   14.2200   -9.4660 C.3   242  LYS242      0.1093
     98  NZ         8.5290   14.1520  -10.8340 N.3   242  LYS242     -0.1314
     99  N          7.8850   21.5640  -16.7900 N.3   250  VAL250     -0.1245
    100  CA         9.2410   22.0000  -17.1480 C.3   250  VAL250      0.1561
    101  C         10.3050   20.9210  -16.9140 C.2   250  VAL250      0.2260
    102  O         10.1790   20.0910  -16.0200 O.2   250  VAL250     -0.2867
    103  CB         9.6820   23.2400  -16.3440 C.3   250  VAL250      0.0252
    104  CG1       11.0130   23.7450  -16.8770 C.3   250  VAL250      0.0019
    105  CG2        8.6350   24.3300  -16.4280 C.3   250  VAL250      0.0019
@<TRIPOS>BOND
     1    21    20    2
     2    20    19    1
     3    14    13    2
     4    17    15    1
     5    13    12    1
     6     6     5    1
     7    18    19    1
     8    19    22    1
     9    15    12    1
    10    15    16    1
    11     1     2    1
    12    12    11    1
    13     5     2    1
    14    22    23    1
    15     4     3    2
    16    48    49    2
    17    48    47    1
    18     2     3    1
    19    11     9   am
    20     3     7   am
    21    39    38    2
    22    10     9    2
    23    47    46    1
    24     9     8    1
    25     7     8    1
    26   100   101    1
    27   100    99    1
    28   100   103    1
    29    38    46   am
    30    38    37    1
    31   101   102    2
    32   104   103    1
    33    40    37    1
    34    40    41    1
    35   105   103    1
    36    35    34    1
    37    37    36    1
    38    32    34   ar
    39    32    30   ar
    40    41    42   ar
    41    41    43   ar
    42    34    33   ar
    43    36    26   am
    44    42    44   ar
    45    43    45   ar
    46    30    29   ar
    47    33    31   ar
    48    44    45   ar
    49    74    72   ar
    50    26    27    2
    51    26    25    1
    52    81    79    1
    53    29    31   ar
    54    29    28    1
    55    72    73   ar
    56    72    71    1
    57    25    28    1
    58    25    24    1
    59    71    68    1
    60    68    67    1
    61    68    69    1
    62    80    79    1
    63    79    76    1
    64    90    91    1
    65    69    70    2
    66    76    75    1
    67    76    77    1
    68    91    92    1
    69    91    94    1
    70    93    92    2
    71    98    97    1
    72    95    94    1
    73    95    96    1
    74    77    78    2
    75    77    82   am
    76    50    51    1
    77    55    56    1
    78    55    54    1
    79    58    56   ar
    80    97    96    1
    81    65    64    2
    82    66    64   am
    83    64    63    1
    84    82    83    1
    85    51    54    1
    86    51    52    1
    87    56    57   ar
    88    63    60    1
    89    62    61    2
    90    52    53    2
    91    83    86    1
    92    83    84    1
    93    86    87    1
    94    60    61    1
    95    60    59    1
    96    89    88    1
    97    84    85    2
    98    87    88    1
