@<TRIPOS>MOLECULE
tmp/3usfA01.pdb
 90 84 0 0 0
SMALL
GASTEIGER

@<TRIPOS>ATOM
      1  N         15.2930   25.6940  -28.7430 N.3    23  SER23      -0.1217
      2  CA        14.8590   24.8710  -29.8740 C.3    23  SER23       0.1889
      3  C         15.5820   25.3590  -31.1410 C.2    23  SER23       0.2288
      4  O         15.5080   26.5380  -31.4850 O.2    23  SER23      -0.2866
      5  CB        13.3400   24.9770  -30.0560 C.3    23  SER23       0.2089
      6  OG        12.8700   23.9890  -30.9570 O.3    23  SER23      -0.2183
      7  N         14.9640   25.3340  -34.1800 N.3    25  VAL25      -0.1231
      8  CA        14.1070   26.0270  -35.1290 C.3    25  VAL25       0.1692
      9  C         14.1710   27.5480  -34.9980 C.2    25  VAL25       0.2591
     10  O         13.9370   28.2640  -35.9680 O.2    25  VAL25      -0.2718
     11  CB        12.6500   25.5580  -34.9560 C.3    25  VAL25       0.0266
     12  CG1       11.7330   26.4230  -35.7600 C.3    25  VAL25       0.0020
     13  CG2       12.5200   24.0990  -35.3900 C.3    25  VAL25       0.0020
     14  N         14.4990   28.0350  -33.8030 N.am   26  ARG26      -0.1980
     15  CA        14.5760   29.4730  -33.5460 C.3    26  ARG26       0.1597
     16  C         15.9300   30.0530  -33.9580 C.2    26  ARG26       0.2287
     17  O         16.1990   31.2370  -33.7570 O.2    26  ARG26      -0.2864
     18  CB        14.3250   29.7390  -32.0560 C.3    26  ARG26       0.0334
     19  CG        12.9990   29.1850  -31.5570 C.3    26  ARG26       0.0492
     20  CD        12.8880   29.1840  -30.0320 C.3    26  ARG26       0.2205
     21  NE        11.7420   28.3880  -29.5860 N.pl3  26  ARG26      -0.0865
     22  CZ        11.3580   28.2390  -28.3200 C.cat  26  ARG26       0.5346
     23  NH1       12.0190   28.8330  -27.3380 N.pl3  26  ARG26       0.1354
     24  NH2       10.3080   27.4800  -28.0330 N.pl3  26  ARG26       0.1354
     25  N          4.2610   28.8380  -33.4890 N.3    61  TRP61      -0.1241
     26  CA         4.3170   27.5910  -34.2420 C.3    61  TRP61       0.1605
     27  C          3.0430   26.7580  -34.2990 C.2    61  TRP61       0.2264
     28  O          3.1090   25.5440  -34.4760 O.2    61  TRP61      -0.2867
     29  CB         5.4960   26.7370  -33.7560 C.3    61  TRP61       0.0550
     30  CG         6.7970   27.4770  -33.8620 C.ar   61  TRP61       0.0003
     31  CD1        7.3720   28.2650  -32.9040 C.ar   61  TRP61       0.0946
     32  CD2        7.6120   27.6180  -35.0370 C.ar   61  TRP61       0.0152
     33  NE1        8.4850   28.8910  -33.4130 N.ar   61  TRP61      -0.2442
     34  CE2        8.6530   28.5110  -34.7190 C.ar   61  TRP61       0.0810
     35  CE3        7.5560   27.0790  -36.3300 C.ar   61  TRP61       0.0012
     36  CZ2        9.6340   28.8790  -35.6490 C.ar   61  TRP61       0.0191
     37  CZ3        8.5300   27.4450  -37.2530 C.ar   61  TRP61       0.0001
     38  CH2        9.5530   28.3360  -36.9070 C.ar   61  TRP61       0.0015
     39  N          8.1360   15.0970  -39.8800 N.3   144  TYR144     -0.1241
     40  CA         8.7220   15.1970  -38.5390 C.3   144  TYR144      0.1605
     41  C          7.7120   14.8180  -37.4450 C.2   144  TYR144      0.2264
     42  O          6.6020   15.3340  -37.4200 O.2   144  TYR144     -0.2867
     43  CB         9.2360   16.6270  -38.3150 C.3   144  TYR144      0.0534
     44  CG         9.8200   16.8780  -36.9440 C.ar  144  TYR144     -0.0201
     45  CD1       11.0280   16.2950  -36.5520 C.ar  144  TYR144     -0.0009
     46  CD2        9.1570   17.6960  -36.0300 C.ar  144  TYR144     -0.0009
     47  CE1       11.5570   16.5230  -35.2830 C.ar  144  TYR144      0.0417
     48  CE2        9.6770   17.9290  -34.7670 C.ar  144  TYR144      0.0417
     49  CZ        10.8700   17.3440  -34.4010 C.ar  144  TYR144      0.1957
     50  OH        11.3720   17.5970  -33.1480 O.3   144  TYR144     -0.2866
     51  N         11.5060   19.7130  -40.6890 N.3   157  SER157     -0.1217
     52  CA        11.6250   20.7510  -39.6720 C.3   157  SER157      0.1889
     53  C         13.0630   21.2810  -39.5650 C.2   157  SER157      0.2288
     54  O         13.7200   21.5130  -40.5790 O.2   157  SER157     -0.2866
     55  CB        11.1600   20.2010  -38.3210 C.3   157  SER157      0.2089
     56  OG        11.1450   21.2130  -37.3330 O.3   157  SER157     -0.2183
     57  N          6.1320   20.2350  -42.2930 N.3   211  ASN211     -0.1240
     58  CA         7.5390   20.3480  -41.8940 C.3   211  ASN211      0.1653
     59  C          8.6180   20.2020  -42.9670 C.2   211  ASN211      0.2266
     60  O          9.7360   19.7730  -42.6830 O.2   211  ASN211     -0.2867
     61  CB         7.8280   19.3680  -40.7600 C.3   211  ASN211      0.1155
     62  CG         7.1250   19.7500  -39.4830 C.2   211  ASN211      0.2627
     63  OD1        7.4640   20.7570  -38.8560 O.2   211  ASN211     -0.2716
     64  ND2        6.1270   18.9560  -39.0910 N.am  211  ASN211     -0.0877
     65  N          0.0540   19.2630  -35.6900 N.3   242  MET242     -0.1245
     66  CA         0.0220   20.5810  -36.3170 C.3   242  MET242      0.1570
     67  C         -1.2930   20.8640  -37.0550 C.2   242  MET242      0.2261
     68  O         -1.7870   21.9920  -37.0410 O.2   242  MET242     -0.2867
     69  CB         1.2020   20.7150  -37.2880 C.3   242  MET242      0.0387
     70  CG         1.3050   22.0640  -37.9890 C.3   242  MET242      0.0595
     71  SD         2.7630   22.2260  -39.0750 S.3   242  MET242     -0.1393
     72  CE         4.0200   22.7100  -37.8680 C.3   242  MET242      0.0692
     73  N         -0.0490   21.1570  -29.6020 N.3   267  LYS267     -0.1245
     74  CA        -0.1920   22.5840  -29.8650 C.3   267  LYS267      0.1561
     75  C         -1.5310   23.1930  -29.4360 C.2   267  LYS267      0.2260
     76  O         -1.7300   23.5120  -28.2640 O.2   267  LYS267     -0.2867
     77  CB         0.0650   22.8480  -31.3490 C.3   267  LYS267      0.0271
     78  CG         1.5250   22.6340  -31.7560 C.3   267  LYS267      0.0035
     79  CD         1.7180   22.7870  -33.2620 C.3   267  LYS267      0.0206
     80  CE         3.1980   22.8780  -33.6570 C.3   267  LYS267      0.1093
     81  NZ         4.0100   21.7070  -33.2550 N.3   267  LYS267     -0.1314
     82  N          9.0850   25.4930  -43.5100 N.3   400  GLU400     -0.1245
     83  CA         8.0370   25.5580  -42.4900 C.3   400  GLU400      0.1567
     84  C          6.7930   26.2460  -43.0630 C.2   400  GLU400      0.2260
     85  O          6.8950   27.2550  -43.7640 O.2   400  GLU400     -0.2867
     86  CB         8.5100   26.3360  -41.2540 C.3   400  GLU400      0.0388
     87  CG         9.5890   25.6650  -40.4010 C.3   400  GLU400      0.1160
     88  CD         9.1350   24.3660  -39.7360 C.2   400  GLU400      0.3649
     89  OE1        7.9170   24.1910  -39.4960 O.co2 400  GLU400     -0.2457
     90  OE2       10.0120   23.5200  -39.4370 O.co2 400  GLU400     -0.2457
@<TRIPOS>BOND
     1    85    84    2
     2    82    83    1
     3    84    83    1
     4    59    60    2
     5    59    58    1
     6    83    86    1
     7    57    58    1
     8    58    61    1
     9    86    87    1
    10    61    62    1
    11    51    52    1
    12    54    53    2
    13    87    88    1
    14    39    40    1
    15    88    89   ar
    16    88    90   ar
    17    52    53    1
    18    52    55    1
    19    62    64   am
    20    62    63    2
    21    71    70    1
    22    71    72    1
    23    40    43    1
    24    40    41    1
    25    55    56    1
    26    43    44    1
    27    70    69    1
    28    41    42    2
    29    69    66    1
    30    37    38   ar
    31    37    35   ar
    32    67    68    2
    33    67    66    1
    34    44    45   ar
    35    44    46   ar
    36    38    36   ar
    37    45    47   ar
    38    35    32   ar
    39    66    65    1
    40    46    48   ar
    41    10     9    2
    42    12    11    1
    43    36    34   ar
    44    13    11    1
    45    47    49   ar
    46     8     9    1
    47     8    11    1
    48     8     7    1
    49    32    34   ar
    50    32    30   ar
    51     9    14   am
    52    48    49   ar
    53    34    33   ar
    54    28    27    2
    55    49    50    1
    56    27    26    1
    57    26    29    1
    58    26    25    1
    59    16    17    2
    60    16    15    1
    61    30    29    1
    62    30    31   ar
    63    14    15    1
    64    80    79    1
    65    80    81    1
    66    15    18    1
    67    33    31   ar
    68    79    78    1
    69    18    19    1
    70    78    77    1
    71    19    20    1
    72     4     3    2
    73    77    74    1
    74     3     2    1
    75     6     5    1
    76     5     2    1
    77    20    21    1
    78     2     1    1
    79    74    73    1
    80    74    75    1
    81    21    22    2
    82    75    76    2
    83    22    24    1
    84    22    23    1
