@<TRIPOS>MOLECULE
tmp/3usnA00.pdb
 155 157 0 0 0
SMALL
GASTEIGER

@<TRIPOS>ATOM
      1  N        -11.3690   -6.4800    7.7980 N.3     4  PHE4       -0.1228
      2  CA       -12.1190   -5.3280    8.3650 C.3     4  PHE4        0.1721
      3  C        -13.6310   -5.7600    8.6990 C.2     4  PHE4        0.2437
      4  O        -14.1340   -6.6710    8.0200 O.2     4  PHE4       -0.2733
      5  CB       -12.0860   -4.1320    7.3860 C.3     4  PHE4        0.0547
      6  CG       -10.7520   -3.5430    6.9290 C.ar    4  PHE4       -0.0202
      7  CD1      -10.0540   -2.6260    7.7230 C.ar    4  PHE4       -0.0042
      8  CD2      -10.1990   -3.9450    5.7040 C.ar    4  PHE4       -0.0042
      9  CE1       -8.8060   -2.1740    7.3400 C.ar    4  PHE4       -0.0003
     10  CE2       -8.9580   -3.4750    5.2850 C.ar    4  PHE4       -0.0003
     11  CZ        -8.2530   -2.6070    6.1470 C.ar    4  PHE4       -0.0000
     12  N        -14.3860   -5.1500    9.6610 N.am    5  PRO5       -0.2729
     13  CA       -15.7890   -5.5500    9.9240 C.3     5  PRO5        0.1401
     14  C        -16.7240   -5.6360    8.7080 C.2     5  PRO5        0.2269
     15  O        -16.8520   -4.6470    8.0120 O.2     5  PRO5       -0.2865
     16  CB       -16.2130   -4.5240   10.9810 C.3     5  PRO5        0.0296
     17  CG       -15.2460   -3.3540   10.9050 C.3     5  PRO5        0.0237
     18  CD       -13.9410   -4.0570   10.5070 C.3     5  PRO5        0.0939
     19  N         -8.9770   12.1310   10.5000 N.3    73  TYR73      -0.1241
     20  CA        -7.8610   11.7040   11.3580 C.3    73  TYR73       0.1605
     21  C         -6.5750   12.6190   11.2850 C.2    73  TYR73       0.2264
     22  O         -5.7870   12.3610   10.3920 O.2    73  TYR73      -0.2867
     23  CB        -7.5040   10.2190   11.0320 C.3    73  TYR73       0.0534
     24  CG        -8.5180    9.1200   11.2950 C.ar   73  TYR73      -0.0201
     25  CD1       -9.4380    8.8600   10.3030 C.ar   73  TYR73      -0.0009
     26  CD2       -8.4950    8.3150   12.4510 C.ar   73  TYR73      -0.0009
     27  CE1      -10.3520    7.7980   10.4530 C.ar   73  TYR73       0.0417
     28  CE2       -9.3550    7.1980   12.5750 C.ar   73  TYR73       0.0417
     29  CZ       -10.2810    6.9420   11.5610 C.ar   73  TYR73       0.1957
     30  OH       -11.1710    5.9370   11.7230 O.3    73  TYR73      -0.2866
     31  N          5.1490    5.7970   14.4200 N.3    80  ASN80      -0.1225
     32  CA         3.7280    5.1450   14.4820 C.3    80  ASN80       0.1785
     33  C          2.9040    5.1350   13.1340 C.2    80  ASN80       0.2597
     34  O          3.1660    4.2740   12.3190 O.2    80  ASN80      -0.2718
     35  CB         3.0340    5.7110   15.7820 C.3    80  ASN80       0.1169
     36  CG         3.7160    5.5850   17.1580 C.2    80  ASN80       0.2627
     37  OD1        3.7440    4.5150   17.7410 O.2    80  ASN80      -0.2716
     38  ND2        4.2500    6.6540   17.6830 N.am   80  ASN80      -0.0877
     39  N          1.9390    6.0400   12.9640 N.am   81  VAL81      -0.1966
     40  CA         1.0220    6.1200   11.7660 C.3    81  VAL81       0.1727
     41  C          1.8340    6.3040   10.4260 C.2    81  VAL81       0.2616
     42  O          2.5380    7.3070   10.2830 O.2    81  VAL81      -0.2715
     43  CB         0.0230    7.2950   12.0170 C.3    81  VAL81       0.0290
     44  CG1       -0.9460    7.4530   10.8640 C.3    81  VAL81       0.0023
     45  CG2       -0.8220    7.1830   13.2980 C.3    81  VAL81       0.0023
     46  N          1.6400    5.3420    9.5340 N.am   82  LEU82      -0.1963
     47  CA         2.1880    5.3880    8.1670 C.3    82  LEU82       0.1728
     48  C          1.1640    6.2860    7.4160 C.2    82  LEU82       0.2616
     49  O          1.5140    7.4180    7.1080 O.2    82  LEU82      -0.2715
     50  CB         2.3530    3.9380    7.6060 C.3    82  LEU82       0.0311
     51  CG         3.4050    3.0530    8.3760 C.3    82  LEU82       0.0022
     52  CD1        3.3770    1.5620    7.9720 C.3    82  LEU82       0.0001
     53  CD2        4.8810    3.5340    8.3630 C.3    82  LEU82       0.0001
     54  N         -0.1100    5.9660    7.2300 N.am   83  ALA83      -0.1963
     55  CA        -1.0740    6.8170    6.5880 C.3    83  ALA83       0.1728
     56  C         -2.4290    6.6080    7.3080 C.2    83  ALA83       0.2616
     57  O         -2.6190    5.7900    8.2210 O.2    83  ALA83      -0.2715
     58  CB        -1.3310    6.1720    5.2320 C.3    83  ALA83       0.0334
     59  N         -3.3470    7.4050    6.8190 N.am   84  HIS84      -0.1959
     60  CA        -4.7520    6.9410    6.9740 C.3    84  HIS84       0.1787
     61  C         -4.7490    6.3070    5.4910 C.2    84  HIS84       0.2620
     62  O         -4.5430    6.8840    4.3300 O.2    84  HIS84      -0.2715
     63  CB        -5.9010    7.8870    7.4210 C.3    84  HIS84       0.0785
     64  CG        -5.8190    9.3650    7.1280 C.ar   84  HIS84       0.0821
     65  ND1       -5.5590   10.3700    8.0250 N.ar   84  HIS84      -0.2267
     66  CD2       -6.4030    9.9340    6.0030 C.ar   84  HIS84       0.1154
     67  CE1       -5.9480   11.4980    7.3460 C.ar   84  HIS84       0.1986
     68  NE2       -6.5400   11.3570    6.1380 N.ar   84  HIS84      -0.2212
     69  N         -4.5480    4.9650    5.6540 N.am   85  ALA85      -0.1963
     70  CA        -4.3550    4.0170    4.5590 C.3    85  ALA85       0.1728
     71  C         -5.8930    3.5910    4.3220 C.2    85  ALA85       0.2616
     72  O         -6.2990    2.6930    5.0730 O.2    85  ALA85      -0.2715
     73  CB        -3.4260    2.7770    4.7620 C.3    85  ALA85       0.0334
     74  N         -6.7420    4.1340    3.3840 N.am   86  TYR86      -0.1960
     75  CA        -8.1890    3.6890    3.4560 C.3    86  TYR86       0.1771
     76  C         -8.6330    2.5130    2.4960 C.2    86  TYR86       0.2619
     77  O         -8.3960    2.6020    1.2780 O.2    86  TYR86      -0.2715
     78  CB        -9.1120    4.9080    3.2480 C.3    86  TYR86       0.0574
     79  CG        -9.0930    6.0660    4.2440 C.ar   86  TYR86      -0.0198
     80  CD1       -9.5670    5.9140    5.5650 C.ar   86  TYR86      -0.0009
     81  CD2       -8.9390    7.3530    3.7630 C.ar   86  TYR86      -0.0009
     82  CE1       -9.7590    7.0370    6.3780 C.ar   86  TYR86       0.0417
     83  CE2       -9.1360    8.4630    4.6050 C.ar   86  TYR86       0.0417
     84  CZ        -9.6130    8.2920    5.8790 C.ar   86  TYR86       0.1957
     85  OH        -9.8470    9.3640    6.7030 O.3    86  TYR86      -0.2866
     86  N         -9.3430    1.5580    3.1620 N.am   87  ALA87      -0.1977
     87  CA        -9.8860    0.2640    2.6990 C.3    87  ALA87       0.1597
     88  C        -11.0770    0.1730    1.6730 C.2    87  ALA87       0.2287
     89  O        -11.7370    1.1920    1.4910 O.2    87  ALA87      -0.2864
     90  CB       -10.3430   -0.4290    4.0580 C.3    87  ALA87       0.0319
     91  N        -13.1560    5.5670    1.4200 N.3    93  ASN93      -0.1240
     92  CA       -12.7110    4.1340    1.5030 C.3    93  ASN93       0.1653
     93  C        -12.0090    3.7030    0.1380 C.2    93  ASN93       0.2266
     94  O        -12.5700    4.0040   -0.9060 O.2    93  ASN93      -0.2867
     95  CB       -14.0120    3.3390    1.8040 C.3    93  ASN93       0.1155
     96  CG       -14.3180    3.2280    3.2780 C.2    93  ASN93       0.2627
     97  OD1      -15.2510    3.8760    3.7640 O.2    93  ASN93      -0.2716
     98  ND2      -13.8060    2.1950    3.9240 N.am   93  ASN93      -0.0877
     99  N          2.0860   -2.9620    2.4430 N.3   119  HIS119     -0.1226
    100  CA         1.1940   -3.0360    3.6440 C.3   119  HIS119      0.1752
    101  C          0.0080   -1.9840    3.6140 C.2   119  HIS119      0.2595
    102  O         -1.1550   -2.3680    3.8040 O.2   119  HIS119     -0.2718
    103  CB         2.2300   -2.8730    4.7980 C.3   119  HIS119      0.0759
    104  CG         1.6860   -2.7920    6.2170 C.ar  119  HIS119      0.0818
    105  ND1        1.3720   -3.8700    7.0580 N.ar  119  HIS119     -0.2268
    106  CD2        1.3790   -1.5610    6.8410 C.ar  119  HIS119      0.1154
    107  CE1        1.0030   -3.1620    8.1740 C.ar  119  HIS119      0.1986
    108  NE2        0.9940   -1.7720    8.1500 N.ar  119  HIS119     -0.2212
    109  N          0.2970   -0.6890    3.3420 N.am  120  GLU120     -0.1979
    110  CA        -0.7980    0.3250    3.2000 C.3   120  GLU120      0.1602
    111  C         -1.6780    0.1210    1.9320 C.2   120  GLU120      0.2287
    112  O         -2.8780    0.3010    2.0740 O.2   120  GLU120     -0.2864
    113  CB        -0.1740    1.7420    3.3450 C.3   120  GLU120      0.0415
    114  CG         0.4800    2.1530    4.7020 C.3   120  GLU120      0.1163
    115  CD        -0.3310    1.8950    5.9870 C.2   120  GLU120      0.3649
    116  OE1       -0.5950    0.8080    6.4480 O.co2 120  GLU120     -0.2457
    117  OE2       -0.6370    3.0060    6.6790 O.co2 120  GLU120     -0.2457
    118  N         -3.9770   -2.6660    3.0980 N.3   123  HIS123     -0.1241
    119  CA        -5.0690   -2.0160    3.8490 C.3   123  HIS123      0.1621
    120  C         -6.0460   -1.4130    2.8190 C.2   123  HIS123      0.2264
    121  O         -7.2420   -1.6760    3.0080 O.2   123  HIS123     -0.2867
    122  CB        -4.6210   -0.9970    4.8950 C.3   123  HIS123      0.0745
    123  CG        -4.1720   -1.4980    6.2900 C.ar  123  HIS123      0.0817
    124  ND1       -5.0300   -2.0050    7.2510 N.ar  123  HIS123     -0.2268
    125  CD2       -2.8250   -1.6630    6.7290 C.ar  123  HIS123      0.1154
    126  CE1       -4.1060   -2.4600    8.1370 C.ar  123  HIS123      0.1986
    127  NE2       -2.7660   -2.2570    7.9970 N.ar  123  HIS123     -0.2212
    128  N         -6.7490   -6.5920    6.8830 N.3   128  PHE128     -0.1227
    129  CA        -6.5070   -5.6760    8.0500 C.3   128  PHE128      0.1736
    130  C         -5.1650   -6.0400    8.7670 C.2   128  PHE128      0.2595
    131  O         -4.1640   -5.6240    8.2270 O.2   128  PHE128     -0.2718
    132  CB        -7.8740   -5.7040    8.8460 C.3   128  PHE128      0.0547
    133  CG        -7.9550   -4.9750   10.2020 C.ar  128  PHE128     -0.0202
    134  CD1       -7.6010   -3.6150   10.2300 C.ar  128  PHE128     -0.0042
    135  CD2       -8.4980   -5.6150   11.3190 C.ar  128  PHE128     -0.0042
    136  CE1       -7.8020   -2.9200   11.4270 C.ar  128  PHE128     -0.0003
    137  CE2       -8.6890   -4.9110   12.5000 C.ar  128  PHE128     -0.0003
    138  CZ        -8.3310   -3.5760   12.5680 C.ar  128  PHE128     -0.0000
    139  N         -5.1800   -6.7310    9.9400 N.am  129  HIS129     -0.1975
    140  CA        -3.9570   -7.0420   10.7410 C.3   129  HIS129      0.1656
    141  C         -3.7470   -8.5250   11.0870 C.2   129  HIS129      0.2291
    142  O         -4.5500   -9.1170   11.8000 O.2   129  HIS129     -0.2864
    143  CB        -3.9150   -6.1610   12.0100 C.3   129  HIS129      0.0771
    144  CG        -3.5790   -4.6730   11.7600 C.ar  129  HIS129      0.0820
    145  ND1       -4.3340   -3.5860   12.2560 N.ar  129  HIS129     -0.2267
    146  CD2       -2.4250   -4.2050   11.1660 C.ar  129  HIS129      0.1154
    147  CE1       -3.5100   -2.5320   11.8610 C.ar  129  HIS129      0.1986
    148  NE2       -2.3550   -2.8220   11.1990 N.ar  129  HIS129     -0.2212
    149  N          0.9170   -5.0640   12.8560 N.3   139  PRO139     -0.2116
    150  CA         0.7340   -3.6440   13.3080 C.3   139  PRO139      0.1372
    151  C          1.9450   -2.6400   13.3450 C.2   139  PRO139      0.2244
    152  O          1.7230   -1.4210   13.2490 O.2   139  PRO139     -0.2868
    153  CB         0.0630   -3.8300   14.6620 C.3   139  PRO139      0.0268
    154  CG        -0.7150   -5.1810   14.6080 C.3   139  PRO139      0.0207
    155  CD         0.2140   -6.0450   13.7390 C.3   139  PRO139      0.0892
@<TRIPOS>BOND
     1    94    93    2
     2    93    92    1
     3    77    76    2
     4    91    92    1
     5    89    88    2
     6    92    95    1
     7    88    87    1
     8    95    96    1
     9   111   112    2
    10   111   110    1
    11    99   100    1
    12    76    86   am
    13    76    75    1
    14    87    86    1
    15    87    90    1
    16   120   121    2
    17   120   119    1
    18   118   119    1
    19   110   109    1
    20   110   113    1
    21    78    75    1
    22    78    79    1
    23    96    97    2
    24    96    98   am
    25   109   101   am
    26   113   114    1
    27    74    75    1
    28    74    71   am
    29   101   100    1
    30   101   102    2
    31   100   103    1
    32    81    79   ar
    33    81    83   ar
    34   119   122    1
    35    79    80   ar
    36    71    70    1
    37    71    72    2
    38    62    61    2
    39    70    73    1
    40    70    69    1
    41    83    84   ar
    42   114   115    1
    43   103   104    1
    44   122   123    1
    45    58    55    1
    46    10     8   ar
    47    10    11   ar
    48    61    69   am
    49    61    60    1
    50    80    82   ar
    51     8     6   ar
    52    84    82   ar
    53    84    85    1
    54   115   116   ar
    55   115   117   ar
    56    66    68   ar
    57    66    64   ar
    58    68    67   ar
    59    11     9   ar
    60   104   106   ar
    61   104   105   ar
    62   123   125   ar
    63   123   124   ar
    64    55    54    1
    65    55    56    1
    66   125   127   ar
    67    59    60    1
    68    59    56   am
    69   106   108   ar
    70   128   129    1
    71     6     5    1
    72     6     7   ar
    73    60    63    1
    74   105   107   ar
    75    49    48    2
    76    64    63    1
    77    64    65   ar
    78    54    48   am
    79   124   126   ar
    80    56    57    2
    81     9     7   ar
    82    67    65   ar
    83     5     2    1
    84    48    47    1
    85    50    47    1
    86    50    51    1
    87     1     2    1
    88    52    51    1
    89   127   126   ar
    90    15    14    2
    91     4     3    2
    92   129   130    1
    93   129   132    1
    94   108   107   ar
    95    47    46    1
    96   131   130    2
    97    53    51    1
    98     2     3    1
    99     3    12   am
   100    14    13    1
   101   130   139   am
   102   132   133    1
   103    46    41   am
   104    12    13    1
   105    12    18    1
   106    13    16    1
   107   139   140    1
   108   133   134   ar
   109   133   135   ar
   110   134   136   ar
   111    42    41    2
   112    25    27   ar
   113    25    24   ar
   114    22    21    2
   115    41    40    1
   116    27    29   ar
   117    19    20    1
   118    18    17    1
   119   140   141    1
   120   140   143    1
   121    44    43    1
   122    17    16    1
   123    23    24    1
   124    23    20    1
   125   141   142    2
   126   146   148   ar
   127   146   144   ar
   128   148   147   ar
   129    21    20    1
   130    24    26   ar
   131   135   137   ar
   132   136   138   ar
   133    29    30    1
   134    29    28   ar
   135   144   143    1
   136   144   145   ar
   137    40    43    1
   138    40    39    1
   139   147   145   ar
   140    43    45    1
   141    34    33    2
   142    26    28   ar
   143   137   138   ar
   144   149   150    1
   145   149   155    1
   146    39    33   am
   147    33    32    1
   148   152   151    2
   149   150   151    1
   150   150   153    1
   151   155   154    1
   152    31    32    1
   153    32    35    1
   154   154   153    1
   155    35    36    1
   156    36    38   am
   157    36    37    2
