@<TRIPOS>MOLECULE
tmp/3uspA06.pdb
 141 136 0 0 0
SMALL
GASTEIGER

@<TRIPOS>ATOM
      1  N         29.0830   28.2390   15.8430 N.3    21  LEU21      -0.1245
      2  CA        29.1370   26.7910   15.9990 C.3    21  LEU21       0.1561
      3  C         27.7710   26.2190   16.3640 C.2    21  LEU21       0.2260
      4  O         27.4940   25.0470   16.1160 O.2    21  LEU21      -0.2867
      5  CB        30.1660   26.4090   17.0650 C.3    21  LEU21       0.0270
      6  CG        31.5830   26.9470   16.8470 C.3    21  LEU21       0.0019
      7  CD1       32.4770   26.6190   18.0330 C.3    21  LEU21       0.0001
      8  CD2       32.1750   26.4060   15.5530 C.3    21  LEU21       0.0001
      9  N         26.9350   22.9480   14.4110 N.3    25  LEU25      -0.1231
     10  CA        27.3080   21.8370   15.2840 C.3    25  LEU25       0.1693
     11  C         26.1940   21.4520   16.2520 C.2    25  LEU25       0.2591
     12  O         25.8160   20.2840   16.3440 O.2    25  LEU25      -0.2718
     13  CB        28.5840   22.1660   16.0650 C.3    25  LEU25       0.0284
     14  CG        29.8970   22.2070   15.2820 C.3    25  LEU25       0.0019
     15  CD1       31.0530   22.5740   16.2010 C.3    25  LEU25       0.0001
     16  CD2       30.1550   20.8740   14.5960 C.3    25  LEU25       0.0001
     17  N         25.6750   22.4420   16.9710 N.am   26  ARG26      -0.1980
     18  CA        24.6800   22.2010   18.0100 C.3    26  ARG26       0.1597
     19  C         23.3010   21.8640   17.4380 C.2    26  ARG26       0.2287
     20  O         22.6820   20.8740   17.8360 O.2    26  ARG26      -0.2864
     21  CB        24.5810   23.4140   18.9390 C.3    26  ARG26       0.0334
     22  CG        23.9560   23.1140   20.2930 C.3    26  ARG26       0.0492
     23  CD        23.8350   24.3680   21.1460 C.3    26  ARG26       0.2205
     24  NE        23.5580   24.0500   22.5440 N.pl3  26  ARG26      -0.0865
     25  CZ        22.3460   23.8100   23.0350 C.cat  26  ARG26       0.5346
     26  NH1       21.2850   23.8510   22.2420 N.pl3  26  ARG26       0.1354
     27  NH2       22.1960   23.5260   24.3220 N.pl3  26  ARG26       0.1354
     28  N         20.8430   18.6530   18.2390 N.3    30  GLN30      -0.1245
     29  CA        19.6240   18.9010   19.0030 C.3    30  GLN30       0.1566
     30  C         18.3780   18.4470   18.2480 C.2    30  GLN30       0.2260
     31  O         17.4890   17.8160   18.8180 O.2    30  GLN30      -0.2867
     32  CB        19.5130   20.3820   19.3690 C.3    30  GLN30       0.0367
     33  CG        20.6130   20.8660   20.2970 C.3    30  GLN30       0.0905
     34  CD        20.5960   20.1550   21.6340 C.2    30  GLN30       0.2608
     35  OE1       19.5330   19.8280   22.1620 O.2    30  GLN30      -0.2717
     36  NE2       21.7770   19.9020   22.1860 N.am   30  GLN30      -0.0878
     37  N         35.5330   27.9090   26.8100 N.3   103  TYR103     -0.1227
     38  CA        35.5470   26.6390   26.0790 C.3   103  TYR103      0.1736
     39  C         35.2160   26.8130   24.5980 C.2   103  TYR103      0.2595
     40  O         35.7200   26.0770   23.7410 O.2   103  TYR103     -0.2718
     41  CB        34.6150   25.6070   26.7290 C.3   103  TYR103      0.0548
     42  CG        33.1460   25.9700   26.7100 C.ar  103  TYR103     -0.0200
     43  CD1       32.3280   25.5920   25.6500 C.ar  103  TYR103     -0.0009
     44  CD2       32.5690   26.6720   27.7630 C.ar  103  TYR103     -0.0009
     45  CE1       30.9820   25.9150   25.6360 C.ar  103  TYR103      0.0417
     46  CE2       31.2270   26.9960   27.7550 C.ar  103  TYR103      0.0417
     47  CZ        30.4390   26.6160   26.6910 C.ar  103  TYR103      0.1957
     48  OH        29.1000   26.9400   26.6810 O.3   103  TYR103     -0.2866
     49  N         34.3660   27.7910   24.3060 N.am  104  TYR104     -0.1976
     50  CA        33.9640   28.0740   22.9340 C.3   104  TYR104      0.1639
     51  C         35.1980   28.3280   22.0770 C.2   104  TYR104      0.2290
     52  O         35.3500   27.7550   20.9950 O.2   104  TYR104     -0.2864
     53  CB        33.0390   29.2920   22.8930 C.3   104  TYR104      0.0560
     54  CG        32.2730   29.4530   21.5980 C.ar  104  TYR104     -0.0198
     55  CD1       31.0140   28.8910   21.4410 C.ar  104  TYR104     -0.0009
     56  CD2       32.8030   30.1770   20.5380 C.ar  104  TYR104     -0.0009
     57  CE1       30.3050   29.0380   20.2630 C.ar  104  TYR104      0.0417
     58  CE2       32.1030   30.3300   19.3560 C.ar  104  TYR104      0.0417
     59  CZ        30.8550   29.7590   19.2240 C.ar  104  TYR104      0.1957
     60  OH        30.1530   29.9090   18.0490 O.3   104  TYR104     -0.2866
     61  N         37.0620   25.0570   21.3170 N.3   107  ILE107     -0.1245
     62  CA        36.4400   24.2950   20.2340 C.3   107  ILE107      0.1561
     63  C         36.7540   24.9430   18.8820 C.2   107  ILE107      0.2260
     64  O         37.0680   24.2630   17.8940 O.2   107  ILE107     -0.2867
     65  CB        34.9160   24.1960   20.4170 C.3   107  ILE107      0.0252
     66  CG1       34.5860   23.5890   21.7820 C.3   107  ILE107      0.0019
     67  CG2       34.2960   23.3780   19.2960 C.3   107  ILE107      0.0019
     68  CD1       33.1040   23.4920   22.0640 C.3   107  ILE107      0.0001
     69  N         20.8290   29.7420   22.8360 N.3   247  PHE247     -0.1241
     70  CA        22.2230   29.5900   22.4380 C.3   247  PHE247      0.1605
     71  C         22.5040   30.1730   21.0530 C.2   247  PHE247      0.2264
     72  O         23.4820   30.8950   20.8640 O.2   247  PHE247     -0.2867
     73  CB        22.6370   28.1200   22.4800 C.3   247  PHE247      0.0534
     74  CG        24.1100   27.9020   22.2890 C.ar  247  PHE247     -0.0203
     75  CD1       24.9500   27.7730   23.3820 C.ar  247  PHE247     -0.0042
     76  CD2       24.6560   27.8280   21.0180 C.ar  247  PHE247     -0.0042
     77  CE1       26.3060   27.5730   23.2110 C.ar  247  PHE247     -0.0003
     78  CE2       26.0100   27.6280   20.8410 C.ar  247  PHE247     -0.0003
     79  CZ        26.8370   27.5000   21.9390 C.ar  247  PHE247     -0.0000
     80  N         27.2440   11.8620   20.8570 N.3   312  GLY312     -0.1210
     81  CA        27.8990   12.9680   21.5300 C.3   312  GLY312      0.1956
     82  C         27.5560   14.3070   20.9130 C.2   312  GLY312      0.2612
     83  O         26.5850   14.4270   20.1660 O.2   312  GLY312     -0.2717
     84  N         28.3580   15.3180   21.2280 N.am  313  ALA313     -0.1965
     85  CA        28.1310   16.6650   20.7190 C.3   313  ALA313      0.1728
     86  C         29.1260   17.0090   19.6150 C.2   313  ALA313      0.2616
     87  O         28.9030   17.9280   18.8280 O.2   313  ALA313     -0.2715
     88  CB        28.2070   17.6830   21.8530 C.3   313  ALA313      0.0334
     89  N         30.2190   16.2570   19.5500 N.am  314  PHE314     -0.1974
     90  CA        31.2490   16.5130   18.5530 C.3   314  PHE314      0.1639
     91  C         31.4010   15.3610   17.5610 C.2   314  PHE314      0.2290
     92  O         32.1350   15.4730   16.5800 O.2   314  PHE314     -0.2864
     93  CB        32.5850   16.8130   19.2340 C.3   314  PHE314      0.0560
     94  CG        32.5060   17.9060   20.2600 C.ar  314  PHE314     -0.0200
     95  CD1       32.3810   19.2290   19.8720 C.ar  314  PHE314     -0.0042
     96  CD2       32.5540   17.6100   21.6120 C.ar  314  PHE314     -0.0042
     97  CE1       32.3060   20.2370   20.8130 C.ar  314  PHE314     -0.0003
     98  CE2       32.4800   18.6150   22.5590 C.ar  314  PHE314     -0.0003
     99  CZ        32.3550   19.9300   22.1580 C.ar  314  PHE314     -0.0000
    100  N         34.4370   21.1520   30.2040 N.3   394  LEU394     -0.1231
    101  CA        33.7330   21.8670   29.1490 C.3   394  LEU394      0.1693
    102  C         32.2270   21.6780   29.2910 C.2   394  LEU394      0.2592
    103  O         31.4540   22.6260   29.1460 O.2   394  LEU394     -0.2718
    104  CB        34.2080   21.3690   27.7810 C.3   394  LEU394      0.0284
    105  CG        33.6200   21.9870   26.5090 C.3   394  LEU394      0.0019
    106  CD1       34.5350   21.7180   25.3250 C.3   394  LEU394      0.0001
    107  CD2       32.2160   21.4690   26.2310 C.3   394  LEU394      0.0001
    108  N         31.8200   20.4460   29.5790 N.am  395  ASP395     -0.1974
    109  CA        30.4100   20.1190   29.7420 C.3   395  ASP395      0.1709
    110  C         29.7980   20.8810   30.9130 C.2   395  ASP395      0.2293
    111  O         28.7070   21.4370   30.8010 O.2   395  ASP395     -0.2864
    112  CB        30.2260   18.6140   29.9460 C.3   395  ASP395      0.1436
    113  CG        30.7320   17.7980   28.7720 C.2   395  ASP395      0.3671
    114  OD1       31.8840   18.0160   28.3370 O.co2 395  ASP395     -0.2456
    115  OD2       29.9740   16.9370   28.2790 O.co2 395  ASP395     -0.2456
    116  N         29.4910   24.5380   30.1100 N.3   398  ASP398     -0.1225
    117  CA        28.4250   24.7070   29.1300 C.3   398  ASP398      0.1805
    118  C         27.0480   24.5750   29.7670 C.2   398  ASP398      0.2597
    119  O         26.0900   25.2110   29.3330 O.2   398  ASP398     -0.2718
    120  CB        28.5700   23.6980   27.9900 C.3   398  ASP398      0.1424
    121  CG        27.4310   23.7820   26.9920 C.2   398  ASP398      0.3668
    122  OD1       27.4820   24.6580   26.1040 O.co2 398  ASP398     -0.2456
    123  OD2       26.4860   22.9710   27.0950 O.co2 398  ASP398     -0.2456
    124  N         26.9510   23.7430   30.7980 N.am  399  PHE399     -0.1976
    125  CA        25.6810   23.5450   31.4830 C.3   399  PHE399      0.1639
    126  C         25.3230   24.7370   32.3630 C.2   399  PHE399      0.2290
    127  O         24.2340   25.2980   32.2450 O.2   399  PHE399     -0.2864
    128  CB        25.6990   22.2660   32.3190 C.3   399  PHE399      0.0560
    129  CG        24.4730   22.0870   33.1700 C.ar  399  PHE399     -0.0200
    130  CD1       23.2930   21.6200   32.6180 C.ar  399  PHE399     -0.0042
    131  CD2       24.5020   22.3900   34.5210 C.ar  399  PHE399     -0.0042
    132  CE1       22.1640   21.4570   33.3970 C.ar  399  PHE399     -0.0003
    133  CE2       23.3770   22.2280   35.3060 C.ar  399  PHE399     -0.0003
    134  CZ        22.2050   21.7610   34.7430 C.ar  399  PHE399     -0.0000
    135  N         23.7180   27.1370   29.4850 N.3   403  THR403     -0.1218
    136  CA        22.3850   26.5400   29.4660 C.3   403  THR403      0.1862
    137  C         21.4660   27.1690   30.5150 C.2   403  THR403      0.2287
    138  O         20.5010   27.8570   30.1840 O.2   403  THR403     -0.2866
    139  CB        22.4500   25.0120   29.6500 C.3   403  THR403      0.1770
    140  OG1       23.3810   24.4610   28.7120 O.3   403  THR403     -0.2211
    141  CG2       21.0870   24.3850   29.4220 C.3   403  THR403      0.0375
@<TRIPOS>BOND
     1     9    10    1
     2    16    14    1
     3    14    13    1
     4    14    15    1
     5    10    13    1
     6    10    11    1
     7     8     6    1
     8     1     2    1
     9     2     3    1
    10     2     5    1
    11     4     3    2
    12    11    12    2
    13    11    17   am
    14    92    91    2
    15     6     5    1
    16     6     7    1
    17    17    18    1
    18    19    20    2
    19    19    18    1
    20    91    90    1
    21    64    63    2
    22    18    21    1
    23    60    59    1
    24    28    29    1
    25    30    31    2
    26    30    29    1
    27    90    93    1
    28    90    89    1
    29    87    86    2
    30    63    62    1
    31    21    22    1
    32    29    32    1
    33    59    58   ar
    34    59    57   ar
    35    93    94    1
    36    67    65    1
    37    58    56   ar
    38    32    33    1
    39    89    86   am
    40    86    85    1
    41    95    94   ar
    42    95    97   ar
    43    83    82    2
    44    62    65    1
    45    62    61    1
    46    94    96   ar
    47    57    55   ar
    48    22    23    1
    49    33    34    1
    50    65    66    1
    51    56    54   ar
    52    85    84    1
    53    85    88    1
    54    97    99   ar
    55    78    76   ar
    56    78    79   ar
    57    80    81    1
    58    72    71    2
    59    82    84   am
    60    82    81    1
    61    52    51    2
    62    76    74   ar
    63    71    70    1
    64    23    24    1
    65    55    54   ar
    66    54    53    1
    67    96    98   ar
    68    34    35    2
    69    34    36   am
    70    66    68    1
    71    79    77   ar
    72    51    50    1
    73    99    98   ar
    74    26    25    1
    75    74    73    1
    76    74    75   ar
    77    70    73    1
    78    70    69    1
    79    24    25    2
    80    53    50    1
    81    50    49    1
    82    25    27    1
    83    77    75   ar
    84    40    39    2
    85    49    39   am
    86    39    38    1
    87   106   105    1
    88    45    43   ar
    89    45    47   ar
    90    43    42   ar
    91    38    41    1
    92    38    37    1
    93   122   121   ar
    94   107   105    1
    95   105   104    1
    96    48    47    1
    97    47    46   ar
    98    42    41    1
    99    42    44   ar
   100   121   123   ar
   101   121   120    1
   102    46    44   ar
   103   104   101    1
   104   120   117    1
   105   115   113   ar
   106   114   113   ar
   107   140   139    1
   108   113   112    1
   109   117   118    1
   110   117   116    1
   111   103   102    2
   112   101   102    1
   113   101   100    1
   114   102   108   am
   115   119   118    2
   116   141   139    1
   117   136   135    1
   118   136   139    1
   119   136   137    1
   120   108   109    1
   121   109   112    1
   122   109   110    1
   123   118   124   am
   124   138   137    2
   125   124   125    1
   126   111   110    2
   127   125   128    1
   128   125   126    1
   129   127   126    2
   130   128   129    1
   131   130   129   ar
   132   130   132   ar
   133   129   131   ar
   134   132   134   ar
   135   131   133   ar
   136   134   133   ar
