@<TRIPOS>MOLECULE
tmp/3usuA00.pdb
 94 92 0 0 0
SMALL
GASTEIGER

@<TRIPOS>ATOM
      1  N         -4.6490   -4.7480   -7.1190 N.3     3  ASN3       -0.1225
      2  CA        -4.6870   -4.3490   -5.7340 C.3     3  ASN3        0.1785
      3  C         -5.5080   -5.3100   -4.9090 C.2     3  ASN3        0.2598
      4  O         -6.4410   -5.9500   -5.3810 O.2     3  ASN3       -0.2718
      5  CB        -5.2350   -2.9180   -5.5690 C.3     3  ASN3        0.1169
      6  CG        -4.3550   -1.8890   -6.2490 C.2     3  ASN3        0.2627
      7  OD1       -4.6910   -0.7120   -6.3160 O.2     3  ASN3       -0.2716
      8  ND2       -3.2090   -2.3410   -6.7750 N.am    3  ASN3       -0.0877
      9  N         -5.1640   -5.3610   -3.6450 N.am    4  THR4       -0.1939
     10  CA        -5.6790   -6.3160   -2.7400 C.3     4  THR4        0.2028
     11  C         -5.6810   -5.5820   -1.4590 C.2     4  THR4        0.2642
     12  O         -4.7380   -4.8560   -1.1900 O.2     4  THR4       -0.2714
     13  CB        -4.7050   -7.4810   -2.6380 C.3     4  THR4        0.1808
     14  OG1       -4.9390   -8.3180   -3.7670 O.3     4  THR4       -0.2208
     15  CG2       -4.9350   -8.2610   -1.3630 C.3     4  THR4        0.0379
     16  N         -6.7480   -5.7300   -0.6880 N.am    5  ASP5       -0.1971
     17  CA        -6.7650   -5.2100    0.6600 C.3     5  ASP5        0.1709
     18  C         -7.5590   -6.2380    1.4220 C.2     5  ASP5        0.2293
     19  O         -8.5190   -6.7910    0.8910 O.2     5  ASP5       -0.2864
     20  CB        -7.3410   -3.7910    0.7320 C.3     5  ASP5        0.1436
     21  CG        -6.9990   -3.1150    2.0290 C.2     5  ASP5        0.3671
     22  OD1       -7.2890   -3.7190    3.0700 O.co2   5  ASP5       -0.2456
     23  OD2       -6.4250   -1.9920    2.0360 O.co2   5  ASP5       -0.2456
     24  N        -10.1920    1.8160    6.9640 N.3    56  SER56      -0.1203
     25  CA        -9.4890    2.0490    5.7340 C.3    56  SER56       0.2005
     26  C        -10.5420    1.9260    4.6350 C.2    56  SER56       0.2461
     27  O        -11.1370    0.8770    4.4680 O.2    56  SER56      -0.2732
     28  CB        -8.4150    0.9480    5.6000 C.3    56  SER56       0.2103
     29  OG        -7.9130    0.7820    4.2970 O.3    56  SER56      -0.2182
     30  N        -10.8150    3.0120    3.8970 N.am   57  PRO57      -0.2717
     31  CA       -11.7220    2.8130    2.7600 C.3    57  PRO57       0.1535
     32  C        -11.2030    1.6820    1.8520 C.2    57  PRO57       0.2598
     33  O         -9.9980    1.4340    1.8500 O.2    57  PRO57      -0.2715
     34  CB       -11.6620    4.1480    2.0240 C.3    57  PRO57       0.0310
     35  CG       -11.3200    5.1220    3.0990 C.3    57  PRO57       0.0237
     36  CD       -10.4160    4.4160    4.0650 C.3    57  PRO57       0.0939
     37  N        -12.1210    1.0030    1.1510 N.am   58  ILE58      -0.1964
     38  CA       -11.8370   -0.0150    0.1120 C.3    58  ILE58       0.1727
     39  C        -12.1660    0.5280   -1.3050 C.2    58  ILE58       0.2616
     40  O        -13.1360    1.2590   -1.5120 O.2    58  ILE58      -0.2715
     41  CB       -12.5660   -1.3820    0.3540 C.3    58  ILE58       0.0290
     42  CG1      -12.2890   -1.9800    1.7470 C.3    58  ILE58       0.0022
     43  CG2      -12.1950   -2.4290   -0.6930 C.3    58  ILE58       0.0023
     44  CD1      -10.8570   -1.9820    2.2290 C.3    58  ILE58       0.0001
     45  N        -11.3050    0.2020   -2.2590 N.am   59  ASN59      -0.1972
     46  CA       -11.4220    0.6230   -3.6660 C.3    59  ASN59       0.1688
     47  C        -12.2290   -0.4650   -4.3490 C.2    59  ASN59       0.2292
     48  O        -11.7000   -1.5380   -4.6650 O.2    59  ASN59      -0.2864
     49  CB       -10.0240    0.7910   -4.3170 C.3    59  ASN59       0.1181
     50  CG       -10.0400    1.6510   -5.5850 C.2    59  ASN59       0.2629
     51  OD1      -11.0500    2.2600   -5.9350 O.2    59  ASN59      -0.2716
     52  ND2       -8.9020    1.7250   -6.2560 N.am   59  ASN59      -0.0877
     53  N        -13.9720   -4.6170   -8.1430 N.3    69  ALA69      -0.1245
     54  CA       -13.4750   -5.5360   -7.1210 C.3    69  ALA69       0.1562
     55  C        -14.3070   -6.8180   -7.0200 C.2    69  ALA69       0.2260
     56  O        -15.5320   -6.7690   -7.1490 O.2    69  ALA69      -0.2867
     57  CB       -13.4170   -4.8570   -5.7510 C.3    69  ALA69       0.0290
     58  N        -14.6880    4.3540   -3.9210 N.3   208  TRP208     -0.1241
     59  CA       -14.2020    4.0420   -2.6050 C.3   208  TRP208      0.1605
     60  C        -15.3060    3.9530   -1.6350 C.2   208  TRP208      0.2264
     61  O        -16.1650    4.8430   -1.5260 O.2   208  TRP208     -0.2867
     62  CB       -13.2470    5.0840   -2.1220 C.3   208  TRP208      0.0550
     63  CG       -12.0070    5.0980   -2.9390 C.ar  208  TRP208      0.0003
     64  CD1      -11.8100    5.7070   -4.1710 C.ar  208  TRP208      0.0946
     65  CD2      -10.7370    4.4640   -2.6220 C.ar  208  TRP208      0.0152
     66  NE1      -10.5410    5.5180   -4.6030 N.ar  208  TRP208     -0.2442
     67  CE2       -9.8420    4.7770   -3.7360 C.ar  208  TRP208      0.0810
     68  CE3      -10.2580    3.7230   -1.5540 C.ar  208  TRP208      0.0012
     69  CZ2       -8.5400    4.3410   -3.7730 C.ar  208  TRP208      0.0191
     70  CZ3       -8.9370    3.2810   -1.5960 C.ar  208  TRP208      0.0001
     71  CH2       -8.1000    3.5720   -2.6870 C.ar  208  TRP208      0.0015
     72  N        -10.4850   -8.5230   -0.6400 N.3   236  SER236     -0.1202
     73  CA       -10.9210   -8.0400   -1.9090 C.3   236  SER236      0.2020
     74  C         -9.7140   -7.9430   -2.7880 C.2   236  SER236      0.2619
     75  O         -8.6240   -7.6570   -2.3100 O.2   236  SER236     -0.2717
     76  CB       -11.6250   -6.6680   -1.7920 C.3   236  SER236      0.2103
     77  OG       -10.8010   -5.7240   -1.1360 O.3   236  SER236     -0.2182
     78  N         -9.9070   -8.2150   -4.0740 N.am  237  LYS237     -0.1965
     79  CA        -8.9560   -7.7830   -5.0690 C.3   237  LYS237      0.1728
     80  C         -9.6020   -7.0340   -6.2300 C.2   237  LYS237      0.2616
     81  O        -10.7190   -7.3360   -6.6460 O.2   237  LYS237     -0.2715
     82  CB        -8.0320   -8.8990   -5.4990 C.3   237  LYS237      0.0311
     83  CG        -8.6560  -10.1010   -6.1480 C.3   237  LYS237      0.0038
     84  CD        -7.6010  -11.2170   -6.1640 C.3   237  LYS237      0.0206
     85  CE        -7.4160  -11.8440   -7.5620 C.3   237  LYS237      0.1093
     86  NZ        -7.4250  -13.3440   -7.5190 N.3   237  LYS237     -0.1314
     87  N         -8.9120   -6.0070   -6.6900 N.am  238  LEU238     -0.1977
     88  CA        -9.3380   -5.2390   -7.8450 C.3   238  LEU238      0.1596
     89  C         -8.2360   -5.3670   -8.8770 C.2   238  LEU238      0.2287
     90  O         -7.1000   -4.9860   -8.5900 O.2   238  LEU238     -0.2864
     91  CB        -9.4740   -3.7890   -7.4500 C.3   238  LEU238      0.0297
     92  CG        -9.8850   -2.8250   -8.5530 C.3   238  LEU238      0.0022
     93  CD1      -11.0800   -3.3720   -9.3130 C.3   238  LEU238      0.0001
     94  CD2      -10.1840   -1.4400   -7.9920 C.3   238  LEU238      0.0001
@<TRIPOS>BOND
     1    93    92    1
     2    89    90    2
     3    89    88    1
     4    92    94    1
     5    92    91    1
     6    53    54    1
     7    88    91    1
     8    88    87    1
     9    85    86    1
    10    85    84    1
    11    56    55    2
    12    54    55    1
    13    54    57    1
    14     1     2    1
    15     8     6   am
    16    87    80   am
    17    81    80    2
    18     7     6    2
    19    52    50   am
    20     6     5    1
    21    80    79    1
    22    84    83    1
    23    83    82    1
    24    51    50    2
    25     2     5    1
    26     2     3    1
    27    50    49    1
    28    82    79    1
    29     4     3    2
    30    79    78    1
    31     3     9   am
    32    48    47    2
    33    66    64   ar
    34    66    67   ar
    35    47    46    1
    36    49    46    1
    37    64    63   ar
    38    78    74   am
    39    58    59    1
    40    69    67   ar
    41    69    71   ar
    42    14    13    1
    43    67    65   ar
    44    46    45    1
    45     9    10    1
    46    63    65   ar
    47    63    62    1
    48    74    75    2
    49    74    73    1
    50    10    13    1
    51    10    11    1
    52    71    70   ar
    53    13    15    1
    54    65    68   ar
    55    59    62    1
    56    59    60    1
    57    45    39   am
    58    73    76    1
    59    73    72    1
    60    76    77    1
    61    60    61    2
    62    70    68   ar
    63    40    39    2
    64    11    12    2
    65    11    16   am
    66    39    38    1
    67    43    41    1
    68    16    17    1
    69    38    41    1
    70    38    37    1
    71    41    42    1
    72    17    20    1
    73    17    18    1
    74    20    21    1
    75    19    18    2
    76    37    32   am
    77    42    44    1
    78    33    32    2
    79    32    31    1
    80    34    31    1
    81    34    35    1
    82    21    23   ar
    83    21    22   ar
    84    31    30    1
    85    35    36    1
    86    30    36    1
    87    30    26   am
    88    29    28    1
    89    27    26    2
    90    26    25    1
    91    28    25    1
    92    25    24    1
