@<TRIPOS>MOLECULE
tmp/3ut3B00.pdb
 136 131 0 0 0
SMALL
GASTEIGER

@<TRIPOS>ATOM
      1  N          5.4210   34.9820   31.2890 N.3    33  TYR33      -0.1241
      2  CA         5.7140   35.1990   32.6990 C.3    33  TYR33       0.1605
      3  C          6.9460   34.4380   33.1510 C.2    33  TYR33       0.2264
      4  O          7.8490   34.9750   33.8590 O.2    33  TYR33      -0.2867
      5  CB         4.5170   34.6870   33.5350 C.3    33  TYR33       0.0534
      6  CG         4.8220   34.6670   34.9960 C.ar   33  TYR33      -0.0201
      7  CD1        5.0780   35.8400   35.6930 C.ar   33  TYR33      -0.0009
      8  CD2        4.9320   33.4680   35.6600 C.ar   33  TYR33      -0.0009
      9  CE1        5.4180   35.8080   37.0390 C.ar   33  TYR33       0.0417
     10  CE2        5.2570   33.4030   36.9910 C.ar   33  TYR33       0.0417
     11  CZ         5.5120   34.5680   37.6850 C.ar   33  TYR33       0.1957
     12  OH         5.8000   34.4590   39.0260 O.3    33  TYR33      -0.2866
     13  N         10.5890   35.6880   34.6810 N.3    37  SER37      -0.1217
     14  CA        10.8800   35.3000   36.0480 C.3    37  SER37       0.1889
     15  C         12.2980   34.7230   36.2040 C.2    37  SER37       0.2288
     16  O         13.0480   35.1320   37.1160 O.2    37  SER37      -0.2866
     17  CB         9.8290   34.2720   36.4400 C.3    37  SER37       0.2089
     18  OG         9.9010   33.9230   37.7880 O.3    37  SER37      -0.2183
     19  N         15.8900   36.4690   37.8440 N.3    41  MET41      -0.1245
     20  CA        16.8830   35.8180   38.7190 C.3    41  MET41       0.1570
     21  C         18.2600   35.9380   38.0850 C.2    41  MET41       0.2261
     22  O         19.2330   36.3620   38.7200 O.2    41  MET41      -0.2867
     23  CB        16.5850   34.3350   38.9350 C.3    41  MET41       0.0387
     24  CG        15.2310   34.0590   39.5840 C.3    41  MET41       0.0595
     25  SD        15.0630   32.3130   40.0180 S.3    41  MET41      -0.1393
     26  CE        14.0440   32.5650   41.4650 C.3    41  MET41       0.0692
     27  N          4.2640   36.2350   42.6990 N.3    75  TYR75      -0.1241
     28  CA         4.3310   34.7520   42.6690 C.3    75  TYR75       0.1605
     29  C          3.3420   34.0830   43.6730 C.2    75  TYR75       0.2264
     30  O          2.7950   33.0160   43.3850 O.2    75  TYR75      -0.2867
     31  CB         5.7660   34.2480   42.9230 C.3    75  TYR75       0.0534
     32  CG         5.9000   32.7250   43.0610 C.ar   75  TYR75      -0.0201
     33  CD1        5.7280   31.9000   41.9600 C.ar   75  TYR75      -0.0009
     34  CD2        6.1870   32.1070   44.3030 C.ar   75  TYR75      -0.0009
     35  CE1        5.8270   30.5250   42.0640 C.ar   75  TYR75       0.0417
     36  CE2        6.2930   30.7230   44.4120 C.ar   75  TYR75       0.0417
     37  CZ         6.1090   29.9420   43.2860 C.ar   75  TYR75       0.1957
     38  OH         6.1950   28.5740   43.3300 O.3    75  TYR75      -0.2866
     39  N          0.1140   31.6910   42.6760 N.3    79  MET79      -0.1245
     40  CA         0.0350   30.3310   43.2310 C.3    79  MET79       0.1570
     41  C         -0.9550   30.3460   44.3930 C.2    79  MET79       0.2261
     42  O         -0.9010   29.4890   45.2850 O.2    79  MET79      -0.2867
     43  CB         1.4100   29.8520   43.7290 C.3    79  MET79       0.0387
     44  CG         2.4320   29.6170   42.6290 C.3    79  MET79       0.0595
     45  SD         2.0520   28.1910   41.5950 S.3    79  MET79      -0.1393
     46  CE         3.1170   26.9150   42.2720 C.3    79  MET79       0.0692
     47  N          4.5990   25.9770   38.1800 N.3    89  THR89      -0.1203
     48  CA         5.6730   26.7390   37.5810 C.3    89  THR89       0.1994
     49  C          6.9180   26.5530   38.4070 C.2    89  THR89       0.2619
     50  O          6.8270   26.4700   39.6300 O.2    89  THR89      -0.2717
     51  CB         5.3560   28.2320   37.5500 C.3    89  THR89       0.1784
     52  OG1        6.5310   28.9460   37.1530 O.3    89  THR89      -0.2211
     53  CG2        4.8840   28.7500   38.9220 C.3    89  THR89       0.0376
     54  N          8.0770   26.5060   37.7400 N.am   90  THR90      -0.1938
     55  CA         9.3880   26.4030   38.4220 C.3    90  THR90       0.2028
     56  C         10.4960   27.0510   37.6290 C.2    90  THR90       0.2642
     57  O         10.4690   27.0590   36.4040 O.2    90  THR90      -0.2714
     58  CB         9.7870   24.9410   38.7520 C.3    90  THR90       0.1808
     59  OG1       10.9770   24.9290   39.5840 O.3    90  THR90      -0.2208
     60  CG2       10.0350   24.1430   37.4930 C.3    90  THR90       0.0379
     61  N         11.4490   27.6200   38.3550 N.am   91  ASP91      -0.1971
     62  CA        12.6130   28.2840   37.7830 C.3    91  ASP91       0.1709
     63  C         13.8230   27.7240   38.4880 C.2    91  ASP91       0.2293
     64  O         13.7590   27.4350   39.6890 O.2    91  ASP91      -0.2864
     65  CB        12.6090   29.7840   38.0620 C.3    91  ASP91       0.1436
     66  CG        11.3950   30.5130   37.4930 C.2    91  ASP91       0.3671
     67  OD1       11.0840   31.6270   37.9930 O.co2  91  ASP91      -0.2456
     68  OD2       10.7470   29.9980   36.5530 O.co2  91  ASP91      -0.2456
     69  N         18.9160   34.4730   47.9950 N.3   110  PHE110     -0.1241
     70  CA        17.7780   33.9590   48.7690 C.3   110  PHE110      0.1605
     71  C         16.8910   35.0810   49.3450 C.2   110  PHE110      0.2264
     72  O         15.6670   34.9320   49.4500 O.2   110  PHE110     -0.2867
     73  CB        18.2620   33.0100   49.8750 C.3   110  PHE110      0.0534
     74  CG        17.1530   32.3000   50.5900 C.ar  110  PHE110     -0.0203
     75  CD1       16.8500   32.6140   51.8950 C.ar  110  PHE110     -0.0042
     76  CD2       16.4010   31.3390   49.9410 C.ar  110  PHE110     -0.0042
     77  CE1       15.8180   32.0010   52.5450 C.ar  110  PHE110     -0.0003
     78  CE2       15.3570   30.6980   50.5950 C.ar  110  PHE110     -0.0003
     79  CZ        15.0580   31.0520   51.9030 C.ar  110  PHE110     -0.0000
     80  N         13.8620   33.8440   47.5820 N.3   114  ARG114     -0.1231
     81  CA        13.4490   32.6630   48.3580 C.3   114  ARG114      0.1694
     82  C         13.7240   31.3970   47.5470 C.2   114  ARG114      0.2593
     83  O         12.9320   30.4610   47.5460 O.2   114  ARG114     -0.2718
     84  CB        11.9600   32.7040   48.7370 C.3   114  ARG114      0.0321
     85  CG        11.5230   33.9780   49.4510 C.3   114  ARG114      0.0489
     86  CD        12.3600   34.2860   50.6720 C.3   114  ARG114      0.2205
     87  NE        11.7700   35.4080   51.3790 N.pl3 114  ARG114     -0.0865
     88  CZ        12.4360   36.3020   52.0970 C.cat 114  ARG114      0.5346
     89  NH1       13.7470   36.2250   52.2420 N.pl3 114  ARG114      0.1354
     90  NH2       11.7750   37.2870   52.6790 N.pl3 114  ARG114      0.1354
     91  N         14.8650   31.4140   46.8620 N.am  115  SER115     -0.1938
     92  CA        15.3550   30.3330   46.0460 C.3   115  SER115      0.2055
     93  C         16.8460   30.2900   46.2230 C.2   115  SER115      0.2643
     94  O         17.4540   31.2730   46.6970 O.2   115  SER115     -0.2714
     95  CB        15.0650   30.6110   44.5850 C.3   115  SER115      0.2130
     96  OG        13.6630   30.7190   44.3680 O.3   115  SER115     -0.2179
     97  N         17.4480   29.1700   45.8280 N.am  116  THR116     -0.1950
     98  CA        18.9110   29.0450   45.8280 C.3   116  THR116      0.1897
     99  C         19.4360   28.6320   44.4520 C.2   116  THR116      0.2313
    100  O         18.7550   27.9790   43.6470 O.2   116  THR116     -0.2863
    101  CB        19.3600   28.0120   46.8620 C.3   116  THR116      0.1794
    102  OG1       18.6390   26.7620   46.6560 O.3   116  THR116     -0.2208
    103  CG2       19.0740   28.5480   48.2710 C.3   116  THR116      0.0378
    104  N         21.3940   26.1560   42.5000 N.3   118  LYS118     -0.1245
    105  CA        21.8170   24.7610   42.6650 C.3   118  LYS118      0.1561
    106  C         23.2410   24.5690   42.1400 C.2   118  LYS118      0.2260
    107  O         23.5460   24.8350   40.9790 O.2   118  LYS118     -0.2867
    108  CB        20.9020   23.7790   41.9520 C.3   118  LYS118      0.0271
    109  CG        19.5160   24.2710   41.7080 C.3   118  LYS118      0.0035
    110  CD        18.8330   24.5640   43.0000 C.3   118  LYS118      0.0206
    111  CE        17.4660   25.1530   42.7170 C.3   118  LYS118      0.1093
    112  NZ        17.0320   25.6680   44.0330 N.3   118  LYS118     -0.1314
    113  N         14.5350   18.0640   39.3440 N.3   135  TRP135     -0.1241
    114  CA        14.0310   19.3130   39.8630 C.3   135  TRP135      0.1605
    115  C         12.7230   19.6900   39.2040 C.2   135  TRP135      0.2264
    116  O         11.7750   20.0430   39.8760 O.2   135  TRP135     -0.2867
    117  CB        15.0090   20.4460   39.6390 C.3   135  TRP135      0.0550
    118  CG        14.4430   21.7020   40.1480 C.ar  135  TRP135      0.0003
    119  CD1       13.6920   22.6000   39.4550 C.ar  135  TRP135      0.0946
    120  CD2       14.5770   22.2180   41.4810 C.ar  135  TRP135      0.0152
    121  NE1       13.3720   23.6430   40.2550 N.ar  135  TRP135     -0.2442
    122  CE2       13.8880   23.4210   41.5140 C.ar  135  TRP135      0.0810
    123  CE3       15.2380   21.7700   42.6450 C.ar  135  TRP135      0.0012
    124  CZ2       13.8020   24.1810   42.6560 C.ar  135  TRP135      0.0191
    125  CZ3       15.1630   22.5260   43.7880 C.ar  135  TRP135      0.0001
    126  CH2       14.4550   23.7220   43.7900 C.ar  135  TRP135      0.0015
    127  N          8.7910   19.7140   41.0300 N.3   139  HIS139     -0.1241
    128  CA         8.2010   21.0350   41.2040 C.3   139  HIS139      0.1621
    129  C          7.0510   21.3350   40.2330 C.2   139  HIS139      0.2264
    130  O          6.5340   22.4310   40.2720 O.2   139  HIS139     -0.2867
    131  CB         9.2960   22.0870   41.1390 C.3   139  HIS139      0.0745
    132  CG        10.2280   22.0240   42.2990 C.ar  139  HIS139      0.0817
    133  ND1        9.9510   22.6520   43.4980 N.ar  139  HIS139     -0.2268
    134  CD2       11.4070   21.3730   42.4750 C.ar  139  HIS139      0.1154
    135  CE1       10.9270   22.4060   44.3540 C.ar  139  HIS139      0.1986
    136  NE2       11.8260   21.6420   43.7530 N.ar  139  HIS139     -0.2212
@<TRIPOS>BOND
     1     1     2    1
     2     2     3    1
     3     2     5    1
     4     3     4    2
     5     5     6    1
     6    13    14    1
     7     6     8   ar
     8     6     7   ar
     9     8    10   ar
    10     7     9   ar
    11    14    15    1
    12    14    17    1
    13    15    16    2
    14    57    56    2
    15    17    18    1
    16    68    66   ar
    17    10    11   ar
    18     9    11   ar
    19    52    51    1
    20    60    58    1
    21    66    67   ar
    22    66    65    1
    23    51    48    1
    24    51    53    1
    25    48    47    1
    26    48    49    1
    27    56    61   am
    28    56    55    1
    29    11    12    1
    30    54    49   am
    31    54    55    1
    32    62    65    1
    33    62    61    1
    34    62    63    1
    35    19    20    1
    36    21    20    1
    37    21    22    2
    38    49    50    2
    39    55    58    1
    40    63    64    2
    41    20    23    1
    42    58    59    1
    43    23    24    1
    44   115   114    1
    45   115   116    2
    46   113   114    1
    47   119   118   ar
    48   119   121   ar
    49    24    25    1
    50   117   114    1
    51   117   118    1
    52    25    26    1
    53   118   120   ar
    54   129   130    2
    55   129   128    1
    56   121   122   ar
    57   107   106    2
    58   127   128    1
    59   131   128    1
    60   131   132    1
    61   120   122   ar
    62   120   123   ar
    63   122   124   ar
    64    45    46    1
    65    45    44    1
    66   109   108    1
    67   109   110    1
    68   108   105    1
    69    33    35   ar
    70    33    32   ar
    71    35    37   ar
    72   106   105    1
    73   132   134   ar
    74   132   133   ar
    75   134   136   ar
    76   104   105    1
    77    44    43    1
    78   123   125   ar
    79   124   126   ar
    80    28    27    1
    81    28    31    1
    82    28    29    1
    83    39    40    1
    84   111   110    1
    85   111   112    1
    86    31    32    1
    87    32    34   ar
    88    40    43    1
    89    40    41    1
    90    37    38    1
    91    37    36   ar
    92    30    29    2
    93   133   135   ar
    94   100    99    2
    95   136   135   ar
    96   125   126   ar
    97    34    36   ar
    98    96    95    1
    99    41    42    2
   100    99    98    1
   101    95    92    1
   102    97    98    1
   103    97    93   am
   104    98   101    1
   105    92    93    1
   106    92    91    1
   107    93    94    2
   108   102   101    1
   109   101   103    1
   110    91    82   am
   111    83    82    2
   112    82    81    1
   113    80    81    1
   114    69    70    1
   115    81    84    1
   116    84    85    1
   117    70    71    1
   118    70    73    1
   119    71    72    2
   120    85    86    1
   121    73    74    1
   122    76    74   ar
   123    76    78   ar
   124    74    75   ar
   125    78    79   ar
   126    86    87    1
   127    87    88    2
   128    75    77   ar
   129    79    77   ar
   130    88    89    1
   131    88    90    1
