@<TRIPOS>MOLECULE
tmp/3utdB00.pdb
 130 122 0 0 0
SMALL
GASTEIGER

@<TRIPOS>ATOM
      1  N        -40.5170   -6.4300    8.8120 N.3    12  CYS12      -0.1235
      2  CA       -39.7740   -5.7240    7.7470 C.3    12  CYS12       0.1677
      3  C        -38.4270   -6.4300    7.5760 C.2    12  CYS12       0.2270
      4  O        -38.0830   -7.4180    8.2710 O.2    12  CYS12      -0.2867
      5  CB       -39.5100   -4.2890    8.2640 C.3    12  CYS12       0.0956
      6  SG       -38.5450   -4.3190    9.8050 S.3    12  CYS12      -0.0801
      7  N        -35.9210   -6.1720   10.7280 N.3    15  VAL15      -0.1245
      8  CA       -36.2610   -7.0390   11.8910 C.3    15  VAL15       0.1561
      9  C        -35.9290   -8.4970   11.5310 C.2    15  VAL15       0.2260
     10  O        -35.3460   -9.2110   12.3610 O.2    15  VAL15      -0.2867
     11  CB       -37.7720   -6.8700   12.2270 C.3    15  VAL15       0.0252
     12  CG1      -38.3320   -8.0350   13.0640 C.3    15  VAL15       0.0019
     13  CG2      -37.9690   -5.4750   12.9100 C.3    15  VAL15       0.0019
     14  N        -35.4670   -6.3220   19.1220 N.3    40  VAL40      -0.1231
     15  CA       -36.6080   -5.5190   18.5620 C.3    40  VAL40       0.1692
     16  C        -37.5940   -5.3840   19.7040 C.2    40  VAL40       0.2592
     17  O        -37.5660   -6.1790   20.6760 O.2    40  VAL40      -0.2718
     18  CB       -37.3310   -6.1900   17.3440 C.3    40  VAL40       0.0266
     19  CG1      -36.2820   -6.4540   16.2580 C.3    40  VAL40       0.0020
     20  CG2      -37.9510   -7.5540   17.7590 C.3    40  VAL40       0.0020
     21  N        -38.4750   -4.4060   19.5750 N.am   41  HIS41      -0.1976
     22  CA       -39.4700   -4.1280   20.6180 C.3    41  HIS41       0.1656
     23  C        -40.6590   -5.0460   20.4990 C.2    41  HIS41       0.2291
     24  O        -41.7910   -4.6130   20.2390 O.2    41  HIS41      -0.2864
     25  CB       -39.8740   -2.6400   20.5570 C.3    41  HIS41       0.0771
     26  CG       -38.7740   -1.7200   20.9350 C.ar   41  HIS41       0.0820
     27  ND1      -38.6470   -0.4350   20.4200 N.ar   41  HIS41      -0.2267
     28  CD2      -37.6990   -1.9100   21.8060 C.ar   41  HIS41       0.1154
     29  CE1      -37.5760    0.1470   20.9740 C.ar   41  HIS41       0.1986
     30  NE2      -36.9830   -0.7390   21.8160 N.ar   41  HIS41      -0.2212
     31  N        -31.6350   -3.7140   16.6960 N.3    73  ALA73      -0.1231
     32  CA       -31.9180   -3.1570   15.3810 C.3    73  ALA73       0.1694
     33  C        -31.8960   -1.5980   15.3910 C.2    73  ALA73       0.2592
     34  O        -31.7970   -0.9670   14.3120 O.2    73  ALA73      -0.2718
     35  CB       -33.3090   -3.6250   14.9370 C.3    73  ALA73       0.0304
     36  N        -32.2050   -1.0270   16.5690 N.am   74  HIS74      -0.1976
     37  CA       -32.3880    0.4330   16.7290 C.3    74  HIS74       0.1656
     38  C        -31.1410    1.2110   16.6060 C.2    74  HIS74       0.2291
     39  O        -31.2520    2.4550   16.4340 O.2    74  HIS74      -0.2864
     40  CB       -33.0620    0.7680   18.1140 C.3    74  HIS74       0.0771
     41  CG       -34.1640   -0.2280   18.4140 C.ar   74  HIS74       0.0820
     42  ND1      -33.9040   -1.4290   19.0970 N.ar   74  HIS74      -0.2267
     43  CD2      -35.4800   -0.2930   17.9650 C.ar   74  HIS74       0.1154
     44  CE1      -35.0490   -2.1680   19.1300 C.ar   74  HIS74       0.1986
     45  NE2      -36.0250   -1.4900   18.4630 N.ar   74  HIS74      -0.2212
     46  N        -30.4180   -1.8790   11.9460 N.3    96  CYS96      -0.1235
     47  CA       -30.9250   -1.9050   10.5690 C.3    96  CYS96       0.1677
     48  C        -30.1030   -1.0050    9.6160 C.2    96  CYS96       0.2270
     49  O        -29.7920    0.1190    9.9480 O.2    96  CYS96      -0.2867
     50  CB       -32.3870   -1.3750   10.5680 C.3    96  CYS96       0.0956
     51  SG       -33.1630   -1.4560    8.8840 S.3    96  CYS96      -0.0801
     52  N        -31.2170    2.5920    9.4660 N.3    99  VAL99      -0.1245
     53  CA       -30.7820    3.4300   10.6170 C.3    99  VAL99       0.1561
     54  C        -29.3630    3.8350   10.3630 C.2    99  VAL99       0.2260
     55  O        -29.0070    5.0260   10.4900 O.2    99  VAL99      -0.2867
     56  CB       -30.8890    2.6690   11.9390 C.3    99  VAL99       0.0252
     57  CG1      -30.2770    3.4940   13.0620 C.3    99  VAL99       0.0019
     58  CG2      -32.3800    2.4510   12.2100 C.3    99  VAL99       0.0019
     59  N        -36.3340    7.2400   23.0920 N.3   124  HIS124     -0.1241
     60  CA       -36.3190    6.0400   22.2220 C.3   124  HIS124      0.1621
     61  C        -34.8550    5.6400   21.9680 C.2   124  HIS124      0.2264
     62  O        -34.0080    6.4770   21.7830 O.2   124  HIS124     -0.2867
     63  CB       -37.0240    6.4010   20.9270 C.3   124  HIS124      0.0745
     64  CG       -37.3530    5.2290   20.0930 C.ar  124  HIS124      0.0817
     65  ND1      -36.4050    4.6080   19.2940 N.ar  124  HIS124     -0.2268
     66  CD2      -38.5520    4.5120   19.9470 C.ar  124  HIS124      0.1154
     67  CE1      -36.9900    3.5640   18.6380 C.ar  124  HIS124      0.1986
     68  NE2      -38.3030    3.4750   19.0700 N.ar  124  HIS124     -0.2212
     69  N        -33.5010    4.4640   19.3640 N.3   126  GLU126     -0.1245
     70  CA       -32.9230    4.8900   18.0700 C.3   126  GLU126      0.1567
     71  C        -32.4640    6.3760   18.1260 C.2   126  GLU126      0.2260
     72  O        -31.4540    6.7630   17.5150 O.2   126  GLU126     -0.2867
     73  CB       -33.8880    4.6550   16.9370 C.3   126  GLU126      0.0388
     74  CG       -33.3580    5.1780   15.5710 C.3   126  GLU126      0.1160
     75  CD       -34.4500    5.0800   14.4940 C.2   126  GLU126      0.3649
     76  OE1      -34.4940    5.9480   13.6110 O.co2 126  GLU126     -0.2457
     77  OE2      -35.3220    4.1860   14.5030 O.co2 126  GLU126     -0.2457
     78  N        -36.7970    6.6010   12.1300 N.3   167  THR167     -0.1203
     79  CA       -37.2930    5.7760   10.9690 C.3   167  THR167      0.1994
     80  C        -38.7620    5.3930   11.1880 C.2   167  THR167      0.2618
     81  O        -39.4520    5.0460   10.2440 O.2   167  THR167     -0.2717
     82  CB       -36.4770    4.4710   10.8270 C.3   167  THR167      0.1784
     83  OG1      -36.5120    3.7360   12.0610 O.3   167  THR167     -0.2211
     84  CG2      -35.0410    4.8120   10.5140 C.3   167  THR167      0.0376
     85  N        -39.2120    5.3490   12.4620 N.am  168  THR168     -0.1952
     86  CA       -40.5320    4.7520   12.8000 C.3   168  THR168      0.1897
     87  C        -41.6290    5.7620   13.2760 C.2   168  THR168      0.2313
     88  O        -42.4640    5.4430   14.1740 O.2   168  THR168     -0.2863
     89  CB       -40.3520    3.6240   13.8830 C.3   168  THR168      0.1794
     90  OG1      -39.5570    4.1410   14.9720 O.3   168  THR168     -0.2208
     91  CG2      -39.5610    2.4830   13.2290 C.3   168  THR168      0.0378
     92  N        -43.8850   -0.8280   23.7570 N.3   224  ASN224     -0.1225
     93  CA       -42.7290    0.0040   23.5960 C.3   224  ASN224      0.1785
     94  C        -42.3200    0.0300   22.1330 C.2   224  ASN224      0.2598
     95  O        -41.2820    0.5550   21.8000 O.2   224  ASN224     -0.2718
     96  CB       -41.5370   -0.4270   24.4890 C.3   224  ASN224      0.1169
     97  CG       -41.0810   -1.8570   24.2180 C.2   224  ASN224      0.2627
     98  OD1      -41.8410   -2.6450   23.6770 O.2   224  ASN224     -0.2716
     99  ND2      -39.8010   -2.1960   24.5790 N.am  224  ASN224     -0.0877
    100  N        -43.1700   -0.5130   21.2610 N.am  225  SER225     -0.1938
    101  CA       -42.8380   -0.3970   19.7820 C.3   225  SER225      0.2055
    102  C        -43.4060    0.9040   19.2030 C.2   225  SER225      0.2644
    103  O        -44.6530    1.0550   19.0890 O.2   225  SER225     -0.2714
    104  CB       -43.4300   -1.6030   19.0170 C.3   225  SER225      0.2130
    105  OG       -43.2570   -1.3690   17.5810 O.3   225  SER225     -0.2179
    106  N        -42.5320    1.8310   18.8130 N.am  226  SER226     -0.1935
    107  CA       -42.9940    3.0520   18.2200 C.3   226  SER226      0.2055
    108  C        -43.8680    2.7250   16.9880 C.2   226  SER226      0.2643
    109  O        -44.9510    3.2860   16.8150 O.2   226  SER226     -0.2714
    110  CB       -41.7870    3.9450   17.7820 C.3   226  SER226      0.2130
    111  OG       -42.3050    5.1180   17.1250 O.3   226  SER226     -0.2179
    112  N        -43.3310    1.9470   16.0500 N.am  227  ASN227     -0.1971
    113  CA       -44.0690    1.8440   14.7690 C.3   227  ASN227      0.1688
    114  C        -45.4000    1.1780   14.9710 C.2   227  ASN227      0.2292
    115  O        -46.4170    1.5390   14.3250 O.2   227  ASN227     -0.2864
    116  CB       -43.1920    1.1070   13.7260 C.3   227  ASN227      0.1181
    117  CG       -43.2360   -0.4190   13.9240 C.2   227  ASN227      0.2629
    118  OD1      -44.1090   -1.0920   13.4090 O.2   227  ASN227     -0.2716
    119  ND2      -42.2580   -0.9700   14.6510 N.am  227  ASN227     -0.0877
    120  N        -43.8550   -3.7760   12.5990 N.3   268  ALA268     -0.1231
    121  CA       -42.6910   -4.3970   11.8710 C.3   268  ALA268      0.1694
    122  C        -41.9180   -5.3970   12.7370 C.2   268  ALA268      0.2592
    123  O        -41.1410   -6.2190   12.2220 O.2   268  ALA268     -0.2718
    124  CB       -41.7030   -3.2720   11.4590 C.3   268  ALA268      0.0304
    125  N        -42.1080   -5.3070   14.0590 N.am  269  SER269     -0.1952
    126  CA       -41.3840   -6.1980   14.9540 C.3   269  SER269      0.1924
    127  C        -42.2250   -7.4280   15.4480 C.2   269  SER269      0.2314
    128  O        -41.7640   -8.1770   16.3230 O.2   269  SER269     -0.2863
    129  CB       -40.8830   -5.4110   16.2090 C.3   269  SER269      0.2116
    130  OG       -41.8920   -4.5410   16.7200 O.3   269  SER269     -0.2180
@<TRIPOS>BOND
     1     3     2    1
     2     3     4    2
     3     2     5    1
     4     2     1    1
     5     5     6    1
     6    51    50    1
     7    52    53    1
     8    48    49    2
     9    48    47    1
    10    81    80    2
    11    54    55    2
    12    54    53    1
    13    84    82    1
    14    50    47    1
    15    47    46    1
    16    53    56    1
    17     7     8    1
    18    82    79    1
    19    82    83    1
    20    79    80    1
    21    79    78    1
    22    80    85   am
    23   124   121    1
    24     9     8    1
    25     9    10    2
    26   121   120    1
    27   121   122    1
    28     8    11    1
    29    56    58    1
    30    56    57    1
    31   123   122    2
    32    11    13    1
    33    11    12    1
    34    85    86    1
    35   122   125   am
    36    86    87    1
    37    86    89    1
    38    91    89    1
    39    87    88    2
    40   118   117    2
    41    76    75   ar
    42   116   117    1
    43   116   113    1
    44    89    90    1
    45   117   119   am
    46   125   126    1
    47    34    33    2
    48   115   114    2
    49    75    77   ar
    50    75    74    1
    51   113   114    1
    52   113   112    1
    53    35    32    1
    54   126   127    1
    55   126   129    1
    56    32    33    1
    57    32    31    1
    58    33    36   am
    59   127   128    2
    60    74    73    1
    61   112   108   am
    62   129   130    1
    63    19    18    1
    64    39    38    2
    65    36    37    1
    66    38    37    1
    67    37    40    1
    68   109   108    2
    69    73    70    1
    70   108   107    1
    71   111   110    1
    72    18    20    1
    73    18    15    1
    74    72    71    2
    75   105   104    1
    76   110   107    1
    77    43    41   ar
    78    43    45   ar
    79    70    71    1
    80    70    69    1
    81    40    41    1
    82   107   106    1
    83    41    42   ar
    84    45    44   ar
    85    15    14    1
    86    15    16    1
    87    67    68   ar
    88    67    65   ar
    89   106   102   am
    90   104   101    1
    91    68    66   ar
    92   103   102    2
    93    42    44   ar
    94   102   101    1
    95    65    64   ar
    96    21    16   am
    97    21    22    1
    98    16    17    2
    99   101   100    1
   100    66    64   ar
   101    64    63    1
   102    24    23    2
   103    27    26   ar
   104    27    29   ar
   105    23    22    1
   106    25    22    1
   107    25    26    1
   108    63    60    1
   109    26    28   ar
   110    29    30   ar
   111   100    94   am
   112    62    61    2
   113    95    94    2
   114    28    30   ar
   115    61    60    1
   116    94    93    1
   117    60    59    1
   118    93    92    1
   119    93    96    1
   120    98    97    2
   121    97    96    1
   122    97    99   am
