@<TRIPOS>MOLECULE
tmp/3utuB01.pdb
 246 247 0 0 0
SMALL
GASTEIGER

@<TRIPOS>ATOM
      1  N         22.5430   -6.1560   18.1420 N.3    42  HIS42      -0.1241
      2  CA        22.4330   -7.5250   17.6520 C.3    42  HIS42       0.1621
      3  C         21.6760   -7.5900   16.3230 C.2    42  HIS42       0.2264
      4  O         21.6830   -8.6110   15.6340 O.2    42  HIS42      -0.2867
      5  CB        21.7880   -8.4420   18.6940 C.3    42  HIS42       0.0745
      6  CG        20.2900   -8.3310   18.8120 C.ar   42  HIS42       0.0817
      7  ND1       19.6380   -7.5350   19.7360 N.ar   42  HIS42      -0.2268
      8  CD2       19.3150   -8.9630   18.1470 C.ar   42  HIS42       0.1154
      9  CE1       18.3290   -7.6680   19.5940 C.ar   42  HIS42       0.1986
     10  NE2       18.1030   -8.5320   18.6170 N.ar   42  HIS42      -0.2212
     11  N         25.9670  -10.2210   15.2140 N.3    46  TYR46      -0.1241
     12  CA        25.7300  -11.3310   16.1050 C.3    46  TYR46       0.1605
     13  C         26.5000  -12.5490   15.5320 C.2    46  TYR46       0.2264
     14  O         25.9510  -13.4210   14.8600 O.2    46  TYR46      -0.2867
     15  CB        24.2520  -11.6500   16.3420 C.3    46  TYR46       0.0534
     16  CG        24.0520  -12.5610   17.5380 C.ar   46  TYR46      -0.0201
     17  CD1       24.4520  -12.1080   18.8020 C.ar   46  TYR46      -0.0009
     18  CD2       23.5150  -13.8230   17.4280 C.ar   46  TYR46      -0.0009
     19  CE1       24.2900  -12.9150   19.9110 C.ar   46  TYR46       0.0417
     20  CE2       23.3450  -14.6380   18.5340 C.ar   46  TYR46       0.0417
     21  CZ        23.7460  -14.1610   19.7780 C.ar   46  TYR46       0.1957
     22  OH        23.5730  -14.9850   20.8660 O.3    46  TYR46      -0.2866
     23  N         25.4480  -16.3280   14.9000 N.3    49  TRP49      -0.1241
     24  CA        24.5120  -16.5800   13.8210 C.3    49  TRP49       0.1605
     25  C         25.0640  -16.1110   12.4790 C.2    49  TRP49       0.2264
     26  O         24.3490  -16.0710   11.4770 O.2    49  TRP49      -0.2867
     27  CB        23.1870  -15.8590   14.1160 C.3    49  TRP49       0.0550
     28  CG        22.4880  -16.5200   15.2690 C.ar   49  TRP49       0.0003
     29  CD1       22.8390  -17.7110   15.8290 C.ar   49  TRP49       0.0946
     30  CD2       21.3460  -16.0560   15.9930 C.ar   49  TRP49       0.0152
     31  NE1       21.9920  -18.0240   16.8610 N.ar   49  TRP49      -0.2442
     32  CE2       21.0630  -17.0230   16.9830 C.ar   49  TRP49       0.0810
     33  CE3       20.5330  -14.9220   15.9050 C.ar   49  TRP49       0.0012
     34  CZ2       20.0050  -16.8960   17.8810 C.ar   49  TRP49       0.0191
     35  CZ3       19.4820  -14.7950   16.7960 C.ar   49  TRP49       0.0001
     36  CH2       19.2280  -15.7710   17.7670 C.ar   49  TRP49       0.0015
     37  N         28.0890   -9.3820   22.9930 N.3    91  TRP91      -0.1227
     38  CA        27.3660  -10.4010   22.2650 C.3    91  TRP91       0.1737
     39  C         27.7530  -11.8100   22.7210 C.2    91  TRP91       0.2595
     40  O         27.0630  -12.7660   22.3540 O.2    91  TRP91      -0.2718
     41  CB        27.6000  -10.3100   20.7540 C.3    91  TRP91       0.0564
     42  CG        29.0280  -10.3930   20.2970 C.ar   91  TRP91       0.0003
     43  CD1       29.7890   -9.2630   20.0860 C.ar   91  TRP91       0.0946
     44  CD2       29.8720  -11.5170   19.9980 C.ar   91  TRP91       0.0152
     45  NE1       31.0490   -9.6370   19.6760 N.ar   91  TRP91      -0.2442
     46  CE2       31.1280  -11.0050   19.6150 C.ar   91  TRP91       0.0810
     47  CE3       29.7050  -12.9090   20.0140 C.ar   91  TRP91       0.0012
     48  CZ2       32.2080  -11.8200   19.2510 C.ar   91  TRP91       0.0191
     49  CZ3       30.7830  -13.7260   19.6520 C.ar   91  TRP91       0.0001
     50  CH2       32.0030  -13.1720   19.2780 C.ar   91  TRP91       0.0015
     51  N         28.8220  -11.9330   23.5200 N.am   92  ARG92      -0.1966
     52  CA        29.1870  -13.3090   23.8950 C.3    92  ARG92       0.1729
     53  C         28.3900  -13.8220   25.0730 C.2    92  ARG92       0.2616
     54  O         28.0770  -15.0220   25.1220 O.2    92  ARG92      -0.2715
     55  CB        30.6800  -13.4070   24.2090 C.3    92  ARG92       0.0348
     56  CG        31.5850  -12.8400   23.1190 C.3    92  ARG92       0.0492
     57  CD        33.0370  -13.0720   23.5440 C.3    92  ARG92       0.2205
     58  NE        33.9200  -13.0810   22.3900 N.pl3  92  ARG92      -0.0865
     59  CZ        34.3360  -14.1900   21.7730 C.cat  92  ARG92       0.5346
     60  NH1       33.9500  -15.3800   22.1980 N.pl3  92  ARG92       0.1354
     61  NH2       35.1410  -14.0200   20.7350 N.pl3  92  ARG92       0.1354
     62  N         28.0360  -12.9500   26.0100 N.am   93  GLU93      -0.1963
     63  CA        27.3520  -13.4440   27.1980 C.3    93  GLU93       0.1733
     64  C         25.8950  -13.0940   27.3480 C.2    93  GLU93       0.2616
     65  O         25.0230  -13.9500   27.5870 O.2    93  GLU93      -0.2715
     66  CB        28.1060  -12.8440   28.3960 C.3    93  GLU93       0.0429
     67  CG        27.7190  -13.5210   29.6970 C.3    93  GLU93       0.1163
     68  CD        28.2860  -12.7960   30.8990 C.2    93  GLU93       0.3649
     69  OE1       28.9450  -11.7420   30.7160 O.co2  93  GLU93      -0.2457
     70  OE2       28.0370  -13.2970   32.0170 O.co2  93  GLU93      -0.2457
     71  N         25.5610  -11.7990   27.2630 N.am   94  ASN94      -0.1958
     72  CA        24.2300  -11.4110   27.7130 C.3    94  ASN94       0.1819
     73  C         23.6690  -10.2070   26.9760 C.2    94  ASN94       0.2621
     74  O         22.6960   -9.6010   27.4510 O.2    94  ASN94      -0.2715
     75  CB        24.2480  -11.0890   29.2050 C.3    94  ASN94       0.1195
     76  CG        25.2940  -10.0370   29.5250 C.2    94  ASN94       0.2630
     77  OD1       26.0080   -9.4890   28.6850 O.2    94  ASN94      -0.2716
     78  ND2       25.3800   -9.7320   30.8200 N.am   94  ASN94      -0.0877
     79  N         24.2400   -9.8640   25.8390 N.am   95  LEU95      -0.1977
     80  CA        23.8070   -8.6910   25.0690 C.3    95  LEU95       0.1596
     81  C         23.9320   -7.4100   25.8660 C.2    95  LEU95       0.2287
     82  O         23.1840   -6.4360   25.6700 O.2    95  LEU95      -0.2864
     83  CB        22.3570   -8.8390   24.6250 C.3    95  LEU95       0.0297
     84  CG        21.9930   -9.2690   23.2130 C.3    95  LEU95       0.0022
     85  CD1       23.0630  -10.1510   22.6090 C.3    95  LEU95       0.0001
     86  CD2       20.6680  -10.0310   23.1070 C.3    95  LEU95       0.0001
     87  N          5.3210  -16.6600   19.5230 N.3   145  GLU145     -0.1245
     88  CA         6.6520  -17.2100   19.6870 C.3   145  GLU145      0.1567
     89  C          7.0540  -18.1680   18.5690 C.2   145  GLU145      0.2260
     90  O          6.2690  -19.0820   18.2830 O.2   145  GLU145     -0.2867
     91  CB         6.7550  -17.9690   21.0260 C.3   145  GLU145      0.0388
     92  CG         8.1720  -18.5340   21.1240 C.3   145  GLU145      0.1160
     93  CD         8.4770  -19.0080   22.5260 C.2   145  GLU145      0.3649
     94  OE1        7.8390  -18.5250   23.4770 O.co2 145  GLU145     -0.2457
     95  OE2        9.3580  -19.8840   22.6550 O.co2 145  GLU145     -0.2457
     96  N         20.2090  -15.8130   32.8920 N.3   170  ILE170     -0.1245
     97  CA        21.1510  -14.8440   32.3550 C.3   170  ILE170      0.1561
     98  C         21.5500  -13.7730   33.3670 C.2   170  ILE170      0.2260
     99  O         20.7290  -13.3510   34.1830 O.2   170  ILE170     -0.2867
    100  CB        20.5870  -14.1280   31.1140 C.3   170  ILE170      0.0252
    101  CG1       20.1280  -15.0830   30.0160 C.3   170  ILE170      0.0019
    102  CG2       21.6010  -13.1410   30.5360 C.3   170  ILE170      0.0019
    103  CD1       21.2730  -15.8880   29.4380 C.3   170  ILE170      0.0001
    104  N          4.0350   -9.0470   24.8480 N.3   190  ASP190     -0.1225
    105  CA         5.4920   -9.0120   24.8120 C.3   190  ASP190      0.1805
    106  C          5.9510   -8.6250   23.4210 C.2   190  ASP190      0.2598
    107  O          5.1530   -8.6560   22.4740 O.2   190  ASP190     -0.2718
    108  CB         6.0130  -10.4070   25.1730 C.3   190  ASP190      0.1424
    109  CG         7.4630  -10.4870   25.5750 C.2   190  ASP190      0.3668
    110  OD1        8.1040   -9.4400   25.7700 O.co2 190  ASP190     -0.2456
    111  OD2        7.9560  -11.6530   25.7350 O.co2 190  ASP190     -0.2456
    112  N          7.2410   -8.2710   23.3600 N.am  191  ALA191     -0.1966
    113  CA         7.8690   -8.1070   22.0780 C.3   191  ALA191      0.1728
    114  C          8.2680   -9.5220   21.6450 C.2   191  ALA191      0.2616
    115  O          8.1160  -10.4260   22.4610 O.2   191  ALA191     -0.2715
    116  CB         9.1080   -7.2180   22.1550 C.3   191  ALA191      0.0334
    117  N          8.7410   -9.6570   20.4250 N.am  192  CYS192     -0.1954
    118  CA         9.1430  -11.0030   19.9830 C.3   192  CYS192      0.1843
    119  C         10.1670  -10.8420   18.8840 C.2   192  CYS192      0.2625
    120  O         10.5390   -9.7130   18.5520 O.2   192  CYS192     -0.2714
    121  CB         7.9030  -11.7700   19.5310 C.3   192  CYS192      0.0997
    122  SG         8.1680  -13.5720   19.3880 S.3   192  CYS192     -0.0797
    123  N         10.6310  -11.9470   18.3220 N.am  193  GLU193     -0.1977
    124  CA        11.5360  -11.8890   17.1860 C.3   193  GLU193      0.1602
    125  C         11.0260  -10.9450   16.1240 C.2   193  GLU193      0.2287
    126  O          9.8030  -10.9920   15.8610 O.2   193  GLU193     -0.2864
    127  CB        11.6160  -13.3240   16.6190 C.3   193  GLU193      0.0415
    128  CG        12.5320  -14.2260   17.4150 C.3   193  GLU193      0.1163
    129  CD        11.9480  -15.0420   18.5410 C.2   193  GLU193      0.3649
    130  OE1       10.9180  -15.7250   18.3290 O.co2 193  GLU193     -0.2457
    131  OE2       12.5330  -15.0370   19.6600 O.co2 193  GLU193     -0.2457
    132  N         12.9630   -6.6940   17.6790 N.3   196  SER196     -0.1217
    133  CA        14.3030   -6.3180   18.0500 C.3   196  SER196      0.1889
    134  C         14.6910   -4.9210   17.5570 C.2   196  SER196      0.2288
    135  O         14.4030   -4.6460   16.3850 O.2   196  SER196     -0.2866
    136  CB        15.2780   -7.2970   17.3850 C.3   196  SER196      0.2089
    137  OG        15.3280   -8.5320   18.0370 O.3   196  SER196     -0.2183
    138  N         14.2220   -2.7170   22.2600 N.3   216  VAL216     -0.1231
    139  CA        13.9120   -4.1530   22.3400 C.3   216  VAL216      0.1692
    140  C         15.1670   -4.9780   22.1650 C.2   216  VAL216      0.2593
    141  O         15.7930   -4.8950   21.1100 O.2   216  VAL216     -0.2718
    142  CB        12.9040   -4.5360   21.2500 C.3   216  VAL216      0.0266
    143  CG1       12.6090   -6.0360   21.2990 C.3   216  VAL216      0.0020
    144  CG2       11.6030   -3.7470   21.4030 C.3   216  VAL216      0.0020
    145  N         15.5160   -5.7790   23.1820 N.am  217  SER217     -0.1938
    146  CA        16.7920   -6.5110   23.1310 C.3   217  SER217      0.2055
    147  C         16.6420   -8.0100   23.0980 C.2   217  SER217      0.2643
    148  O         17.0850   -8.7100   22.1690 O.2   217  SER217     -0.2714
    149  CB        17.6240   -6.0870   24.3630 C.3   217  SER217      0.2130
    150  OG        18.9090   -6.6420   24.3040 O.3   217  SER217     -0.2179
    151  N         16.0600   -8.6370   24.1220 N.am  218  TRP218     -0.1959
    152  CA        16.0350  -10.0950   24.1620 C.3   218  TRP218      0.1771
    153  C         14.9500  -10.6310   25.0670 C.2   218  TRP218      0.2620
    154  O         14.3550   -9.8800   25.8320 O.2   218  TRP218     -0.2715
    155  CB        17.3870  -10.6690   24.6270 C.3   218  TRP218      0.0590
    156  CG        17.8590  -10.3240   25.9970 C.ar  218  TRP218      0.0006
    157  CD1       18.6000   -9.2410   26.3770 C.ar  218  TRP218      0.0946
    158  CD2       17.6350  -11.0870   27.2030 C.ar  218  TRP218      0.0152
    159  NE1       18.8390   -9.2860   27.7350 N.ar  218  TRP218     -0.2442
    160  CE2       18.2590  -10.4020   28.2590 C.ar  218  TRP218      0.0810
    161  CE3       16.9540  -12.2900   27.4600 C.ar  218  TRP218      0.0012
    162  CZ2       18.2330  -10.8720   29.5800 C.ar  218  TRP218      0.0191
    163  CZ3       16.9260  -12.7570   28.7630 C.ar  218  TRP218      0.0001
    164  CH2       17.5570  -12.0520   29.7860 C.ar  218  TRP218      0.0015
    165  N         14.7310  -11.9400   24.9390 N.am  219  GLY219     -0.1940
    166  CA        13.7500  -12.6060   25.7940 C.3   219  GLY219      0.2014
    167  C         13.9050  -14.1270   25.5710 C.2   219  GLY219      0.2639
    168  O         14.4220  -14.5130   24.5410 O.2   219  GLY219     -0.2714
    169  N         13.4220  -14.8480   26.5530 N.am  220  GLU220     -0.1963
    170  CA        13.4130  -16.3210   26.5750 C.3   220  GLU220      0.1733
    171  C         12.0540  -16.7170   26.0150 C.2   220  GLU220      0.2617
    172  O         11.0560  -16.7680   26.7200 O.2   220  GLU220     -0.2715
    173  CB        13.6580  -16.8290   27.9920 C.3   220  GLU220      0.0429
    174  CG        15.0400  -16.5200   28.5430 C.3   220  GLU220      0.1163
    175  CD        15.1380  -16.2720   30.0280 C.2   220  GLU220      0.3649
    176  OE1       14.2820  -15.5650   30.5930 O.co2 220  GLU220     -0.2457
    177  OE2       16.0980  -16.7450   30.6670 O.co2 220  GLU220     -0.2457
    178  N         11.9810  -16.9310   24.6970 N.am  221  GLY221     -0.1940
    179  CA        10.6960  -17.0990   24.0460 C.3   221  GLY221      0.2014
    180  C          9.9290  -15.7780   23.9970 C.2   221  GLY221      0.2639
    181  O         10.5370  -14.7230   24.1840 O.2   221  GLY221     -0.2714
    182  N          8.6270  -15.8100   23.7600 N.am  222  CYS222     -0.1967
    183  CA         7.8070  -14.6050   23.6950 C.3   222  CYS222      0.1712
    184  C          6.5310  -14.7890   24.4890 C.2   222  CYS222      0.2296
    185  O          5.8540  -15.7870   24.1970 O.2   222  CYS222     -0.2864
    186  CB         7.4460  -14.2920   22.2360 C.3   222  CYS222      0.0983
    187  SG         8.9180  -14.0570   21.2140 S.3   222  CYS222     -0.0798
    188  N          5.9270  -15.7430   27.4060 N.3   224  ARG224     -0.1245
    189  CA         5.7400  -16.9150   28.2460 C.3   224  ARG224      0.1563
    190  C          5.4690  -16.4500   29.6700 C.2   224  ARG224      0.2260
    191  O          6.0120  -15.4400   30.1120 O.2   224  ARG224     -0.2867
    192  CB         6.9470  -17.8560   28.2520 C.3   224  ARG224      0.0307
    193  CG         7.3540  -18.3490   26.8690 C.3   224  ARG224      0.0489
    194  CD         8.3900  -19.4650   27.0380 C.3   224  ARG224      0.2205
    195  NE         8.9900  -19.9370   25.8030 N.pl3 224  ARG224     -0.0865
    196  CZ         9.1130  -21.2400   25.5390 C.cat 224  ARG224      0.5346
    197  NH1        8.6740  -22.1200   26.4280 N.pl3 224  ARG224      0.1354
    198  NH2        9.6590  -21.6720   24.4150 N.pl3 224  ARG224      0.1354
    199  N          8.2550  -15.2190   32.3490 N.3   227  LYS227     -0.1231
    200  CA         9.4130  -14.6500   31.6440 C.3   227  LYS227      0.1693
    201  C          9.1160  -13.1790   31.3480 C.2   227  LYS227      0.2592
    202  O          7.9430  -12.7710   31.4080 O.2   227  LYS227     -0.2718
    203  CB         9.6650  -15.3450   30.3230 C.3   227  LYS227      0.0285
    204  CG        10.0950  -16.8090   30.4880 C.3   227  LYS227      0.0035
    205  CD        11.3090  -16.9760   31.3880 C.3   227  LYS227      0.0206
    206  CE        11.8730  -18.3960   31.2460 C.3   227  LYS227      0.1093
    207  NZ        13.0620  -18.6320   32.1190 N.3   227  LYS227     -0.1314
    208  N         10.1560  -12.4010   31.0640 N.am  228  TYR228     -0.1962
    209  CA         9.9460  -10.9730   30.7920 C.3   228  TYR228      0.1771
    210  C         10.7390  -10.5750   29.5640 C.2   228  TYR228      0.2620
    211  O         11.7240  -11.2160   29.1650 O.2   228  TYR228     -0.2715
    212  CB        10.3110  -10.1030   32.0180 C.3   228  TYR228      0.0574
    213  CG         9.3610  -10.4520   33.1580 C.ar  228  TYR228     -0.0198
    214  CD1        9.7430  -11.4290   34.0710 C.ar  228  TYR228     -0.0009
    215  CD2        8.1150   -9.8680   33.3050 C.ar  228  TYR228     -0.0009
    216  CE1        8.9090  -11.7850   35.1110 C.ar  228  TYR228      0.0417
    217  CE2        7.2630  -10.2180   34.3450 C.ar  228  TYR228      0.0417
    218  CZ         7.6780  -11.1820   35.2390 C.ar  228  TYR228      0.1957
    219  OH         6.8630  -11.5620   36.2850 O.3   228  TYR228     -0.2866
    220  N         10.3050   -9.4550   28.9620 N.am  229  GLY229     -0.1940
    221  CA        11.0770   -8.9260   27.8450 C.3   229  GLY229      0.2014
    222  C         12.1540   -8.0140   28.4250 C.2   229  GLY229      0.2639
    223  O         11.8560   -7.2870   29.3960 O.2   229  GLY229     -0.2714
    224  N         13.3580   -8.0550   27.8660 N.am  230  PHE230     -0.1959
    225  CA        14.4980   -7.2580   28.2950 C.3   230  PHE230      0.1771
    226  C         14.8160   -6.2000   27.2530 C.2   230  PHE230      0.2619
    227  O         14.6960   -6.4400   26.0660 O.2   230  PHE230     -0.2715
    228  CB        15.7440   -8.1350   28.5350 C.3   230  PHE230      0.0574
    229  CG        15.6040   -8.8580   29.8820 C.ar  230  PHE230     -0.0200
    230  CD1       14.8510   -9.9990   29.9840 C.ar  230  PHE230     -0.0042
    231  CD2       16.2420   -8.3320   31.0060 C.ar  230  PHE230     -0.0042
    232  CE1       14.6830  -10.6710   31.1930 C.ar  230  PHE230     -0.0003
    233  CE2       16.0830   -9.0200   32.2070 C.ar  230  PHE230     -0.0003
    234  CZ        15.3140  -10.1590   32.3010 C.ar  230  PHE230     -0.0000
    235  N         15.1630   -5.0250   27.7590 N.am  231  TYR231     -0.1974
    236  CA        15.3420   -3.8090   26.9940 C.3   231  TYR231      0.1639
    237  C         16.6550   -3.1450   27.3520 C.2   231  TYR231      0.2290
    238  O         17.0610   -3.0350   28.5080 O.2   231  TYR231     -0.2864
    239  CB        14.1510   -2.8670   27.3020 C.3   231  TYR231      0.0560
    240  CG        12.8370   -3.4820   26.9290 C.ar  231  TYR231     -0.0198
    241  CD1       12.1550   -4.3260   27.8020 C.ar  231  TYR231     -0.0009
    242  CD2       12.2690   -3.2330   25.6810 C.ar  231  TYR231     -0.0009
    243  CE1       10.9330   -4.8990   27.4580 C.ar  231  TYR231      0.0417
    244  CE2       11.0550   -3.8180   25.3340 C.ar  231  TYR231      0.0417
    245  CZ        10.4010   -4.6530   26.2210 C.ar  231  TYR231      0.1957
    246  OH         9.2010   -5.1980   25.8240 O.3   231  TYR231     -0.2866
@<TRIPOS>BOND
     1    26    25    2
     2    25    24    1
     3    24    27    1
     4    24    23    1
     5    27    28    1
     6    14    13    2
     7    11    12    1
     8    28    29   ar
     9    28    30   ar
    10    13    12    1
    11     4     3    2
    12    29    31   ar
    13   126   125    2
    14    33    30   ar
    15    33    35   ar
    16    30    32   ar
    17    12    15    1
    18   125   124    1
    19     3     2    1
    20    15    16    1
    21   135   134    2
    22   127   124    1
    23   127   128    1
    24    35    36   ar
    25    31    32   ar
    26    32    34   ar
    27   124   123    1
    28   136   137    1
    29   136   133    1
    30   128   129    1
    31    18    16   ar
    32    18    20   ar
    33    16    17   ar
    34   134   133    1
    35     2     1    1
    36     2     5    1
    37   132   133    1
    38    36    34   ar
    39     8    10   ar
    40     8     6   ar
    41    90    89    2
    42   123   119   am
    43   130   129   ar
    44    20    21   ar
    45   129   131   ar
    46   120   119    2
    47    89    88    1
    48    10     9   ar
    49     5     6    1
    50    17    19   ar
    51     6     7   ar
    52   119   118    1
    53    48    50   ar
    54    48    46   ar
    55    50    49   ar
    56   122   121    1
    57   122   187    1
    58    87    88    1
    59   121   118    1
    60     9     7   ar
    61    46    45   ar
    62    46    44   ar
    63    49    47   ar
    64    45    43   ar
    65    88    91    1
    66    21    19   ar
    67    21    22    1
    68   118   117    1
    69    44    47   ar
    70    44    42   ar
    71    43    42   ar
    72    42    41    1
    73   117   114   am
    74    61    59    1
    75    41    38    1
    76    91    92    1
    77   141   140    2
    78    92    93    1
    79   187   186    1
    80   142   143    1
    81   142   144    1
    82   142   139    1
    83   114   113    1
    84   114   115    2
    85    59    60    1
    86    59    58    2
    87   113   116    1
    88   113   112    1
    89   140   139    1
    90   140   145   am
    91   148   147    2
    92   186   183    1
    93   138   139    1
    94    38    39    1
    95    38    37    1
    96    40    39    2
    97    58    57    1
    98   107   106    2
    99    93    95   ar
   100    93    94   ar
   101    85    84    1
   102    39    51   am
   103   147   146    1
   104   147   151   am
   105    86    84    1
   106    56    57    1
   107    56    55    1
   108   146   145    1
   109   146   149    1
   110    84    83    1
   111   112   106   am
   112   106   105    1
   113    51    52    1
   114   183   182    1
   115   183   184    1
   116   182   180   am
   117    52    55    1
   118    52    53    1
   119   180   179    1
   120   180   181    2
   121   179   178    1
   122   151   152    1
   123   152   155    1
   124   152   153    1
   125   185   184    2
   126   150   149    1
   127   198   196    1
   128   168   167    2
   129    83    80    1
   130   155   156    1
   131   178   171   am
   132   105   104    1
   133   105   108    1
   134   165   153   am
   135   165   166    1
   136   153   154    2
   137    80    79    1
   138    80    81    1
   139    53    54    2
   140    53    62   am
   141   108   109    1
   142   244   242   ar
   143   244   245   ar
   144   196   195    2
   145   196   197    1
   146   167   166    1
   147   167   169   am
   148   109   111   ar
   149   109   110   ar
   150    82    81    2
   151   242   240   ar
   152   195   194    1
   153   246   245    1
   154    79    73   am
   155   156   157   ar
   156   156   158   ar
   157    62    63    1
   158   171   170    1
   159   171   172    2
   160   227   226    2
   161   245   243   ar
   162   157   159   ar
   163   169   170    1
   164   170   173    1
   165   193   194    1
   166   193   192    1
   167   240   239    1
   168   240   241   ar
   169    73    74    2
   170    73    72    1
   171   236   239    1
   172   236   237    1
   173   236   235    1
   174    63    64    1
   175    63    66    1
   176   158   161   ar
   177   158   160   ar
   178   226   235   am
   179   226   225    1
   180    71    64   am
   181    71    72    1
   182    64    65    2
   183   237   238    2
   184   188   189    1
   185   243   241   ar
   186   161   163   ar
   187    72    75    1
   188   159   160   ar
   189   221   222    1
   190   221   220    1
   191   224   225    1
   192   224   222   am
   193   173   174    1
   194   189   192    1
   195   189   190    1
   196   160   162   ar
   197   225   228    1
   198    66    67    1
   199   222   223    2
   200   228   229    1
   201   174   175    1
   202    77    76    2
   203   163   164   ar
   204   220   210   am
   205   211   210    2
   206    75    76    1
   207   103   101    1
   208    76    78   am
   209   210   209    1
   210   162   164   ar
   211   190   191    2
   212    67    68    1
   213   229   230   ar
   214   229   231   ar
   215   230   232   ar
   216   101   100    1
   217   175   176   ar
   218   175   177   ar
   219   203   204    1
   220   203   200    1
   221   204   205    1
   222   102   100    1
   223    69    68   ar
   224   209   208    1
   225   209   212    1
   226    68    70   ar
   227   231   233   ar
   228   208   201   am
   229   100    97    1
   230   232   234   ar
   231   206   205    1
   232   206   207    1
   233   201   202    2
   234   201   200    1
   235   200   199    1
   236   212   213    1
   237   233   234   ar
   238    97    96    1
   239    97    98    1
   240   213   215   ar
   241   213   214   ar
   242   215   217   ar
   243    98    99    2
   244   214   216   ar
   245   217   218   ar
   246   216   218   ar
   247   218   219    1
