@<TRIPOS>MOLECULE
tmp/3utvA01.pdb
 103 98 0 0 0
SMALL
GASTEIGER

@<TRIPOS>ATOM
      1  N        -34.5420   -8.7950  -18.5790 N.3   126  VAL126     -0.1301
      2  CA       -35.0040   -7.3950  -18.8200 C.3   126  VAL126      0.1246
      3  C        -34.1970   -6.5380  -17.8250 C.3   126  VAL126      0.2009
      4  O        -34.2890   -6.7670  -16.5620 O.3   126  VAL126     -0.2188
      5  CB       -36.5250   -7.1910  -18.5650 C.3   126  VAL126      0.0202
      6  CG1      -36.8760   -5.6680  -18.5740 C.3   126  VAL126      0.0016
      7  CG2      -37.4440   -7.9960  -19.5750 C.3   126  VAL126      0.0016
      8  N        -33.9780   -3.5750  -16.4950 N.3   128  SER128     -0.1202
      9  CA       -34.4960   -2.8250  -15.3680 C.3   128  SER128      0.2020
     10  C        -35.1230   -3.7270  -14.2710 C.2   128  SER128      0.2618
     11  O        -35.0350   -3.4120  -13.0650 O.2   128  SER128     -0.2717
     12  CB       -35.3990   -1.6910  -15.8920 C.3   128  SER128      0.2103
     13  OG       -36.6470   -2.2050  -16.2380 O.3   128  SER128     -0.2182
     14  N        -35.6510   -4.9110  -14.6540 N.am  129  TYR129     -0.1975
     15  CA       -36.1490   -5.8680  -13.6400 C.3   129  TYR129      0.1639
     16  C        -35.0430   -6.5670  -12.8350 C.2   129  TYR129      0.2290
     17  O        -35.2980   -7.0040  -11.7280 O.2   129  TYR129     -0.2864
     18  CB       -37.1040   -6.9540  -14.2310 C.3   129  TYR129      0.0560
     19  CG       -38.3500   -6.4670  -14.9050 C.ar  129  TYR129     -0.0198
     20  CD1      -38.8230   -5.1750  -14.7240 C.ar  129  TYR129     -0.0009
     21  CD2      -39.0790   -7.3340  -15.7210 C.ar  129  TYR129     -0.0009
     22  CE1      -39.9660   -4.7480  -15.3490 C.ar  129  TYR129      0.0417
     23  CE2      -40.2210   -6.9160  -16.3640 C.ar  129  TYR129      0.0417
     24  CZ       -40.6650   -5.6350  -16.1770 C.ar  129  TYR129      0.1957
     25  OH       -41.8170   -5.2490  -16.8320 O.3   129  TYR129     -0.2866
     26  N        -32.7990   -4.9930  -11.3160 N.3   131  PHE131     -0.1227
     27  CA       -32.7030   -4.1390  -10.1830 C.3   131  PHE131      0.1736
     28  C        -33.9180   -4.2080   -9.2350 C.2   131  PHE131      0.2595
     29  O        -33.7570   -3.9930   -8.0330 O.2   131  PHE131     -0.2718
     30  CB       -32.3590   -2.6880  -10.6060 C.3   131  PHE131      0.0547
     31  CG       -31.0080   -2.5600  -11.2650 C.ar  131  PHE131     -0.0202
     32  CD1      -29.8680   -2.6800  -10.5210 C.ar  131  PHE131     -0.0042
     33  CD2      -30.8980   -2.3560  -12.6600 C.ar  131  PHE131     -0.0042
     34  CE1      -28.6150   -2.6110  -11.0930 C.ar  131  PHE131     -0.0003
     35  CE2      -29.6240   -2.2720  -13.2580 C.ar  131  PHE131     -0.0003
     36  CZ       -28.4970   -2.4190  -12.4950 C.ar  131  PHE131     -0.0000
     37  N        -35.0990   -4.5770   -9.7380 N.am  132  VAL132     -0.1980
     38  CA       -36.2400   -4.8660   -8.8380 C.3   132  VAL132      0.1595
     39  C        -35.9240   -6.0380   -7.8800 C.2   132  VAL132      0.2287
     40  O        -36.0920   -5.9290   -6.6290 O.2   132  VAL132     -0.2864
     41  CB       -37.5560   -5.1740   -9.6170 C.3   132  VAL132      0.0276
     42  CG1      -38.6250   -5.6640   -8.6780 C.3   132  VAL132      0.0022
     43  CG2      -38.0430   -3.9340  -10.4570 C.3   132  VAL132      0.0022
     44  N        -32.8770   -7.1570   -7.1440 N.3   134  TRP134     -0.1227
     45  CA       -31.7800   -6.6580   -6.2810 C.3   134  TRP134      0.1737
     46  C        -32.3290   -5.8920   -5.0630 C.2   134  TRP134      0.2595
     47  O        -31.8690   -6.1020   -3.9080 O.2   134  TRP134     -0.2718
     48  CB       -30.7880   -5.7930   -7.0850 C.3   134  TRP134      0.0564
     49  CG       -29.7880   -5.0440   -6.2660 C.ar  134  TRP134      0.0003
     50  CD1      -28.5110   -5.4870   -5.8930 C.ar  134  TRP134      0.0946
     51  CD2      -29.9140   -3.7130   -5.7400 C.ar  134  TRP134      0.0152
     52  NE1      -27.8870   -4.5210   -5.1510 N.ar  134  TRP134     -0.2442
     53  CE2      -28.7140   -3.4300   -5.0280 C.ar  134  TRP134      0.0810
     54  CE3      -30.9510   -2.7490   -5.7550 C.ar  134  TRP134      0.0012
     55  CZ2      -28.5110   -2.2080   -4.3190 C.ar  134  TRP134      0.0191
     56  CZ3      -30.7540   -1.5370   -5.0720 C.ar  134  TRP134      0.0001
     57  CH2      -29.5320   -1.2650   -4.3730 C.ar  134  TRP134      0.0015
     58  N        -33.2960   -5.0060   -5.3220 N.am  135  ALA135     -0.1980
     59  CA       -33.9040   -4.1960   -4.2610 C.3   135  ALA135      0.1597
     60  C        -34.6330   -5.0250   -3.2040 C.2   135  ALA135      0.2287
     61  O        -34.4550   -4.7710   -1.9950 O.2   135  ALA135     -0.2864
     62  CB       -34.8590   -3.0740   -4.8700 C.3   135  ALA135      0.0319
     63  N        -31.8930   -6.7690   -1.1070 N.3   138  THR138     -0.1203
     64  CA       -31.3130   -5.8200   -0.2140 C.3   138  THR138      0.1994
     65  C        -32.2680   -5.5100    0.9990 C.2   138  THR138      0.2617
     66  O        -31.7970   -5.4360    2.1630 O.2   138  THR138     -0.2717
     67  CB       -30.8630   -4.5420   -1.0080 C.3   138  THR138      0.1784
     68  OG1      -29.9280   -4.9000   -2.0550 O.3   138  THR138     -0.2211
     69  CG2      -30.1710   -3.4880   -0.0870 C.3   138  THR138      0.0376
     70  N        -33.5910   -5.3620    0.7470 N.am  139  ALA139     -0.1979
     71  CA       -34.5950   -5.2210    1.8450 C.3   139  ALA139      0.1597
     72  C        -34.5330   -6.4230    2.8280 C.2   139  ALA139      0.2287
     73  O        -34.5030   -6.2150    4.0670 O.2   139  ALA139     -0.2864
     74  CB       -36.1000   -4.9290    1.2940 C.3   139  ALA139      0.0319
     75  N        -31.4390   -6.0840    4.9130 N.3   142  LEU142     -0.1245
     76  CA       -31.5280   -5.0850    5.9030 C.3   142  LEU142      0.1561
     77  C        -32.3490   -5.5160    7.1240 C.2   142  LEU142      0.2260
     78  O        -32.0440   -5.0620    8.2460 O.2   142  LEU142     -0.2867
     79  CB       -31.9680   -3.7300    5.3100 C.3   142  LEU142      0.0270
     80  CG       -30.9350   -3.0580    4.3460 C.3   142  LEU142      0.0019
     81  CD1      -31.5940   -1.8540    3.5380 C.3   142  LEU142      0.0001
     82  CD2      -29.6190   -2.6240    4.9980 C.3   142  LEU142      0.0001
     83  N        -24.3530   -4.2190   -7.4270 N.3   186  LEU186     -0.1245
     84  CA       -24.8560   -3.0320   -8.1840 C.3   186  LEU186      0.1561
     85  C        -23.8940   -2.4490   -9.2360 C.2   186  LEU186      0.2260
     86  O        -24.2940   -2.1050  -10.3800 O.2   186  LEU186     -0.2867
     87  CB       -25.2460   -1.9040   -7.1790 C.3   186  LEU186      0.0270
     88  CG       -25.9220   -0.6130   -7.6710 C.3   186  LEU186      0.0019
     89  CD1      -27.3430   -0.9490   -8.1220 C.3   186  LEU186      0.0001
     90  CD2      -26.0150    0.4840   -6.5420 C.3   186  LEU186      0.0001
     91  N        -24.5150   -2.7560  -12.9250 N.3   192  ALA192     -0.1245
     92  CA       -24.1830   -1.6740  -13.8610 C.3   192  ALA192      0.1562
     93  C        -23.0650   -1.9610  -14.8890 C.2   192  ALA192      0.2260
     94  O        -22.9690   -1.2690  -15.8960 O.2   192  ALA192     -0.2867
     95  CB       -23.8430   -0.4080  -13.0740 C.3   192  ALA192      0.0290
     96  N        -19.7570   -1.6020  -14.4030 N.3   194  ILE194     -0.1245
     97  CA       -18.6540   -0.6050  -14.2860 C.3   194  ILE194      0.1561
     98  C        -17.2900   -1.2160  -13.8650 C.2   194  ILE194      0.2260
     99  O        -16.2800   -0.9780  -14.5030 O.2   194  ILE194     -0.2867
    100  CB       -19.0080    0.5540  -13.3500 C.3   194  ILE194      0.0252
    101  CG1      -20.2600    1.3040  -13.8640 C.3   194  ILE194      0.0019
    102  CG2      -17.7500    1.5340  -13.1610 C.3   194  ILE194      0.0019
    103  CD1      -21.0430    2.1150  -12.7130 C.3   194  ILE194      0.0001
@<TRIPOS>BOND
     1     7     5    1
     2     2     1    1
     3     2     5    1
     4     2     3    1
     5     6     5    1
     6     3     4    1
     7    25    24    1
     8     8     9    1
     9    23    24   ar
    10    23    21   ar
    11    13    12    1
    12    24    22   ar
    13    94    93    2
    14    12     9    1
    15    21    19   ar
    16     9    10    1
    17    22    20   ar
    18    19    20   ar
    19    19    18    1
    20    93    92    1
    21    14    10   am
    22    14    15    1
    23    99    98    2
    24    96    97    1
    25    97    98    1
    26    97   100    1
    27    10    11    2
    28    18    15    1
    29   101   100    1
    30   101   103    1
    31    92    95    1
    32    92    91    1
    33    15    16    1
    34   100   102    1
    35    35    33   ar
    36    35    36   ar
    37    16    17    2
    38    33    31   ar
    39    36    34   ar
    40    26    27    1
    41    31    30    1
    42    31    32   ar
    43    34    32   ar
    44    30    27    1
    45    43    41    1
    46    86    85    2
    47    27    28    1
    48    37    28   am
    49    37    38    1
    50    41    38    1
    51    41    42    1
    52    85    84    1
    53    28    29    2
    54    38    39    1
    55    84    83    1
    56    84    87    1
    57    89    88    1
    58    39    40    2
    59    88    87    1
    60    88    90    1
    61    44    45    1
    62    48    45    1
    63    48    49    1
    64    45    46    1
    65    49    50   ar
    66    49    51   ar
    67    50    52   ar
    68    54    51   ar
    69    54    56   ar
    70    51    53   ar
    71    58    46   am
    72    58    59    1
    73    52    53   ar
    74    56    57   ar
    75    46    47    2
    76    53    55   ar
    77    62    59    1
    78    57    55   ar
    79    59    60    1
    80    60    61    2
    81    68    67    1
    82    63    64    1
    83    67    64    1
    84    67    69    1
    85    64    65    1
    86    70    65   am
    87    70    71    1
    88    65    66    2
    89    74    71    1
    90    71    72    1
    91    72    73    2
    92    81    80    1
    93    80    82    1
    94    80    79    1
    95    75    76    1
    96    79    76    1
    97    76    77    1
    98    77    78    2
