@<TRIPOS>MOLECULE
tmp/3utwA02.pdb
 81 79 0 0 0
SMALL
GASTEIGER

@<TRIPOS>ATOM
      1  N        -15.1020  -25.7990   -1.6300 N.3    51  THR51      -0.1203
      2  CA       -15.6080  -26.5720   -2.7540 C.3    51  THR51       0.1994
      3  C        -16.1710  -25.6900   -3.9210 C.2    51  THR51       0.2617
      4  O        -15.9720  -26.0040   -5.1010 O.2    51  THR51      -0.2717
      5  CB       -16.6510  -27.6770   -2.3090 C.3    51  THR51       0.1784
      6  OG1      -17.9420  -27.0690   -2.1180 O.3    51  THR51      -0.2211
      7  CG2      -16.2050  -28.3810   -1.0270 C.3    51  THR51       0.0376
      8  N        -16.8750  -24.5980   -3.5890 N.am   52  MET52      -0.1979
      9  CA       -17.4600  -23.7300   -4.6000 C.3    52  MET52       0.1605
     10  C        -16.3970  -22.8850   -5.2860 C.2    52  MET52       0.2287
     11  O        -16.4350  -22.7130   -6.5240 O.2    52  MET52      -0.2864
     12  CB       -18.6280  -22.8950   -4.0320 C.3    52  MET52       0.0413
     13  CG       -19.8160  -23.7690   -3.5920 C.3    52  MET52       0.0598
     14  SD       -20.6320  -24.7400   -4.9080 S.3    52  MET52      -0.1393
     15  CE       -19.7510  -26.3030   -4.8290 C.3    52  MET52       0.0692
     16  N        -13.2770  -23.8260   -5.6890 N.3    54  LEU54      -0.1231
     17  CA       -12.5710  -24.8180   -6.4710 C.3    54  LEU54       0.1693
     18  C        -13.3390  -25.2110   -7.8160 C.2    54  LEU54       0.2592
     19  O        -12.6920  -25.3090   -8.8630 O.2    54  LEU54      -0.2718
     20  CB       -12.2370  -25.9320   -5.5320 C.3    54  LEU54       0.0284
     21  CG       -11.5660  -27.1930   -5.9260 C.3    54  LEU54       0.0019
     22  CD1      -12.7170  -28.1870   -6.1090 C.3    54  LEU54       0.0001
     23  CD2      -10.7260  -26.9270   -7.1560 C.3    54  LEU54       0.0001
     24  N        -14.6810  -25.3190   -7.7810 N.am   55  SER55      -0.1952
     25  CA       -15.4850  -25.5830   -8.9460 C.3    55  SER55       0.1924
     26  C        -15.3710  -24.5010  -10.0350 C.2    55  SER55       0.2314
     27  O        -15.2640  -24.7990  -11.2520 O.2    55  SER55      -0.2863
     28  CB       -16.9480  -25.6480   -8.4800 C.3    55  SER55       0.2116
     29  OG       -17.0590  -26.7600   -7.6080 O.3    55  SER55      -0.2180
     30  N        -13.6720  -23.9440  -13.8340 N.3    59  GLY59      -0.1210
     31  CA       -14.6470  -23.4520  -14.8310 C.3    59  GLY59       0.1956
     32  C        -16.0960  -23.8930  -14.7050 C.2    59  GLY59       0.2612
     33  O        -16.8460  -23.8570  -15.6770 O.2    59  GLY59      -0.2717
     34  N        -16.5350  -24.2770  -13.5190 N.am   60  TYR60      -0.1962
     35  CA       -17.9400  -24.6220  -13.3810 C.3    60  TYR60       0.1771
     36  C        -18.7290  -23.4730  -12.7210 C.2    60  TYR60       0.2620
     37  O        -18.1540  -22.4950  -12.2740 O.2    60  TYR60      -0.2715
     38  CB       -18.1220  -25.9370  -12.6260 C.3    60  TYR60       0.0574
     39  CG       -17.7630  -27.1340  -13.4720 C.ar   60  TYR60      -0.0198
     40  CD1      -16.4640  -27.6360  -13.4870 C.ar   60  TYR60      -0.0009
     41  CD2      -18.7150  -27.7960  -14.2370 C.ar   60  TYR60      -0.0009
     42  CE1      -16.1260  -28.7410  -14.2440 C.ar   60  TYR60       0.0417
     43  CE2      -18.3640  -28.9080  -15.0110 C.ar   60  TYR60       0.0417
     44  CZ       -17.0690  -29.3680  -14.9980 C.ar   60  TYR60       0.1957
     45  OH       -16.7190  -30.4580  -15.7510 O.3    60  TYR60      -0.2866
     46  N        -20.0510  -23.5740  -12.6950 N.am   61  GLY61      -0.1940
     47  CA       -20.8810  -22.5420  -12.0980 C.3    61  GLY61       0.2014
     48  C        -20.8420  -21.2300  -12.8030 C.2    61  GLY61       0.2638
     49  O        -20.9540  -20.1880  -12.1640 O.2    61  GLY61      -0.2714
     50  N        -20.6910  -21.2840  -14.1250 N.am   62  LEU62      -0.1977
     51  CA       -20.5890  -20.0830  -14.9750 C.3    62  LEU62       0.1596
     52  C        -21.5920  -20.1970  -16.1260 C.2    62  LEU62       0.2287
     53  O        -21.8180  -21.2700  -16.7060 O.2    62  LEU62      -0.2864
     54  CB       -19.1660  -19.8440  -15.4720 C.3    62  LEU62       0.0297
     55  CG       -18.8520  -18.5410  -16.1940 C.3    62  LEU62       0.0022
     56  CD1      -19.2530  -17.3790  -15.2970 C.3    62  LEU62       0.0001
     57  CD2      -17.3610  -18.4720  -16.5530 C.3    62  LEU62       0.0001
     58  N        -22.8510  -18.2320  -11.2640 N.3    76  TRP76      -0.1227
     59  CA       -23.9180  -18.5820  -10.3370 C.3    76  TRP76       0.1737
     60  C        -23.5710  -19.5120   -9.1780 C.2    76  TRP76       0.2595
     61  O        -24.2720  -19.5370   -8.1510 O.2    76  TRP76      -0.2718
     62  CB       -25.1010  -19.0930  -11.1250 C.3    76  TRP76       0.0564
     63  CG       -24.7920  -20.3400  -11.8080 C.ar   76  TRP76       0.0003
     64  CD1      -24.3330  -20.5080  -13.1240 C.ar   76  TRP76       0.0946
     65  CD2      -24.9400  -21.6760  -11.2660 C.ar   76  TRP76       0.0152
     66  NE1      -24.2110  -21.8270  -13.4080 N.ar   76  TRP76      -0.2442
     67  CE2      -24.5830  -22.5840  -12.3470 C.ar   76  TRP76       0.0810
     68  CE3      -25.3960  -22.1910  -10.0590 C.ar   76  TRP76       0.0012
     69  CZ2      -24.6280  -23.9260  -12.1910 C.ar   76  TRP76       0.0191
     70  CZ3      -25.4060  -23.5570   -9.8790 C.ar   76  TRP76       0.0001
     71  CH2      -25.0420  -24.4120  -10.9310 C.ar   76  TRP76       0.0015
     72  N        -22.5050  -20.2840   -9.3030 N.am   77  ALA77      -0.1980
     73  CA       -22.1260  -21.1990   -8.2040 C.3    77  ALA77       0.1597
     74  C        -21.8980  -20.4170   -6.9330 C.2    77  ALA77       0.2287
     75  O        -22.1070  -20.8990   -5.8160 O.2    77  ALA77      -0.2864
     76  CB       -20.8690  -22.0110   -8.5690 C.3    77  ALA77       0.0319
     77  N        -24.7240  -20.6660   -4.8810 N.3    80  ALA80      -0.1245
     78  CA       -24.8520  -21.9810   -4.2080 C.3    80  ALA80       0.1562
     79  C        -24.0440  -22.0500   -2.9180 C.2    80  ALA80       0.2260
     80  O        -24.4340  -22.7200   -2.0050 O.2    80  ALA80      -0.2867
     81  CB       -24.4960  -23.1570   -5.1210 C.3    80  ALA80       0.0290
@<TRIPOS>BOND
     1    53    52    2
     2    57    55    1
     3    55    54    1
     4    55    56    1
     5    52    51    1
     6    45    44    1
     7    33    32    2
     8    54    51    1
     9    43    44   ar
    10    43    41   ar
    11    44    42   ar
    12    51    50    1
    13    31    32    1
    14    31    30    1
    15    32    34   am
    16    42    40   ar
    17    41    39   ar
    18    50    48   am
    19    34    35    1
    20    40    39   ar
    21    39    38    1
    22    66    64   ar
    23    66    67   ar
    24    35    36    1
    25    35    38    1
    26    64    63   ar
    27    48    49    2
    28    48    47    1
    29    36    46   am
    30    36    37    2
    31    46    47    1
    32    67    69   ar
    33    67    65   ar
    34    69    71   ar
    35    63    65   ar
    36    63    62    1
    37    65    68   ar
    38    58    59    1
    39    27    26    2
    40    62    59    1
    41    71    70   ar
    42    59    60    1
    43    68    70   ar
    44    26    25    1
    45    72    60   am
    46    72    73    1
    47    60    61    2
    48    25    28    1
    49    25    24    1
    50    19    18    2
    51    76    73    1
    52    28    29    1
    53    73    74    1
    54    18    24   am
    55    18    17    1
    56    23    21    1
    57    74    75    2
    58    11    10    2
    59    17    16    1
    60    17    20    1
    61    22    21    1
    62    21    20    1
    63    10     9    1
    64    81    78    1
    65     4     3    2
    66    14    15    1
    67    14    13    1
    68    77    78    1
    69     9    12    1
    70     9     8    1
    71    78    79    1
    72    12    13    1
    73     3     8   am
    74     3     2    1
    75    79    80    2
    76     2     5    1
    77     2     1    1
    78     5     6    1
    79     5     7    1
