@<TRIPOS>MOLECULE
tmp/3uu1C02.pdb
 121 114 0 0 0
SMALL
GASTEIGER

@<TRIPOS>ATOM
      1  N         22.9600   73.7010   33.3660 N.3    62  MET62      -0.1245
      2  CA        24.1290   73.7820   32.4990 C.3    62  MET62       0.1570
      3  C         24.6770   72.3980   32.1540 C.2    62  MET62       0.2261
      4  O         24.9960   72.1100   30.9810 O.2    62  MET62      -0.2867
      5  CB        25.2410   74.6290   33.0970 C.3    62  MET62       0.0387
      6  CG        24.9120   76.0740   33.1500 C.3    62  MET62       0.0595
      7  SD        26.4060   77.0080   33.5120 S.3    62  MET62      -0.1393
      8  CE        27.3870   76.6360   32.0920 C.3    62  MET62       0.0692
      9  N         40.2950   74.0740   39.5650 N.3    82  VAL82      -0.1231
     10  CA        39.6990   75.2070   38.8240 C.3    82  VAL82       0.1692
     11  C         39.1240   76.2010   39.8090 C.2    82  VAL82       0.2593
     12  O         38.6670   75.8260   40.8800 O.2    82  VAL82      -0.2718
     13  CB        38.5950   74.7380   37.8330 C.3    82  VAL82       0.0266
     14  CG1       37.5350   73.8940   38.5320 C.3    82  VAL82       0.0020
     15  CG2       37.9380   75.9130   37.1080 C.3    82  VAL82       0.0020
     16  N         39.1920   77.4800   39.4580 N.am   83  GLY83      -0.1942
     17  CA        38.6240   78.5040   40.3070 C.3    83  GLY83       0.2014
     18  C         37.5840   79.3210   39.5810 C.2    83  GLY83       0.2639
     19  O         37.4430   79.2550   38.3460 O.2    83  GLY83      -0.2714
     20  N         36.8620   80.1160   40.3460 N.am   84  THR84      -0.1950
     21  CA        35.9440   81.1020   39.7530 C.3    84  THR84       0.1897
     22  C         36.6650   82.1670   38.9410 C.2    84  THR84       0.2313
     23  O         36.0570   82.8010   38.0840 O.2    84  THR84      -0.2863
     24  CB        35.1710   81.8500   40.8650 C.3    84  THR84       0.1794
     25  OG1       36.1130   82.4750   41.7430 O.3    84  THR84      -0.2208
     26  CG2       34.2810   80.8820   41.6470 C.3    84  THR84       0.0378
     27  N         38.4510   71.6200   34.0420 N.3   112  HIS112     -0.1226
     28  CA        37.6020   72.6020   33.3560 C.3   112  HIS112      0.1752
     29  C         38.3260   73.9500   33.2830 C.2   112  HIS112      0.2597
     30  O         38.8920   74.4050   34.2700 O.2   112  HIS112     -0.2718
     31  CB        36.2940   72.7490   34.1450 C.3   112  HIS112      0.0759
     32  CG        35.1190   73.1800   33.3180 C.ar  112  HIS112      0.0818
     33  ND1       33.9940   73.7410   33.8800 N.ar  112  HIS112     -0.2268
     34  CD2       34.8990   73.1500   31.9800 C.ar  112  HIS112      0.1154
     35  CE1       33.1140   74.0020   32.9290 C.ar  112  HIS112      0.1986
     36  NE2       33.6370   73.6540   31.7680 N.ar  112  HIS112     -0.2212
     37  N         38.3390   74.5920   32.1150 N.am  113  GLY113     -0.1942
     38  CA        38.9410   75.9140   32.0650 C.3   113  GLY113      0.2014
     39  C         38.4360   76.8270   30.9680 C.2   113  GLY113      0.2639
     40  O         37.5930   76.4550   30.1360 O.2   113  GLY113     -0.2714
     41  N         38.9730   78.0360   30.9680 N.am  114  ASN114     -0.1958
     42  CA        38.5180   79.0490   30.0390 C.3   114  ASN114      0.1819
     43  C         39.6420   80.0420   29.7970 C.2   114  ASN114      0.2621
     44  O         40.6090   80.0980   30.5730 O.2   114  ASN114     -0.2715
     45  CB        37.3000   79.7740   30.6310 C.3   114  ASN114      0.1195
     46  CG        36.4030   80.3680   29.5660 C.2   114  ASN114      0.2630
     47  OD1       36.7520   80.3680   28.3840 O.2   114  ASN114     -0.2716
     48  ND2       35.2270   80.8450   29.9700 N.am  114  ASN114     -0.0877
     49  N         39.5180   80.8140   28.7190 N.am  115  ARG115     -0.1977
     50  CA        40.3900   81.9690   28.5280 C.3   115  ARG115      0.1597
     51  C         40.1120   83.0140   29.5900 C.2   115  ARG115      0.2287
     52  O         39.0980   82.9150   30.2850 O.2   115  ARG115     -0.2864
     53  CB        40.1880   82.5700   27.1510 C.3   115  ARG115      0.0334
     54  CG        40.5090   81.5980   26.0370 C.3   115  ARG115      0.0492
     55  CD        40.5200   82.3650   24.7270 C.3   115  ARG115      0.2205
     56  NE        40.9230   81.5310   23.6060 N.pl3 115  ARG115     -0.0865
     57  CZ        42.1770   81.1920   23.3250 C.cat 115  ARG115      0.5346
     58  NH1       43.1900   81.5880   24.0880 N.pl3 115  ARG115      0.1354
     59  NH2       42.4170   80.4600   22.2570 N.pl3 115  ARG115      0.1354
     60  N         39.1010   86.3010   31.7850 N.3   117  ALA117     -0.1245
     61  CA        37.9740   87.2280   31.8380 C.3   117  ALA117      0.1562
     62  C         38.4260   88.5120   32.5080 C.2   117  ALA117      0.2260
     63  O         38.7190   89.4910   31.8130 O.2   117  ALA117     -0.2867
     64  CB        36.7740   86.6060   32.5660 C.3   117  ALA117      0.0290
     65  N         35.6470   75.4670   28.3970 N.3   152  ALA152     -0.1245
     66  CA        34.2490   75.8350   28.6490 C.3   152  ALA152      0.1562
     67  C         33.4140   76.1600   27.3960 C.2   152  ALA152      0.2260
     68  O         32.3640   75.5530   27.2110 O.2   152  ALA152     -0.2867
     69  CB        34.1550   76.9400   29.7060 C.3   152  ALA152      0.0290
     70  N         30.0690   74.0140   26.5280 N.3   156  HIS156     -0.1241
     71  CA        28.8310   74.7000   26.9240 C.3   156  HIS156      0.1621
     72  C         28.4290   75.7510   25.8930 C.2   156  HIS156      0.2264
     73  O         28.2750   76.9150   26.2110 O.2   156  HIS156     -0.2867
     74  CB        28.9940   75.3920   28.2850 C.3   156  HIS156      0.0745
     75  CG        29.4120   74.4780   29.3870 C.ar  156  HIS156      0.0817
     76  ND1       28.5200   73.6750   30.0630 N.ar  156  HIS156     -0.2268
     77  CD2       30.6270   74.2520   29.9450 C.ar  156  HIS156      0.1154
     78  CE1       29.1630   73.0120   31.0100 C.ar  156  HIS156      0.1986
     79  NE2       30.4430   73.3400   30.9520 N.ar  156  HIS156     -0.2212
     80  N         25.6480   78.3940   26.5250 N.3   159  TYR159     -0.1241
     81  CA        25.8910   79.4010   27.5410 C.3   159  TYR159      0.1605
     82  C         26.3280   80.7130   26.9170 C.2   159  TYR159      0.2264
     83  O         26.5390   81.6780   27.6230 O.2   159  TYR159     -0.2867
     84  CB        26.9880   78.9050   28.4790 C.3   159  TYR159      0.0534
     85  CG        27.2410   79.7410   29.7250 C.ar  159  TYR159     -0.0201
     86  CD1       26.4220   79.6380   30.8290 C.ar  159  TYR159     -0.0009
     87  CD2       28.3550   80.5840   29.8140 C.ar  159  TYR159     -0.0009
     88  CE1       26.6860   80.3690   31.9890 C.ar  159  TYR159      0.0417
     89  CE2       28.6270   81.3240   30.9910 C.ar  159  TYR159      0.0417
     90  CZ        27.7810   81.2090   32.0550 C.ar  159  TYR159      0.1957
     91  OH        28.0110   81.9190   33.2120 O.3   159  TYR159     -0.2866
     92  N         27.1130   88.5710   30.8910 N.3   166  ARG166     -0.1245
     93  CA        28.1280   88.7160   31.9430 C.3   166  ARG166      0.1563
     94  C         29.2090   89.7240   31.5480 C.2   166  ARG166      0.2260
     95  O         29.6050   90.5420   32.3620 O.2   166  ARG166     -0.2867
     96  CB        28.7770   87.3790   32.2390 C.3   166  ARG166      0.0307
     97  CG        27.9360   86.5070   33.1310 C.3   166  ARG166      0.0489
     98  CD        28.6600   85.2080   33.4190 C.3   166  ARG166      0.2205
     99  NE        29.8880   85.3930   34.1990 N.pl3 166  ARG166     -0.0865
    100  CZ        30.8780   84.5080   34.2270 C.cat 166  ARG166      0.5346
    101  NH1       30.7830   83.3760   33.5070 N.pl3 166  ARG166      0.1354
    102  NH2       31.9550   84.7470   34.9600 N.pl3 166  ARG166      0.1354
    103  N         29.6520   79.4320   38.4690 N.3   178  LEU178     -0.1231
    104  CA        29.1990   78.2580   37.7090 C.3   178  LEU178      0.1693
    105  C         30.2940   77.4330   37.0270 C.2   178  LEU178      0.2592
    106  O         30.1550   76.2120   36.9150 O.2   178  LEU178     -0.2718
    107  CB        28.1170   78.6490   36.7200 C.3   178  LEU178      0.0284
    108  CG        26.8190   79.2130   37.3230 C.3   178  LEU178      0.0019
    109  CD1       25.9090   79.5810   36.1460 C.3   178  LEU178      0.0001
    110  CD2       26.1310   78.2510   38.2800 C.3   178  LEU178      0.0001
    111  N         31.3400   78.1000   36.5360 N.am  179  GLY179     -0.1957
    112  CA        32.5270   77.4160   35.9930 C.3   179  GLY179      0.1869
    113  C         32.9630   76.1490   36.7060 C.2   179  GLY179      0.2309
    114  O         32.9440   75.0730   36.1240 O.2   179  GLY179     -0.2863
    115  N         30.4390   73.1580   36.8180 N.3   182  THR182     -0.1218
    116  CA        29.8740   72.6200   35.5840 C.3   182  THR182      0.1862
    117  C         30.8980   71.8880   34.7000 C.2   182  THR182      0.2287
    118  O         30.7430   71.8220   33.4560 O.2   182  THR182     -0.2866
    119  CB        29.1450   73.7190   34.7830 C.3   182  THR182      0.1770
    120  OG1       30.0480   74.8080   34.5430 O.3   182  THR182     -0.2211
    121  CG2       27.9560   74.2430   35.5970 C.3   182  THR182      0.0375
@<TRIPOS>BOND
     1    59    57    1
     2    57    56    2
     3    57    58    1
     4    56    55    1
     5    55    54    1
     6    72    73    2
     7    72    71    1
     8    54    53    1
     9    80    81    1
    10    70    71    1
    11    82    81    1
    12    82    83    2
    13    71    74    1
    14    53    50    1
    15    68    67    2
    16    67    66    1
    17    81    84    1
    18    74    75    1
    19    47    46    2
    20    65    66    1
    21    84    85    1
    22    50    49    1
    23    50    51    1
    24    66    69    1
    25    49    43   am
    26    75    77   ar
    27    75    76   ar
    28    46    48   am
    29    46    45    1
    30    51    52    2
    31    85    87   ar
    32    85    86   ar
    33    43    42    1
    34    43    44    2
    35    87    89   ar
    36    77    79   ar
    37    42    45    1
    38    42    41    1
    39    76    78   ar
    40    40    39    2
    41    86    88   ar
    42    92    93    1
    43    79    78   ar
    44    41    39   am
    45    39    38    1
    46     4     3    2
    47    89    90   ar
    48    94    93    1
    49    94    95    2
    50    36    34   ar
    51    36    35   ar
    52    60    61    1
    53    63    62    2
    54    61    62    1
    55    61    64    1
    56    93    96    1
    57    34    32   ar
    58    88    90   ar
    59    90    91    1
    60    38    37    1
    61     8     7    1
    62    37    29   am
    63     3     2    1
    64    96    97    1
    65     2     5    1
    66     2     1    1
    67    35    33   ar
    68     5     6    1
    69    97    98    1
    70     6     7    1
    71    29    28    1
    72    29    30    2
    73    32    33   ar
    74    32    31    1
    75    28    27    1
    76    28    31    1
    77    98    99    1
    78   118   117    2
    79   101   100    1
    80    99   100    2
    81   100   102    1
    82   120   119    1
    83   117   116    1
    84   119   116    1
    85   119   121    1
    86   116   115    1
    87   112   111    1
    88   112   113    1
    89   114   113    2
    90   109   108    1
    91   111   105   am
    92   107   108    1
    93   107   104    1
    94   106   105    2
    95   105   104    1
    96    15    13    1
    97   108   110    1
    98   104   103    1
    99    13    14    1
   100    13    10    1
   101    23    22    2
   102    19    18    2
   103    10     9    1
   104    10    11    1
   105    22    21    1
   106    16    11   am
   107    16    17    1
   108    18    17    1
   109    18    20   am
   110    21    20    1
   111    21    24    1
   112    11    12    2
   113    24    26    1
   114    24    25    1
