@<TRIPOS>MOLECULE
tmp/3uu7B01.pdb
 178 168 0 0 0
SMALL
GASTEIGER

@<TRIPOS>ATOM
      1  N        -19.2300  -18.0900   51.2050 N.3    40  MET40      -0.1245
      2  CA       -19.2590  -16.7160   50.7160 C.3    40  MET40       0.1570
      3  C        -20.0200  -15.8050   51.6670 C.2    40  MET40       0.2261
      4  O        -19.8020  -14.5970   51.6850 O.2    40  MET40      -0.2867
      5  CB       -19.8680  -16.6450   49.3140 C.3    40  MET40       0.0387
      6  CG       -19.0120  -17.2830   48.2300 C.3    40  MET40       0.0595
      7  SD       -17.2830  -16.7640   48.2900 S.3    40  MET40      -0.1393
      8  CE       -17.4480  -14.9840   48.1570 C.3    40  MET40       0.0692
      9  N        -17.3690  -14.8750   54.3280 N.3    43  LEU43      -0.1231
     10  CA       -16.3290  -14.0330   53.7550 C.3    43  LEU43       0.1693
     11  C        -16.8260  -12.6220   53.4640 C.2    43  LEU43       0.2592
     12  O        -16.1710  -11.6490   53.8250 O.2    43  LEU43      -0.2718
     13  CB       -15.7480  -14.6730   52.4940 C.3    43  LEU43       0.0284
     14  CG       -15.0690  -16.0260   52.7150 C.3    43  LEU43       0.0019
     15  CD1      -14.4660  -16.5490   51.4180 C.3    43  LEU43       0.0001
     16  CD2      -14.0070  -15.9230   53.8000 C.3    43  LEU43       0.0001
     17  N        -17.9810  -12.5120   52.8120 N.am   44  THR44      -0.1953
     18  CA       -18.5440  -11.2040   52.4940 C.3    44  THR44       0.1897
     19  C        -18.9110  -10.4390   53.7670 C.2    44  THR44       0.2313
     20  O        -18.6950   -9.2310   53.8580 O.2    44  THR44      -0.2863
     21  CB       -19.7710  -11.3130   51.5660 C.3    44  THR44       0.1794
     22  OG1      -20.7630  -12.1500   52.1720 O.3    44  THR44      -0.2208
     23  CG2      -19.3700  -11.9050   50.2200 C.3    44  THR44       0.0378
     24  N        -17.3830  -10.7470   56.5970 N.3    46  LEU46      -0.1231
     25  CA       -16.0860  -10.3150   57.0950 C.3    46  LEU46       0.1693
     26  C        -15.5800   -9.1130   56.3060 C.2    46  LEU46       0.2591
     27  O        -15.1420   -8.1190   56.8860 O.2    46  LEU46      -0.2718
     28  CB       -15.0780  -11.4650   57.0270 C.3    46  LEU46       0.0284
     29  CG       -13.6850  -11.2160   57.6060 C.3    46  LEU46       0.0019
     30  CD1      -13.7620  -10.9240   59.1000 C.3    46  LEU46       0.0001
     31  CD2      -12.7800  -12.4090   57.3380 C.3    46  LEU46       0.0001
     32  N        -15.6560   -9.1990   54.9810 N.am   47  ALA47      -0.1980
     33  CA       -15.1880   -8.1160   54.1230 C.3    47  ALA47       0.1597
     34  C        -15.8900   -6.8000   54.4450 C.2    47  ALA47       0.2287
     35  O        -15.2540   -5.7480   54.5200 O.2    47  ALA47      -0.2864
     36  CB       -15.3770   -8.4750   52.6540 C.3    47  ALA47       0.0319
     37  N        -14.4950   -5.4020   57.6250 N.3    50  GLU50      -0.1245
     38  CA       -13.1260   -4.9500   57.4070 C.3    50  GLU50       0.1567
     39  C        -13.0790   -3.6320   56.6390 C.2    50  GLU50       0.2260
     40  O        -12.2140   -2.7940   56.8870 O.2    50  GLU50      -0.2867
     41  CB       -12.3170   -6.0110   56.6670 C.3    50  GLU50       0.0388
     42  CG       -11.9340   -7.2060   57.5140 C.3    50  GLU50       0.1160
     43  CD       -11.0730   -8.1940   56.7530 C.2    50  GLU50       0.3649
     44  OE1      -11.6090   -8.8940   55.8710 O.co2  50  GLU50      -0.2457
     45  OE2       -9.8590   -8.2600   57.0290 O.co2  50  GLU50      -0.2457
     46  N         -9.5340   -0.9220   47.2560 N.3    79  TRP79      -0.1227
     47  CA       -10.1260   -1.6250   48.3920 C.3    79  TRP79       0.1737
     48  C         -9.8410   -3.1340   48.4310 C.2    79  TRP79       0.2595
     49  O         -9.5140   -3.6740   49.4870 O.2    79  TRP79      -0.2718
     50  CB       -11.6270   -1.3360   48.5150 C.3    79  TRP79       0.0564
     51  CG       -12.4940   -2.0450   47.5220 C.ar   79  TRP79       0.0003
     52  CD1      -12.8930   -1.5810   46.3050 C.ar   79  TRP79       0.0946
     53  CD2      -13.0930   -3.3380   47.6740 C.ar   79  TRP79       0.0152
     54  NE1      -13.6950   -2.5080   45.6830 N.ar   79  TRP79      -0.2442
     55  CE2      -13.8320   -3.5970   46.5040 C.ar   79  TRP79       0.0810
     56  CE3      -13.0710   -4.3050   48.6850 C.ar   79  TRP79       0.0012
     57  CZ2      -14.5450   -4.7800   46.3160 C.ar   79  TRP79       0.0191
     58  CZ3      -13.7750   -5.4820   48.4940 C.ar   79  TRP79       0.0001
     59  CH2      -14.5050   -5.7060   47.3220 C.ar   79  TRP79       0.0015
     60  N         -9.9530   -3.8120   47.2920 N.am   80  LEU80      -0.1980
     61  CA        -9.7530   -5.2610   47.2840 C.3    80  LEU80       0.1596
     62  C         -8.2740   -5.6440   47.3810 C.2    80  LEU80       0.2287
     63  O         -7.9260   -6.6450   48.0070 O.2    80  LEU80      -0.2864
     64  CB       -10.4220   -5.9200   46.0740 C.3    80  LEU80       0.0297
     65  CG       -10.4170   -7.4530   46.1030 C.3    80  LEU80       0.0022
     66  CD1      -10.8990   -7.9700   47.4510 C.3    80  LEU80       0.0001
     67  CD2      -11.2530   -8.0330   44.9700 C.3    80  LEU80       0.0001
     68  N         -7.5910   -5.4290   51.1810 N.3    83  LEU83      -0.1231
     69  CA        -8.0770   -6.6170   51.8830 C.3    83  LEU83       0.1693
     70  C         -7.1400   -7.7940   51.6360 C.2    83  LEU83       0.2591
     71  O         -6.7810   -8.5210   52.5620 O.2    83  LEU83      -0.2718
     72  CB        -9.4870   -7.0000   51.4230 C.3    83  LEU83       0.0284
     73  CG       -10.6770   -6.1610   51.8780 C.3    83  LEU83       0.0019
     74  CD1      -11.9650   -6.8010   51.3850 C.3    83  LEU83       0.0001
     75  CD2      -10.6890   -6.0190   53.3900 C.3    83  LEU83       0.0001
     76  N         -6.7480   -7.9690   50.3760 N.am   84  MET84      -0.1979
     77  CA        -5.9310   -9.1080   49.9670 C.3    84  MET84       0.1605
     78  C         -4.5250   -9.1080   50.5590 C.2    84  MET84       0.2287
     79  O         -4.0480  -10.1410   51.0270 O.2    84  MET84      -0.2864
     80  CB        -5.8780   -9.2140   48.4370 C.3    84  MET84       0.0413
     81  CG        -7.1090   -9.8860   47.8460 C.3    84  MET84       0.0598
     82  SD        -7.1500   -9.9170   46.0490 S.3    84  MET84      -0.1393
     83  CE        -8.4700  -11.0980   45.7650 C.3    84  MET84       0.0692
     84  N         -4.9170   -9.9970   54.1550 N.3    87  LEU87      -0.1245
     85  CA        -5.1220  -11.4380   54.2480 C.3    87  LEU87       0.1561
     86  C         -3.8020  -12.1870   54.1130 C.2    87  LEU87       0.2260
     87  O         -3.4800  -13.0550   54.9230 O.2    87  LEU87      -0.2867
     88  CB        -6.0890  -11.8990   53.1550 C.3    87  LEU87       0.0270
     89  CG        -6.3480  -13.4030   53.0230 C.3    87  LEU87       0.0019
     90  CD1       -6.9480  -13.9760   54.3080 C.3    87  LEU87       0.0001
     91  CD2       -7.2550  -13.6780   51.8370 C.3    87  LEU87       0.0001
     92  N         -1.4760  -11.6970   57.1630 N.3    90  ARG90      -0.1245
     93  CA        -1.9610  -12.4980   58.2840 C.3    90  ARG90       0.1563
     94  C         -1.6830  -13.9860   58.0840 C.2    90  ARG90       0.2260
     95  O         -1.4350  -14.7130   59.0460 O.2    90  ARG90      -0.2867
     96  CB        -3.4620  -12.2930   58.4940 C.3    90  ARG90       0.0307
     97  CG        -3.8550  -10.8940   58.9110 C.3    90  ARG90       0.0489
     98  CD        -5.2700  -10.8700   59.4690 C.3    90  ARG90       0.2205
     99  NE        -6.2530  -11.4010   58.5290 N.pl3  90  ARG90      -0.0865
    100  CZ        -6.9090  -10.6610   57.6410 C.cat  90  ARG90       0.5346
    101  NH1       -6.6800   -9.3560   57.5670 N.pl3  90  ARG90       0.1354
    102  NH2       -7.7920  -11.2250   56.8280 N.pl3  90  ARG90       0.1354
    103  N         -8.3310  -15.7680   57.1470 N.3   100  PHE100     -0.1241
    104  CA        -9.3220  -14.7150   56.9780 C.3   100  PHE100      0.1605
    105  C         -9.6430  -14.1030   58.3350 C.2   100  PHE100      0.2264
    106  O         -9.7950  -12.8880   58.4610 O.2   100  PHE100     -0.2867
    107  CB       -10.5890  -15.2580   56.3140 C.3   100  PHE100      0.0534
    108  CG       -10.4580  -15.4550   54.8310 C.ar  100  PHE100     -0.0203
    109  CD1      -10.6620  -14.3980   53.9590 C.ar  100  PHE100     -0.0042
    110  CD2      -10.1280  -16.6960   54.3070 C.ar  100  PHE100     -0.0042
    111  CE1      -10.5410  -14.5730   52.5890 C.ar  100  PHE100     -0.0003
    112  CE2      -10.0060  -16.8780   52.9390 C.ar  100  PHE100     -0.0003
    113  CZ       -10.2120  -15.8160   52.0790 C.ar  100  PHE100     -0.0000
    114  N        -13.2650  -19.9000   43.0370 N.3   116  MET116     -0.1245
    115  CA       -12.4820  -19.2650   44.0920 C.3   116  MET116      0.1570
    116  C        -11.1710  -19.9940   44.3720 C.2   116  MET116      0.2261
    117  O        -10.2830  -19.4540   45.0330 O.2   116  MET116     -0.2867
    118  CB       -13.2980  -19.1270   45.3800 C.3   116  MET116      0.0387
    119  CG       -12.6530  -18.2030   46.4080 C.3   116  MET116      0.0595
    120  SD       -13.7410  -17.7840   47.7820 S.3   116  MET116     -0.1393
    121  CE       -13.8560  -19.3650   48.6160 C.3   116  MET116      0.0692
    122  N         -8.2610  -18.1140   42.8100 N.3   119  ILE119     -0.1231
    123  CA        -7.9050  -16.9490   43.6070 C.3   119  ILE119      0.1692
    124  C         -7.1670  -17.3820   44.8690 C.2   119  ILE119      0.2592
    125  O         -6.2290  -16.7200   45.3090 O.2   119  ILE119     -0.2718
    126  CB        -9.1520  -16.1250   43.9690 C.3   119  ILE119      0.0266
    127  CG1       -9.8330  -15.6270   42.6910 C.3   119  ILE119      0.0019
    128  CG2       -8.7840  -14.9580   44.8770 C.3   119  ILE119      0.0020
    129  CD1      -11.1280  -14.8940   42.9320 C.3   119  ILE119      0.0001
    130  N         -7.5900  -18.5080   45.4360 N.am  120  PHE120     -0.1976
    131  CA        -6.9350  -19.0750   46.6090 C.3   120  PHE120      0.1639
    132  C         -5.4660  -19.3710   46.3330 C.2   120  PHE120      0.2290
    133  O         -4.5890  -18.9520   47.0860 O.2   120  PHE120     -0.2864
    134  CB        -7.6530  -20.3510   47.0600 C.3   120  PHE120      0.0560
    135  CG        -8.5440  -20.1580   48.2520 C.ar  120  PHE120     -0.0200
    136  CD1       -8.3420  -20.8920   49.4100 C.ar  120  PHE120     -0.0042
    137  CD2       -9.5740  -19.2310   48.2230 C.ar  120  PHE120     -0.0042
    138  CE1       -9.1600  -20.7150   50.5130 C.ar  120  PHE120     -0.0003
    139  CE2      -10.3940  -19.0460   49.3270 C.ar  120  PHE120     -0.0003
    140  CZ       -10.1860  -19.7900   50.4710 C.ar  120  PHE120     -0.0000
    141  N         -3.3640  -16.2640   46.1260 N.3   123  LEU123     -0.1245
    142  CA        -3.1930  -15.7140   47.4650 C.3   123  LEU123      0.1561
    143  C         -2.1590  -16.5040   48.2550 C.2   123  LEU123      0.2260
    144  O         -1.2740  -15.9280   48.8860 O.2   123  LEU123     -0.2867
    145  CB        -4.5320  -15.6980   48.2060 C.3   123  LEU123      0.0270
    146  CG        -5.5690  -14.7200   47.6440 C.3   123  LEU123      0.0019
    147  CD1       -6.9500  -14.9890   48.2200 C.3   123  LEU123      0.0001
    148  CD2       -5.1390  -13.2850   47.9020 C.3   123  LEU123      0.0001
    149  N        -10.2900  -11.2700   41.5580 N.3   206  GLY206     -0.1225
    150  CA       -11.2320  -11.3000   42.6610 C.3   206  GLY206      0.1811
    151  C        -12.4550  -10.4430   42.3960 C.2   206  GLY206      0.2280
    152  O        -13.5670  -10.7920   42.7870 O.2   206  GLY206     -0.2866
    153  N        -14.7190  -12.3300   40.1730 N.3   209  HIS209     -0.1226
    154  CA       -15.3430  -13.4210   40.9080 C.3   209  HIS209      0.1752
    155  C        -16.4780  -12.9030   41.7860 C.2   209  HIS209      0.2595
    156  O        -17.5540  -13.4950   41.8430 O.2   209  HIS209     -0.2718
    157  CB       -14.3110  -14.1610   41.7600 C.3   209  HIS209      0.0759
    158  CG       -14.8860  -15.2940   42.5510 C.ar  209  HIS209      0.0818
    159  ND1      -14.9180  -15.3020   43.9290 N.ar  209  HIS209     -0.2268
    160  CD2      -15.4670  -16.4520   42.1550 C.ar  209  HIS209      0.1154
    161  CE1      -15.4850  -16.4190   44.3480 C.ar  209  HIS209      0.1986
    162  NE2      -15.8280  -17.1340   43.2920 N.ar  209  HIS209     -0.2212
    163  N        -16.2280  -11.7900   42.4650 N.am  210  LEU210     -0.1980
    164  CA       -17.2220  -11.1710   43.3290 C.3   210  LEU210      0.1596
    165  C        -18.4140  -10.6920   42.5100 C.2   210  LEU210      0.2287
    166  O        -19.5490  -10.6820   42.9870 O.2   210  LEU210     -0.2864
    167  CB       -16.5940  -10.0030   44.0920 C.3   210  LEU210      0.0297
    168  CG       -17.4250   -9.3310   45.1840 C.3   210  LEU210      0.0022
    169  CD1      -17.9440  -10.3610   46.1830 C.3   210  LEU210      0.0001
    170  CD2      -16.6030   -8.2550   45.8860 C.3   210  LEU210      0.0001
    171  N        -20.5030   -2.9870   50.2800 N.3   224  LEU224     -0.1245
    172  CA       -19.7000   -3.8910   49.4690 C.3   224  LEU224      0.1561
    173  C        -20.1400   -3.8280   48.0080 C.2   224  LEU224      0.2260
    174  O        -19.3170   -3.9190   47.0960 O.2   224  LEU224     -0.2867
    175  CB       -19.8010   -5.3220   50.0010 C.3   224  LEU224      0.0270
    176  CG       -18.7920   -6.3250   49.4410 C.3   224  LEU224      0.0019
    177  CD1      -17.3740   -5.8960   49.7710 C.3   224  LEU224      0.0001
    178  CD2      -19.0680   -7.7200   49.9780 C.3   224  LEU224      0.0001
@<TRIPOS>BOND
     1   153   154    1
     2   154   157    1
     3   154   155    1
     4   149   150    1
     5   157   158    1
     6   155   156    2
     7   155   163   am
     8   160   158   ar
     9   160   162   ar
    10   151   150    1
    11   151   152    2
    12   163   164    1
    13   165   166    2
    14   165   164    1
    15   158   159   ar
    16   127   129    1
    17   127   126    1
    18   122   123    1
    19   114   115    1
    20   162   161   ar
    21   164   167    1
    22   123   126    1
    23   123   124    1
    24   159   161   ar
    25   126   128    1
    26   115   116    1
    27   115   118    1
    28   167   168    1
    29   116   117    2
    30   124   125    2
    31   124   130   am
    32    67    65    1
    33   168   170    1
    34   168   169    1
    35   118   119    1
    36   130   131    1
    37    54    52   ar
    38    54    55   ar
    39    83    82    1
    40    82    81    1
    41    64    65    1
    42    64    61    1
    43    65    66    1
    44   141   142    1
    45    52    51   ar
    46    57    55   ar
    47    57    59   ar
    48   132   131    1
    49   132   133    2
    50   119   120    1
    51    55    53   ar
    52   131   134    1
    53   134   135    1
    54   174   173    2
    55    46    47    1
    56    61    60    1
    57    61    62    1
    58    60    48   am
    59    59    58   ar
    60    62    63    2
    61   142   145    1
    62   142   143    1
    63    51    53   ar
    64    51    50    1
    65   146   148    1
    66   146   145    1
    67   146   147    1
    68    53    56   ar
    69   120   121    1
    70    81    80    1
    71   173   172    1
    72     8     7    1
    73   137   135   ar
    74   137   139   ar
    75     6     7    1
    76     6     5    1
    77   135   136   ar
    78   143   144    2
    79    47    48    1
    80    47    50    1
    81    48    49    2
    82    80    77    1
    83    58    56   ar
    84     5     2    1
    85   139   140   ar
    86   136   138   ar
    87   176   177    1
    88   176   178    1
    89   176   175    1
    90   172   175    1
    91   172   171    1
    92    77    76    1
    93    77    78    1
    94    23    21    1
    95    76    70   am
    96   140   138   ar
    97    78    79    2
    98     2     1    1
    99     2     3    1
   100    68    69    1
   101    74    73    1
   102    15    14    1
   103    72    73    1
   104    72    69    1
   105    21    22    1
   106    21    18    1
   107    70    69    1
   108    70    71    2
   109     3     4    2
   110    91    89    1
   111    73    75    1
   112   113   111   ar
   113   113   112   ar
   114    18    17    1
   115    18    19    1
   116    13    14    1
   117    13    10    1
   118   111   109   ar
   119    36    33    1
   120    14    16    1
   121    17    11   am
   122   112   110   ar
   123    89    88    1
   124    89    90    1
   125    88    85    1
   126    11    10    1
   127    11    12    2
   128    10     9    1
   129    19    20    2
   130   109   108   ar
   131    86    85    1
   132    86    87    2
   133    33    34    1
   134    33    32    1
   135    84    85    1
   136   110   108   ar
   137    34    35    2
   138   108   107    1
   139    32    26   am
   140    44    43   ar
   141    26    27    2
   142    26    25    1
   143   107   104    1
   144    24    25    1
   145    39    40    2
   146    39    38    1
   147    41    38    1
   148    41    42    1
   149    43    45   ar
   150    43    42    1
   151   102   100    1
   152   104   103    1
   153   104   105    1
   154    28    25    1
   155    28    29    1
   156    92    93    1
   157    31    29    1
   158    38    37    1
   159   101   100    1
   160    29    30    1
   161   100    99    2
   162    94    93    1
   163    94    95    2
   164    93    96    1
   165   105   106    2
   166    96    97    1
   167    99    98    1
   168    97    98    1
