@<TRIPOS>MOLECULE
tmp/3uu9B00.pdb
 82 78 0 0 0
SMALL
GASTEIGER

@<TRIPOS>ATOM
      1  N         13.4440   76.4120  114.2160 N.3    89  PRO89      -0.2102
      2  CA        14.6030   76.4810  113.3380 C.3    89  PRO89       0.1504
      3  C         15.6690   75.4440  113.6740 C.2    89  PRO89       0.2576
      4  O         16.5250   75.1810  112.8360 O.2    89  PRO89      -0.2718
      5  CB        15.1800   77.8730  113.6260 C.3    89  PRO89       0.0282
      6  CG        14.0720   78.6270  114.3440 C.3    89  PRO89       0.0208
      7  CD        13.3570   77.5760  115.1160 C.3    89  PRO89       0.0893
      8  N         15.6550   74.8840  114.8850 N.am   90  THR90      -0.1939
      9  CA        16.6780   73.9160  115.2730 C.3    90  THR90       0.2028
     10  C         16.1880   72.4850  115.1600 C.2    90  THR90       0.2643
     11  O         16.8460   71.5700  115.6070 O.2    90  THR90      -0.2714
     12  CB        17.1820   74.1790  116.7300 C.3    90  THR90       0.1808
     13  OG1       16.0540   74.2490  117.6090 O.3    90  THR90      -0.2208
     14  CG2       17.9120   75.5400  116.8050 C.3    90  THR90       0.0379
     15  N         15.0120   72.2790  114.5860 N.am   91  SER91      -0.1935
     16  CA        14.4760   70.9400  114.4700 C.3    91  SER91       0.2055
     17  C         14.2850   70.6280  113.0130 C.2    91  SER91       0.2642
     18  O         15.0260   71.1430  112.1330 O.2    91  SER91      -0.2714
     19  CB        13.1570   70.8380  115.2470 C.3    91  SER91       0.2130
     20  OG        12.6410   69.5270  115.2230 O.3    91  SER91      -0.2179
     21  N         13.3090   69.7860  112.7260 N.am   92  ARG92      -0.1977
     22  CA        13.2180   69.1550  111.4000 C.3    92  ARG92       0.1597
     23  C         12.6910   70.0490  110.3180 C.2    92  ARG92       0.2287
     24  O         13.0350   69.8520  109.1470 O.2    92  ARG92      -0.2864
     25  CB        12.3380   67.9090  111.4530 C.3    92  ARG92       0.0334
     26  CG        12.8740   66.7940  112.3910 C.3    92  ARG92       0.0492
     27  CD        14.1740   66.1400  111.8830 C.3    92  ARG92       0.2205
     28  NE        14.2100   66.1090  110.4230 N.pl3  92  ARG92      -0.0865
     29  CZ        13.6470   65.1680  109.6640 C.cat  92  ARG92       0.5346
     30  NH1       13.0240   64.1430  110.2470 N.pl3  92  ARG92       0.1354
     31  NH2       13.7280   65.2490  108.3250 N.pl3  92  ARG92       0.1354
     32  N          8.9190   65.9960  117.7080 N.3   111  GLU111     -0.1245
     33  CA         9.7320   64.8490  117.3280 C.3   111  GLU111      0.1567
     34  C          9.2520   63.6140  118.1080 C.2   111  GLU111      0.2260
     35  O          8.6720   63.7450  119.2090 O.2   111  GLU111     -0.2867
     36  CB        11.2040   65.1090  117.5950 C.3   111  GLU111      0.0388
     37  CG        11.7720   66.1940  116.6620 C.3   111  GLU111      0.1160
     38  CD        13.2850   66.3990  116.7850 C.2   111  GLU111      0.3649
     39  OE1       13.9910   65.4970  117.2490 O.co2 111  GLU111     -0.2457
     40  OE2       13.7800   67.4720  116.4100 O.co2 111  GLU111     -0.2457
     41  N         26.0450   61.1650  109.3490 N.3   424  ASP424     -0.1239
     42  CA        25.9010   62.6070  109.3670 C.3   424  ASP424      0.1674
     43  C         26.0750   63.2210  107.9900 C.2   424  ASP424      0.2266
     44  O         25.3910   64.1720  107.6750 O.2   424  ASP424     -0.2867
     45  CB        26.7970   63.2380  110.4020 C.3   424  ASP424      0.1410
     46  CG        26.3230   62.9440  111.8150 C.2   424  ASP424      0.3668
     47  OD1       25.0900   62.8670  112.0300 O.co2 424  ASP424     -0.2456
     48  OD2       27.1820   62.7490  112.6900 O.co2 424  ASP424     -0.2456
     49  N         22.6220   62.8060  106.4520 N.3   427  LYS427     -0.1231
     50  CA        21.6220   63.6430  107.1370 C.3   427  LYS427      0.1693
     51  C         21.8730   65.1250  106.9150 C.2   427  LYS427      0.2592
     52  O         20.9060   65.8970  106.7220 O.2   427  LYS427     -0.2718
     53  CB        21.5960   63.3480  108.6470 C.3   427  LYS427      0.0285
     54  CG        21.2110   61.8820  108.9990 C.3   427  LYS427      0.0035
     55  CD        21.0920   61.6640  110.5400 C.3   427  LYS427      0.0206
     56  CE        19.7790   62.2870  111.0440 C.3   427  LYS427      0.1093
     57  NZ        19.5990   62.1390  112.4990 N.3   427  LYS427     -0.1314
     58  N         23.1400   65.5410  106.9570 N.am  428  ASN428     -0.1974
     59  CA        23.4620   66.9550  106.7300 C.3   428  ASN428      0.1688
     60  C         23.0470   67.3410  105.3440 C.2   428  ASN428      0.2292
     61  O         22.3530   68.3270  105.1620 O.2   428  ASN428     -0.2864
     62  CB        24.9550   67.2430  106.9600 C.3   428  ASN428      0.1181
     63  CG        25.3420   67.0770  108.4130 C.2   428  ASN428      0.2629
     64  OD1       24.4670   67.0960  109.2780 O.2   428  ASN428     -0.2716
     65  ND2       26.6300   66.9360  108.7000 N.am  428  ASN428     -0.0877
     66  N         19.1700   67.2620  104.9740 N.3   431  HIS431     -0.1241
     67  CA        18.5670   68.3900  105.6800 C.3   431  HIS431      0.1621
     68  C         18.7740   69.7360  104.9680 C.2   431  HIS431      0.2264
     69  O         17.8690   70.5890  104.9590 O.2   431  HIS431     -0.2867
     70  CB        19.1250   68.4660  107.1180 C.3   431  HIS431      0.0745
     71  CG        18.5600   69.5790  107.9070 C.ar  431  HIS431      0.0817
     72  ND1       17.2420   69.5970  108.3070 N.ar  431  HIS431     -0.2268
     73  CD2       19.1130   70.7360  108.3520 C.ar  431  HIS431      0.1154
     74  CE1       17.0120   70.7200  108.9770 C.ar  431  HIS431      0.1986
     75  NE2       18.1370   71.4110  109.0400 N.ar  431  HIS431     -0.2212
     76  N         16.0550   61.4420  108.1460 N.3   484  VAL484     -0.1245
     77  CA        16.6840   62.5980  107.4990 C.3   484  VAL484      0.1561
     78  C         17.5190   62.0780  106.3290 C.2   484  VAL484      0.2260
     79  O         18.6940   62.4140  106.1530 O.2   484  VAL484     -0.2867
     80  CB        17.5180   63.4940  108.4770 C.3   484  VAL484      0.0252
     81  CG1       17.8040   64.8660  107.8380 C.3   484  VAL484      0.0019
     82  CG2       16.7290   63.6980  109.7970 C.3   484  VAL484      0.0019
@<TRIPOS>BOND
     1    69    68    2
     2    68    67    1
     3    66    67    1
     4    61    60    2
     5    60    59    1
     6    67    70    1
     7    79    78    2
     8    78    77    1
     9    49    50    1
    10    52    51    2
    11    59    58    1
    12    59    62    1
    13    51    58   am
    14    51    50    1
    15    62    63    1
    16    70    71    1
    17    50    53    1
    18    77    76    1
    19    77    80    1
    20    44    43    2
    21    81    80    1
    22    71    72   ar
    23    71    73   ar
    24    43    42    1
    25    72    74   ar
    26    31    29    1
    27    73    75   ar
    28    63    65   am
    29    63    64    2
    30    80    82    1
    31    53    54    1
    32    74    75   ar
    33    54    55    1
    34    24    23    2
    35    41    42    1
    36    42    45    1
    37    29    30    1
    38    29    28    2
    39    23    22    1
    40    45    46    1
    41    28    27    1
    42    55    56    1
    43    56    57    1
    44    22    25    1
    45    22    21    1
    46    25    26    1
    47    46    47   ar
    48    46    48   ar
    49    27    26    1
    50    18    17    2
    51    21    17   am
    52     4     3    2
    53    17    16    1
    54     2     5    1
    55     2     3    1
    56     2     1    1
    57     5     6    1
    58     3     8   am
    59     1     7    1
    60     6     7    1
    61    16    15    1
    62    16    19    1
    63    15    10   am
    64     8     9    1
    65    10     9    1
    66    10    11    2
    67    20    19    1
    68     9    12    1
    69    40    38   ar
    70    37    38    1
    71    37    36    1
    72    12    14    1
    73    12    13    1
    74    38    39   ar
    75    33    36    1
    76    33    32    1
    77    33    34    1
    78    34    35    2
