@<TRIPOS>MOLECULE
tmp/3uu9B03.pdb
 91 91 0 0 0
SMALL
GASTEIGER

@<TRIPOS>ATOM
      1  N         -3.2130   75.2820  107.3800 N.3   102  GLY102     -0.1210
      2  CA        -4.4410   74.6690  106.9230 C.3   102  GLY102      0.1956
      3  C         -4.6210   73.3020  107.5580 C.2   102  GLY102      0.2612
      4  O         -5.7520   72.8060  107.6650 O.2   102  GLY102     -0.2717
      5  N         -3.5060   72.6930  107.9730 N.am  103  HIS103     -0.1961
      6  CA        -3.5020   71.3520  108.5550 C.3   103  HIS103      0.1787
      7  C         -3.3670   71.3640  110.0820 C.2   103  HIS103      0.2621
      8  O         -2.6370   72.1960  110.6540 O.2   103  HIS103     -0.2715
      9  CB        -2.3730   70.4910  107.9620 C.3   103  HIS103      0.0785
     10  CG        -2.5480   69.0390  108.2510 C.ar  103  HIS103      0.0821
     11  ND1       -2.1770   68.4650  109.4530 N.ar  103  HIS103     -0.2267
     12  CD2       -3.1630   68.0630  107.5440 C.ar  103  HIS103      0.1154
     13  CE1       -2.5150   67.1870  109.4530 C.ar  103  HIS103      0.1986
     14  NE2       -3.1130   66.9180  108.3060 N.ar  103  HIS103     -0.2212
     15  N         -4.0290   70.4180  110.7490 N.am  104  GLY104     -0.1940
     16  CA        -3.9800   70.3470  112.2120 C.3   104  GLY104      0.2014
     17  C         -2.5920   70.1900  112.8250 C.2   104  GLY104      0.2638
     18  O         -2.4010   70.5230  113.9920 O.2   104  GLY104     -0.2714
     19  N         -1.6190   69.7100  112.0530 N.am  105  PHE105     -0.1973
     20  CA        -0.2460   69.5710  112.5510 C.3   105  PHE105      0.1639
     21  C          0.3990   70.9160  112.8860 C.2   105  PHE105      0.2290
     22  O          1.3600   70.9520  113.6540 O.2   105  PHE105     -0.2864
     23  CB         0.6480   68.8430  111.5530 C.3   105  PHE105      0.0560
     24  CG         0.6550   67.3500  111.6920 C.ar  105  PHE105     -0.0200
     25  CD1       -0.5320   66.6330  111.7920 C.ar  105  PHE105     -0.0042
     26  CD2        1.8750   66.6490  111.7030 C.ar  105  PHE105     -0.0042
     27  CE1       -0.5260   65.2330  111.8750 C.ar  105  PHE105     -0.0003
     28  CE2        1.9010   65.2550  111.7970 C.ar  105  PHE105     -0.0003
     29  CZ         0.6870   64.5440  111.8640 C.ar  105  PHE105     -0.0000
     30  N         -0.8680   72.8300  114.8530 N.3   107  PHE107     -0.1241
     31  CA        -1.0810   73.0390  116.2710 C.3   107  PHE107      0.1605
     32  C          0.0020   72.4720  117.1510 C.2   107  PHE107      0.2264
     33  O          0.2870   73.0330  118.2170 O.2   107  PHE107     -0.2867
     34  CB        -2.4690   72.5890  116.7130 C.3   107  PHE107      0.0534
     35  CG        -3.5450   73.5060  116.2180 C.ar  107  PHE107     -0.0203
     36  CD1       -3.8510   74.6810  116.9220 C.ar  107  PHE107     -0.0042
     37  CD2       -4.2090   73.2270  115.0290 C.ar  107  PHE107     -0.0042
     38  CE1       -4.8510   75.5900  116.4500 C.ar  107  PHE107     -0.0003
     39  CE2       -5.1960   74.1010  114.5390 C.ar  107  PHE107     -0.0003
     40  CZ        -5.5200   75.2870  115.2450 C.ar  107  PHE107     -0.0000
     41  N         -6.1380   71.3990  118.5430 N.3   173  ALA173     -0.1231
     42  CA        -7.0500   70.8920  117.5390 C.3   173  ALA173      0.1694
     43  C         -7.5740   69.5600  118.0490 C.2   173  ALA173      0.2593
     44  O         -7.1220   69.0370  119.0850 O.2   173  ALA173     -0.2718
     45  CB        -6.3330   70.6940  116.2030 C.3   173  ALA173      0.0304
     46  N         -8.5450   69.0360  117.3310 N.am  174  THR174     -0.1939
     47  CA        -9.2200   67.8010  117.7100 C.3   174  THR174      0.2028
     48  C         -9.0870   66.7810  116.5850 C.2   174  THR174      0.2642
     49  O        -10.0700   66.1830  116.1520 O.2   174  THR174     -0.2714
     50  CB       -10.6880   68.0680  118.0670 C.3   174  THR174      0.1808
     51  OG1      -11.3020   68.7900  117.0070 O.3   174  THR174     -0.2208
     52  CG2      -10.7790   68.9220  119.3530 C.3   174  THR174      0.0379
     53  N         -7.8630   66.5790  116.1080 N.am  175  ALA175     -0.1977
     54  CA        -7.6470   65.7270  114.9400 C.3   175  ALA175      0.1597
     55  C         -7.7140   64.2480  115.2940 C.2   175  ALA175      0.2287
     56  O         -7.8610   63.4410  114.4030 O.2   175  ALA175     -0.2864
     57  CB        -6.2990   66.0290  114.2910 C.3   175  ALA175      0.0319
     58  N         -7.7500   59.6070  109.1280 N.3   302  ASN302     -0.1226
     59  CA        -8.3120   60.9150  109.2710 C.3   302  ASN302      0.1770
     60  C         -9.3040   61.0890  108.1410 C.2   302  ASN302      0.2439
     61  O         -9.2040   60.3690  107.1350 O.2   302  ASN302     -0.2733
     62  CB        -7.2220   61.9860  109.1150 C.3   302  ASN302      0.1168
     63  CG        -6.2980   61.7100  107.9210 C.2   302  ASN302      0.2627
     64  OD1       -5.3230   60.9520  108.0480 O.2   302  ASN302     -0.2716
     65  ND2       -6.5790   62.3480  106.7720 N.am  302  ASN302     -0.0877
     66  N        -10.2360   62.0520  108.2990 N.am  303  PRO303     -0.2729
     67  CA       -11.0730   62.4660  107.2120 C.3   303  PRO303      0.1401
     68  C        -10.2460   63.2590  106.2130 C.2   303  PRO303      0.2269
     69  O         -9.1500   63.7110  106.5360 O.2   303  PRO303     -0.2865
     70  CB       -12.1090   63.3670  107.8740 C.3   303  PRO303      0.0296
     71  CG       -11.6750   63.5980  109.2340 C.3   303  PRO303      0.0237
     72  CD       -10.4410   62.8600  109.5120 C.3   303  PRO303      0.0939
     73  N         -5.5860   65.4220  101.8060 N.3   342  ASP342     -0.1225
     74  CA        -5.7800   65.6830  103.2100 C.3   342  ASP342      0.1805
     75  C         -6.3640   67.0460  103.5680 C.2   342  ASP342      0.2597
     76  O         -7.1950   67.1370  104.4590 O.2   342  ASP342     -0.2718
     77  CB        -4.4720   65.4390  103.9680 C.3   342  ASP342      0.1424
     78  CG        -4.0930   63.9870  103.9850 C.2   342  ASP342      0.3668
     79  OD1       -3.4250   63.5150  103.0180 O.co2 342  ASP342     -0.2456
     80  OD2       -4.4760   63.3040  104.9770 O.co2 342  ASP342     -0.2456
     81  N         -5.8660   68.1060  102.9420 N.am  343  PHE343     -0.1976
     82  CA        -6.2130   69.4640  103.3640 C.3   343  PHE343      0.1639
     83  C         -5.9600   70.4320  102.2330 C.2   343  PHE343      0.2290
     84  O         -5.2230   70.1240  101.2990 O.2   343  PHE343     -0.2864
     85  CB        -5.4380   69.8800  104.6360 C.3   343  PHE343      0.0560
     86  CG        -3.9660   70.2110  104.4170 C.ar  343  PHE343     -0.0200
     87  CD1       -3.0340   69.2140  104.1810 C.ar  343  PHE343     -0.0042
     88  CD2       -3.5180   71.5180  104.5330 C.ar  343  PHE343     -0.0042
     89  CE1       -1.6990   69.5110  104.0240 C.ar  343  PHE343     -0.0003
     90  CE2       -2.1740   71.8310  104.4010 C.ar  343  PHE343     -0.0003
     91  CZ        -1.2640   70.8340  104.1370 C.ar  343  PHE343     -0.0000
@<TRIPOS>BOND
     1    84    83    2
     2    73    74    1
     3    83    82    1
     4    81    82    1
     5    81    75   am
     6    79    78   ar
     7    74    75    1
     8    74    77    1
     9    82    85    1
    10    75    76    2
    11    77    78    1
    12    78    80   ar
    13    89    91   ar
    14    89    87   ar
    15    91    90   ar
    16    87    86   ar
    17    90    88   ar
    18    86    88   ar
    19    86    85    1
    20    68    69    2
    21    68    67    1
    22    65    63   am
    23     2     1    1
    24     2     3    1
    25    61    60    2
    26    67    70    1
    27    67    66    1
    28    12    10   ar
    29    12    14   ar
    30     3     4    2
    31     3     5   am
    32    70    71    1
    33    63    64    2
    34    63    62    1
    35     9    10    1
    36     9     6    1
    37     5     6    1
    38    60    66   am
    39    60    59    1
    40    10    11   ar
    41    66    72    1
    42    14    13   ar
    43     6     7    1
    44    62    59    1
    45    58    59    1
    46    71    72    1
    47    11    13   ar
    48     7     8    2
    49     7    15   am
    50    15    16    1
    51    23    24    1
    52    23    20    1
    53    24    26   ar
    54    24    25   ar
    55    26    28   ar
    56    25    27   ar
    57    28    29   ar
    58    29    27   ar
    59    19    20    1
    60    19    17   am
    61    16    17    1
    62    20    21    1
    63    17    18    2
    64    21    22    2
    65    57    54    1
    66    56    55    2
    67    39    37   ar
    68    39    40   ar
    69    30    31    1
    70    54    55    1
    71    54    53    1
    72    37    35   ar
    73    40    38   ar
    74    53    48   am
    75    49    48    2
    76    45    42    1
    77    35    34    1
    78    35    36   ar
    79    31    34    1
    80    31    32    1
    81    38    36   ar
    82    48    47    1
    83    51    50    1
    84    32    33    2
    85    46    47    1
    86    46    43   am
    87    42    43    1
    88    42    41    1
    89    47    50    1
    90    43    44    2
    91    50    52    1
