@<TRIPOS>MOLECULE
tmp/3uuaA01.pdb
 194 182 0 0 0
SMALL
GASTEIGER

@<TRIPOS>ATOM
      1  N         28.2010    6.4470   12.8320 N.3    39  MET39      -0.1245
      2  CA        27.8710    5.3370   11.9520 C.3    39  MET39       0.1570
      3  C         27.2610    4.1700   12.7100 C.2    39  MET39       0.2261
      4  O         26.4820    3.3940   12.1540 O.2    39  MET39      -0.2867
      5  CB        29.1080    4.8690   11.1930 C.3    39  MET39       0.0387
      6  CG        29.3350    5.6400    9.9180 C.3    39  MET39       0.0595
      7  SD        27.7660    5.8940    9.0690 S.3    39  MET39      -0.1393
      8  CE        27.0930    4.2340    9.1310 C.3    39  MET39       0.0692
      9  N         23.5520    5.3120   13.2830 N.3    42  LEU42      -0.1231
     10  CA        22.7780    5.1780   12.0510 C.3    42  LEU42       0.1693
     11  C         22.5050    3.7160   11.7050 C.2    42  LEU42       0.2592
     12  O         21.4400    3.3820   11.1840 O.2    42  LEU42      -0.2718
     13  CB        23.4990    5.8550   10.8830 C.3    42  LEU42       0.0284
     14  CG        23.6600    7.3730   10.9460 C.3    42  LEU42       0.0019
     15  CD1       24.3860    7.8850    9.7220 C.3    42  LEU42       0.0001
     16  CD2       22.3160    8.0530   11.0820 C.3    42  LEU42       0.0001
     17  N         23.4780    2.8550   11.9920 N.am   43  THR43      -0.1953
     18  CA        23.3600    1.4240   11.7310 C.3    43  THR43       0.1897
     19  C         22.3250    0.7860   12.6540 C.2    43  THR43       0.2313
     20  O         21.4850   -0.0040   12.2190 O.2    43  THR43      -0.2863
     21  CB        24.7160    0.7130   11.9070 C.3    43  THR43       0.1794
     22  OG1       25.4580    0.7850   10.6850 O.3    43  THR43      -0.2208
     23  CG2       24.5130   -0.7440   12.2650 C.3    43  THR43       0.0378
     24  N         19.8820    2.3060   14.0050 N.3    45  LEU45      -0.1231
     25  CA        18.5950    2.8550   13.5850 C.3    45  LEU45       0.1693
     26  C         18.0170    2.1230   12.3740 C.2    45  LEU45       0.2591
     27  O         16.8510    1.7310   12.3710 O.2    45  LEU45      -0.2718
     28  CB        18.7460    4.3450   13.2690 C.3    45  LEU45       0.0284
     29  CG        17.5630    5.0780   12.6320 C.3    45  LEU45       0.0019
     30  CD1       16.3650    5.1000   13.5540 C.3    45  LEU45       0.0001
     31  CD2       17.9500    6.4890   12.2440 C.3    45  LEU45       0.0001
     32  N         18.8360    1.9540   11.3430 N.am   46  ALA46      -0.1980
     33  CA        18.4030    1.2880   10.1240 C.3    46  ALA46       0.1597
     34  C         17.9680   -0.1430   10.4210 C.2    46  ALA46       0.2287
     35  O         16.9970   -0.6370    9.8450 O.2    46  ALA46      -0.2864
     36  CB        19.5190    1.3000    9.1000 C.3    46  ALA46       0.0319
     37  N         14.5120    0.0590   11.8140 N.3    49  GLU49      -0.1245
     38  CA        13.5770    0.4120   10.7500 C.3    49  GLU49       0.1567
     39  C         13.2710   -0.8000    9.8830 C.2    49  GLU49       0.2260
     40  O         12.1310   -1.0080    9.4670 O.2    49  GLU49      -0.2867
     41  CB        14.1470    1.5270    9.8750 C.3    49  GLU49       0.0388
     42  CG        14.2490    2.8690   10.5690 C.3    49  GLU49       0.1160
     43  CD        14.6830    3.9770    9.6300 C.2    49  GLU49       0.3649
     44  OE1       15.8980    4.2560    9.5630 O.co2  49  GLU49      -0.2457
     45  OE2       13.8090    4.5710    8.9630 O.co2  49  GLU49      -0.2457
     46  N         15.2640   -3.0630   -0.0720 N.3    78  TRP78      -0.1227
     47  CA        15.3190   -2.5440    1.3000 C.3    78  TRP78       0.1737
     48  C         15.9850   -1.1690    1.4730 C.2    78  TRP78       0.2595
     49  O         15.4480   -0.3050    2.1690 O.2    78  TRP78      -0.2718
     50  CB        15.9190   -3.5750    2.2690 C.3    78  TRP78       0.0564
     51  CG        17.3930   -3.8050    2.1190 C.ar   78  TRP78       0.0003
     52  CD1       18.0030   -4.6840    1.2710 C.ar   78  TRP78       0.0946
     53  CD2       18.4420   -3.1630    2.8530 C.ar   78  TRP78       0.0152
     54  NE1       19.3670   -4.6220    1.4250 N.ar   78  TRP78      -0.2442
     55  CE2       19.6630   -3.6950    2.3910 C.ar   78  TRP78       0.0810
     56  CE3       18.4700   -2.1840    3.8530 C.ar   78  TRP78       0.0012
     57  CZ2       20.8960   -3.2840    2.8910 C.ar   78  TRP78       0.0191
     58  CZ3       19.6960   -1.7780    4.3500 C.ar   78  TRP78       0.0001
     59  CH2       20.8920   -2.3270    3.8680 C.ar   78  TRP78       0.0015
     60  N         17.1400   -0.9630    0.8470 N.am   79  LEU79      -0.1980
     61  CA        17.8740    0.2920    1.0120 C.3    79  LEU79       0.1596
     62  C         17.2290    1.4520    0.2530 C.2    79  LEU79       0.2287
     63  O         17.3170    2.6040    0.6770 O.2    79  LEU79      -0.2864
     64  CB        19.3390    0.1310    0.5980 C.3    79  LEU79       0.0297
     65  CG        20.2780    1.2590    1.0320 C.3    79  LEU79       0.0022
     66  CD1       20.2550    1.4130    2.5440 C.3    79  LEU79       0.0001
     67  CD2       21.6930    1.0020    0.5380 C.3    79  LEU79       0.0001
     68  N         14.3890    2.4880    2.6510 N.3    82  LEU82      -0.1231
     69  CA        14.9200    3.2690    3.7640 C.3    82  LEU82       0.1693
     70  C         15.2540    4.6780    3.2940 C.2    82  LEU82       0.2591
     71  O         14.9700    5.6600    3.9800 O.2    82  LEU82      -0.2718
     72  CB        16.1810    2.6170    4.3360 C.3    82  LEU82       0.0284
     73  CG        16.0440    1.3600    5.1960 C.3    82  LEU82       0.0019
     74  CD1       17.4130    0.9180    5.6850 C.3    82  LEU82       0.0001
     75  CD2       15.1140    1.6130    6.3710 C.3    82  LEU82       0.0001
     76  N         15.8570    4.7680    2.1140 N.am   83  MET83      -0.1979
     77  CA        16.3160    6.0440    1.5790 C.3    83  MET83       0.1605
     78  C         15.1880    7.0050    1.2070 C.2    83  MET83       0.2287
     79  O         15.2430    8.1840    1.5500 O.2    83  MET83      -0.2864
     80  CB        17.2510    5.8240    0.3860 C.3    83  MET83       0.0413
     81  CG        18.6520    5.3820    0.7850 C.3    83  MET83       0.0598
     82  SD        19.7720    5.2200   -0.6160 S.3    83  MET83      -0.1393
     83  CE        21.3470    5.1560    0.2320 C.3    83  MET83       0.0692
     84  N         13.6880    8.3670    4.2010 N.3    86  LEU86      -0.1245
     85  CA        14.5610    9.3790    4.7880 C.3    86  LEU86       0.1561
     86  C         14.4070   10.7360    4.1070 C.2    86  LEU86       0.2260
     87  O         14.2940   11.7640    4.7730 O.2    86  LEU86      -0.2867
     88  CB        16.0240    8.9320    4.7250 C.3    86  LEU86       0.0270
     89  CG        17.0610    9.9890    5.1180 C.3    86  LEU86       0.0019
     90  CD1       16.7890   10.5250    6.5160 C.3    86  LEU86       0.0001
     91  CD2       18.4710    9.4260    5.0220 C.3    86  LEU86       0.0001
     92  N         10.9370   12.5160    4.9850 N.3    89  ARG89      -0.1245
     93  CA        10.8500   13.1850    6.2830 C.3    89  ARG89       0.1563
     94  C         11.8710   14.3160    6.4400 C.2    89  ARG89       0.2260
     95  O         11.8070   15.0870    7.3970 O.2    89  ARG89      -0.2867
     96  CB        10.9520   12.1790    7.4420 C.3    89  ARG89       0.0307
     97  CG        12.2610   11.3920    7.5410 C.3    89  ARG89       0.0489
     98  CD        12.1970   10.3720    8.6890 C.3    89  ARG89       0.2205
     99  NE        13.4580    9.6670    8.9140 N.pl3  89  ARG89      -0.0865
    100  CZ        13.6990    8.4190    8.5200 C.cat  89  ARG89       0.5346
    101  NH1       12.7700    7.7290    7.8750 N.pl3  89  ARG89       0.1354
    102  NH2       14.8730    7.8570    8.7710 N.pl3  89  ARG89       0.1354
    103  N         17.2430   11.9250   10.0500 N.3    99  PHE99      -0.1241
    104  CA        17.3260   10.4930   10.3150 C.3    99  PHE99       0.1605
    105  C         16.3540   10.1000   11.4200 C.2    99  PHE99       0.2264
    106  O         15.7090    9.0540   11.3580 O.2    99  PHE99      -0.2867
    107  CB        18.7530   10.1000   10.6970 C.3    99  PHE99       0.0534
    108  CG        19.7360   10.2260    9.5680 C.ar   99  PHE99      -0.0203
    109  CD1       19.9040    9.1900    8.6660 C.ar   99  PHE99      -0.0042
    110  CD2       20.4880   11.3770    9.4070 C.ar   99  PHE99      -0.0042
    111  CE1       20.8040    9.2970    7.6240 C.ar   99  PHE99      -0.0003
    112  CE2       21.3900   11.4910    8.3650 C.ar   99  PHE99      -0.0003
    113  CZ        21.5480   10.4490    7.4720 C.ar   99  PHE99      -0.0000
    114  N         30.9290    8.9760    2.7490 N.3   116  MET116     -0.1245
    115  CA        29.5180    9.0760    3.0820 C.3   116  MET116      0.1570
    116  C         28.9230   10.3760    2.5600 C.2   116  MET116      0.2261
    117  O         27.7160   10.4700    2.3300 O.2   116  MET116     -0.2867
    118  CB        29.3360    9.0260    4.5920 C.3   116  MET116      0.0387
    119  CG        27.9020    9.1890    5.0300 C.3   116  MET116      0.0595
    120  SD        26.9750    7.6710    4.7660 S.3   116  MET116     -0.1393
    121  CE        27.6500    6.6580    6.0780 C.3   116  MET116      0.0692
    122  N         27.0000   10.3690   -0.7120 N.3   119  ILE119     -0.1231
    123  CA        25.6530    9.8300   -0.5610 C.3   119  ILE119      0.1692
    124  C         24.7080   10.8450    0.0880 C.2   119  ILE119      0.2592
    125  O         23.5820   11.0290   -0.3730 O.2   119  ILE119     -0.2718
    126  CB        25.6630    8.5070    0.2390 C.3   119  ILE119      0.0266
    127  CG1       26.2740    7.3820   -0.6030 C.3   119  ILE119      0.0019
    128  CG2       24.2550    8.1310    0.6700 C.3   119  ILE119      0.0020
    129  CD1       26.9470    6.2890    0.2030 C.3   119  ILE119      0.0001
    130  N         25.1690   11.5050    1.1480 N.am  120  PHE120     -0.1976
    131  CA        24.3770   12.5430    1.8010 C.3   120  PHE120      0.1639
    132  C         23.9320   13.5990    0.7960 C.2   120  PHE120      0.2290
    133  O         22.7660   13.9950    0.7740 O.2   120  PHE120     -0.2864
    134  CB        25.1670   13.2080    2.9310 C.3   120  PHE120      0.0560
    135  CG        25.1730   12.4260    4.2110 C.ar  120  PHE120     -0.0200
    136  CD1       24.9190   11.0660    4.2080 C.ar  120  PHE120     -0.0042
    137  CD2       25.4180   13.0570    5.4220 C.ar  120  PHE120     -0.0042
    138  CE1       24.9210   10.3450    5.3840 C.ar  120  PHE120     -0.0003
    139  CE2       25.4200   12.3410    6.6030 C.ar  120  PHE120     -0.0003
    140  CZ        25.1730   10.9840    6.5830 C.ar  120  PHE120     -0.0000
    141  N         21.2410   12.3700   -1.3790 N.3   123  LEU123     -0.1245
    142  CA        20.0200   12.3410   -0.5840 C.3   123  LEU123      0.1561
    143  C         19.4410   13.7440   -0.4370 C.2   123  LEU123      0.2260
    144  O         18.2340   13.9420   -0.5750 O.2   123  LEU123     -0.2867
    145  CB        20.2930   11.7230    0.7890 C.3   123  LEU123      0.0270
    146  CG        20.4940   10.2070    0.7740 C.3   123  LEU123      0.0019
    147  CD1       21.1520    9.7030    2.0370 C.3   123  LEU123      0.0001
    148  CD2       19.1830    9.4970    0.5360 C.3   123  LEU123      0.0001
    149  N         25.0670    3.2900   -1.8690 N.3   214  GLY214     -0.1225
    150  CA        25.0330    2.9950   -0.4500 C.3   214  GLY214      0.1811
    151  C         25.4420    1.5640   -0.1570 C.2   214  GLY214      0.2280
    152  O         26.1510    1.3000    0.8140 O.2   214  GLY214     -0.2866
    153  N         28.9980    1.2260   -0.1730 N.3   217  HIS217     -0.1226
    154  CA        29.5910    1.8380    1.0100 C.3   217  HIS217      0.1752
    155  C         29.4310    0.9510    2.2440 C.2   217  HIS217      0.2595
    156  O         30.2970    0.9350    3.1210 O.2   217  HIS217     -0.2718
    157  CB        29.0110    3.2280    1.2720 C.3   217  HIS217      0.0759
    158  CG        29.6860    3.9480    2.4020 C.ar  217  HIS217      0.0818
    159  ND1       29.1060    4.0810    3.6450 N.ar  217  HIS217     -0.2268
    160  CD2       30.8900    4.5470    2.4810 C.ar  217  HIS217      0.1154
    161  CE1       29.9240    4.7440    4.4410 C.ar  217  HIS217      0.1986
    162  NE2       31.0250    5.0380    3.7550 N.ar  217  HIS217     -0.2212
    163  N         28.3250    0.2130    2.2970 N.am  218  LEU218     -0.1980
    164  CA        28.0300   -0.6640    3.4250 C.3   218  LEU218      0.1596
    165  C         28.9510   -1.8780    3.4070 C.2   218  LEU218      0.2287
    166  O         29.6480   -2.1420    4.3820 O.2   218  LEU218     -0.2864
    167  CB        26.5730   -1.1150    3.3890 C.3   218  LEU218      0.0297
    168  CG        25.5240   -0.0490    3.7040 C.3   218  LEU218      0.0022
    169  CD1       24.1520   -0.6410    3.4780 C.3   218  LEU218      0.0001
    170  CD2       25.6230    0.4400    5.1260 C.3   218  LEU218      0.0001
    171  N         32.2200   -0.7370    4.7310 N.3   221  MET221     -0.1245
    172  CA        32.2650   -0.5790    6.1760 C.3   221  MET221      0.1570
    173  C         32.5760   -1.8890    6.8520 C.2   221  MET221      0.2261
    174  O         33.3940   -1.9600    7.7690 O.2   221  MET221     -0.2867
    175  CB        30.9140   -0.1010    6.6650 C.3   221  MET221      0.0387
    176  CG        30.8940    1.3830    6.8610 C.3   221  MET221      0.0595
    177  SD        29.5700    2.0230    7.8840 S.3   221  MET221     -0.1393
    178  CE        29.8660    3.7610    7.5990 C.3   221  MET221      0.0692
    179  N         28.1530   -4.3370   12.0560 N.3   229  LEU229     -0.1245
    180  CA        26.8010   -4.3650   11.5060 C.3   229  LEU229      0.1561
    181  C         25.9270   -5.3530   12.2690 C.2   229  LEU229      0.2260
    182  O         26.4270   -6.3270   12.8330 O.2   229  LEU229     -0.2867
    183  CB        26.8230   -4.7240   10.0170 C.3   229  LEU229      0.0270
    184  CG        27.6910   -3.8400    9.1160 C.3   229  LEU229      0.0019
    185  CD1       27.5020   -4.1740    7.6440 C.3   229  LEU229      0.0001
    186  CD2       27.3800   -2.3800    9.3660 C.3   229  LEU229      0.0001
    187  N         21.2210   -7.3660    8.8400 N.3   233  LEU233     -0.1245
    188  CA        21.6580   -6.3390    7.9020 C.3   233  LEU233      0.1561
    189  C         22.8960   -6.7800    7.1180 C.2   233  LEU233      0.2260
    190  O         23.0760   -6.4510    5.9430 O.2   233  LEU233     -0.2867
    191  CB        22.0150   -5.1140    8.7410 C.3   233  LEU233      0.0270
    192  CG        22.4320   -3.7440    8.1950 C.3   233  LEU233      0.0019
    193  CD1       21.4460   -3.1330    7.1890 C.3   233  LEU233      0.0001
    194  CD2       22.6990   -2.7430    9.3270 C.3   233  LEU233      0.0001
@<TRIPOS>BOND
     1   149   150    1
     2   141   142    1
     3   122   123    1
     4    82    83    1
     5    82    81    1
     6   127   129    1
     7   127   126    1
     8   142   143    1
     9   142   145    1
    10   144   143    2
    11   123   124    1
    12   123   126    1
    13   150   151    1
    14   125   124    2
    15   153   154    1
    16   151   152    2
    17    46    47    1
    18   124   130   am
    19   126   128    1
    20    62    63    2
    21    62    61    1
    22    80    81    1
    23    80    77    1
    24   148   146    1
    25    67    65    1
    26    64    61    1
    27    64    65    1
    28   133   132    2
    29   146   145    1
    30   146   147    1
    31   132   131    1
    32    60    61    1
    33    60    48   am
    34   154   157    1
    35   154   155    1
    36    65    66    1
    37   130   131    1
    38    78    79    2
    39    78    77    1
    40    52    54   ar
    41    52    51   ar
    42   157   158    1
    43    47    48    1
    44    47    50    1
    45    54    55   ar
    46    48    49    2
    47    77    76    1
    48   131   134    1
    49    76    70   am
    50    51    50    1
    51    51    53   ar
    52   155   163   am
    53   155   156    2
    54   163   164    1
    55   117   116    2
    56    55    53   ar
    57    55    57   ar
    58   158   160   ar
    59   158   159   ar
    60   160   162   ar
    61   116   115    1
    62    68    69    1
    63   114   115    1
    64    53    56   ar
    65    57    59   ar
    66   134   135    1
    67   115   118    1
    68    70    69    1
    69    70    71    2
    70   167   164    1
    71   167   168    1
    72   165   164    1
    73   165   166    2
    74   169   168    1
    75   159   161   ar
    76   168   170    1
    77   162   161   ar
    78    69    72    1
    79    56    58   ar
    80    59    58   ar
    81    86    87    2
    82    86    85    1
    83    84    85    1
    84   136   135   ar
    85   136   138   ar
    86   135   137   ar
    87    72    73    1
    88   118   119    1
    89    88    85    1
    90    88    89    1
    91   171   172    1
    92   120   119    1
    93   120   121    1
    94    92    93    1
    95    91    89    1
    96    89    90    1
    97    73    74    1
    98    73    75    1
    99   138   140   ar
   100   137   139   ar
   101   190   189    2
   102   172   175    1
   103   172   173    1
   104    93    94    1
   105    93    96    1
   106    94    95    2
   107   140   139   ar
   108   175   176    1
   109   173   174    2
   110   176   177    1
   111   189   188    1
   112   193   192    1
   113    96    97    1
   114   113   111   ar
   115   113   112   ar
   116    97    98    1
   117   178   177    1
   118   111   109   ar
   119   185   184    1
   120   101   100    1
   121   188   191    1
   122   188   187    1
   123   192   191    1
   124   192   194    1
   125   112   110   ar
   126   100   102    1
   127   100    99    2
   128   109   108   ar
   129    98    99    1
   130    45    43   ar
   131     7     8    1
   132     7     6    1
   133    36    33    1
   134   184   186    1
   135   184   183    1
   136   110   108   ar
   137    40    39    2
   138    44    43   ar
   139   108   107    1
   140    43    42    1
   141    15    14    1
   142    35    34    2
   143    41    42    1
   144    41    38    1
   145    39    38    1
   146     6     5    1
   147   183   180    1
   148   103   104    1
   149    33    34    1
   150    33    32    1
   151   104   107    1
   152   104   105    1
   153    22    21    1
   154    38    37    1
   155    13    14    1
   156    13    10    1
   157    14    16    1
   158    12    11    2
   159     5     2    1
   160    32    26   am
   161   106   105    2
   162   180   179    1
   163   180   181    1
   164    11    17   am
   165    11    10    1
   166    18    21    1
   167    18    17    1
   168    18    19    1
   169    21    23    1
   170     2     3    1
   171     2     1    1
   172    10     9    1
   173     4     3    2
   174    20    19    2
   175    31    29    1
   176   181   182    2
   177    27    26    2
   178    26    25    1
   179    29    28    1
   180    29    30    1
   181    28    25    1
   182    25    24    1
