@<TRIPOS>MOLECULE
tmp/3uucD00.pdb
 181 170 0 0 0
SMALL
GASTEIGER

@<TRIPOS>ATOM
      1  N        -14.3600  -10.6890   31.3790 N.3    37  MET37      -0.1245
      2  CA       -15.0490   -9.7360   30.5170 C.3    37  MET37       0.1570
      3  C        -16.0970  -10.4360   29.6530 C.2    37  MET37       0.2261
      4  O        -17.1540   -9.8730   29.3710 O.2    37  MET37      -0.2867
      5  CB       -14.0520   -8.9720   29.6410 C.3    37  MET37       0.0387
      6  CG       -13.0510   -8.1210   30.4170 C.3    37  MET37       0.0595
      7  SD       -13.8100   -6.8450   31.4560 S.3    37  MET37      -0.1393
      8  CE       -14.7340   -5.9060   30.2390 C.3    37  MET37       0.0692
      9  N        -19.0840  -10.9550   31.8730 N.3    40  LEU40      -0.1231
     10  CA       -19.7370   -9.6710   32.0830 C.3    40  LEU40       0.1693
     11  C        -20.5470   -9.2340   30.8720 C.2    40  LEU40       0.2592
     12  O        -21.6850   -8.7830   31.0110 O.2    40  LEU40      -0.2718
     13  CB       -18.6980   -8.6020   32.4190 C.3    40  LEU40       0.0284
     14  CG       -17.9740   -8.7950   33.7480 C.3    40  LEU40       0.0019
     15  CD1      -17.0410   -7.6310   34.0210 C.3    40  LEU40       0.0001
     16  CD2      -18.9900   -8.9450   34.8620 C.3    40  LEU40       0.0001
     17  N        -19.9430   -9.3670   29.6930 N.am   41  THR41      -0.1953
     18  CA       -20.5750   -9.0000   28.4300 C.3    41  THR41       0.1897
     19  C        -21.8320   -9.8260   28.1750 C.2    41  THR41       0.2313
     20  O        -22.8640   -9.2970   27.7670 O.2    41  THR41      -0.2863
     21  CB       -19.6020   -9.1980   27.2420 C.3    41  THR41       0.1794
     22  OG1      -18.4480   -8.3660   27.4130 O.3    41  THR41      -0.2208
     23  CG2      -20.2790   -8.8530   25.9250 C.3    41  THR41       0.0378
     24  N        -23.6270  -11.3760   30.4460 N.3    43  LEU43      -0.1231
     25  CA       -24.5710  -10.8640   31.4390 C.3    43  LEU43       0.1693
     26  C        -25.1800   -9.5360   30.9870 C.2    43  LEU43       0.2592
     27  O        -26.3990   -9.3640   31.0010 O.2    43  LEU43      -0.2718
     28  CB       -23.8800  -10.6810   32.7890 C.3    43  LEU43       0.0284
     29  CG       -24.7320  -10.0400   33.8880 C.3    43  LEU43       0.0019
     30  CD1      -25.9670  -10.8820   34.1740 C.3    43  LEU43       0.0001
     31  CD2      -23.9100   -9.8190   35.1560 C.3    43  LEU43       0.0001
     32  N        -24.3250   -8.6040   30.5770 N.am   44  ALA44      -0.1966
     33  CA       -24.7810   -7.2910   30.1220 C.3    44  ALA44       0.1728
     34  C        -25.7640   -7.3960   28.9570 C.2    44  ALA44       0.2616
     35  O        -26.8140   -6.7490   28.9660 O.2    44  ALA44      -0.2715
     36  CB       -23.5870   -6.4030   29.7440 C.3    44  ALA44       0.0334
     37  N        -25.4260   -8.2120   27.9590 N.am   45  ASP45      -0.1971
     38  CA       -26.2900   -8.3870   26.7850 C.3    45  ASP45       0.1709
     39  C        -27.6920   -8.8460   27.1600 C.2    45  ASP45       0.2293
     40  O        -28.6830   -8.3350   26.6370 O.2    45  ASP45      -0.2864
     41  CB       -25.6830   -9.3870   25.7950 C.3    45  ASP45       0.1436
     42  CG       -24.3710   -8.9040   25.2130 C.2    45  ASP45       0.3671
     43  OD1      -24.0250   -7.7250   25.4320 O.co2  45  ASP45      -0.2456
     44  OD2      -23.6900   -9.6980   24.5340 O.co2  45  ASP45      -0.2456
     45  N        -29.0630   -8.6030   30.2000 N.3    47  GLU47      -0.1245
     46  CA       -29.6910   -7.5310   30.9510 C.3    47  GLU47       0.1567
     47  C        -30.2740   -6.4880   29.9960 C.2    47  GLU47       0.2260
     48  O        -31.4050   -6.0510   30.1700 O.2    47  GLU47      -0.2867
     49  CB       -28.7030   -6.8840   31.9180 C.3    47  GLU47       0.0388
     50  CG       -28.2820   -7.7890   33.0690 C.3    47  GLU47       0.1160
     51  CD       -27.4640   -7.0480   34.1030 C.2    47  GLU47       0.3649
     52  OE1      -26.2210   -7.0420   33.9890 O.co2  47  GLU47      -0.2457
     53  OE2      -28.0680   -6.4650   35.0270 O.co2  47  GLU47      -0.2457
     54  N        -27.4220    3.3210   28.7880 N.3    76  TRP76      -0.1227
     55  CA       -27.4420    1.8940   29.1270 C.3    76  TRP76       0.1737
     56  C        -26.3870    1.4830   30.1520 C.2    76  TRP76       0.2595
     57  O        -26.6910    0.7420   31.0880 O.2    76  TRP76      -0.2718
     58  CB       -27.3750    1.0130   27.8760 C.3    76  TRP76       0.0564
     59  CG       -26.0520    1.0190   27.1770 C.ar   76  TRP76       0.0003
     60  CD1      -25.6480    1.8730   26.1920 C.ar   76  TRP76       0.0946
     61  CD2      -24.9620    0.1160   27.3960 C.ar   76  TRP76       0.0152
     62  NE1      -24.3720    1.5630   25.7910 N.ar   76  TRP76      -0.2442
     63  CE2      -23.9280    0.4880   26.5120 C.ar   76  TRP76       0.0810
     64  CE3      -24.7560   -0.9650   28.2580 C.ar   76  TRP76       0.0012
     65  CZ2      -22.7100   -0.1880   26.4590 C.ar   76  TRP76       0.0191
     66  CZ3      -23.5470   -1.6360   28.2020 C.ar   76  TRP76       0.0001
     67  CH2      -22.5400   -1.2450   27.3080 C.ar   76  TRP76       0.0015
     68  N        -25.1570    1.9690   29.9900 N.am   77  LEU77      -0.1980
     69  CA       -24.0840    1.5940   30.9010 C.3    77  LEU77       0.1596
     70  C        -24.3060    2.1710   32.3090 C.2    77  LEU77       0.2287
     71  O        -24.1100    1.4760   33.3090 O.2    77  LEU77      -0.2864
     72  CB       -22.7170    1.9900   30.3400 C.3    77  LEU77       0.0297
     73  CG       -21.5180    1.3310   31.0230 C.3    77  LEU77       0.0022
     74  CD1      -21.7780   -0.1520   31.2330 C.3    77  LEU77       0.0001
     75  CD2      -20.2410    1.5480   30.2330 C.3    77  LEU77       0.0001
     76  N        -26.9290    0.0190   33.9440 N.3    80  LEU80      -0.1231
     77  CA       -26.3750   -1.2460   34.3950 C.3    80  LEU80       0.1693
     78  C        -25.5580   -1.0570   35.6720 C.2    80  LEU80       0.2591
     79  O        -25.6420   -1.8660   36.5870 O.2    80  LEU80      -0.2718
     80  CB       -25.5130   -1.8940   33.3100 C.3    80  LEU80       0.0284
     81  CG       -26.2440   -2.5600   32.1420 C.3    80  LEU80       0.0019
     82  CD1      -25.2570   -3.2780   31.2300 C.3    80  LEU80       0.0001
     83  CD2      -27.2920   -3.5350   32.6600 C.3    80  LEU80       0.0001
     84  N        -24.7720    0.0180   35.7220 N.am   81  MET81      -0.1979
     85  CA       -23.9040    0.2840   36.8650 C.3    81  MET81       0.1605
     86  C        -24.6590    0.6260   38.1360 C.2    81  MET81       0.2287
     87  O        -24.3040    0.1390   39.2090 O.2    81  MET81      -0.2864
     88  CB       -22.8920    1.3820   36.5440 C.3    81  MET81       0.0413
     89  CG       -21.7760    0.9070   35.6460 C.3    81  MET81       0.0598
     90  SD       -20.6850    2.2540   35.1690 S.3    81  MET81      -0.1393
     91  CE       -19.3250    1.3160   34.4880 C.3    81  MET81       0.0692
     92  N        -26.0950   -2.5650   39.4390 N.3    84  LEU84      -0.1245
     93  CA       -24.9980   -3.2260   40.1340 C.3    84  LEU84       0.1561
     94  C        -24.7640   -2.6530   41.5360 C.2    84  LEU84       0.2260
     95  O        -24.6790   -3.3930   42.5250 O.2    84  LEU84      -0.2867
     96  CB       -23.7160   -3.0890   39.3170 C.3    84  LEU84       0.0270
     97  CG       -22.4510   -3.6530   39.9610 C.3    84  LEU84       0.0019
     98  CD1      -22.6560   -5.1150   40.3570 C.3    84  LEU84       0.0001
     99  CD2      -21.2620   -3.5050   39.0190 C.3    84  LEU84       0.0001
    100  N        -27.5270   -3.6260   43.8840 N.3    87  ARG87      -0.1245
    101  CA       -27.4690   -5.0360   44.2530 C.3    87  ARG87       0.1563
    102  C        -26.3420   -5.2650   45.2530 C.2    87  ARG87       0.2260
    103  O        -26.3730   -6.2160   46.0280 O.2    87  ARG87      -0.2867
    104  CB       -27.2590   -5.9370   43.0250 C.3    87  ARG87       0.0307
    105  CG       -28.4010   -5.9510   42.0180 C.3    87  ARG87       0.0489
    106  CD       -28.2770   -7.1170   41.0190 C.3    87  ARG87       0.2205
    107  NE       -27.0830   -7.0510   40.1700 N.pl3  87  ARG87      -0.0865
    108  CZ       -26.9960   -6.3440   39.0430 C.cat  87  ARG87       0.5346
    109  NH1      -28.0270   -5.6240   38.6250 N.pl3  87  ARG87       0.1354
    110  NH2      -25.8720   -6.3480   38.3360 N.pl3  87  ARG87       0.1354
    111  N        -22.4290   -8.6360   40.6760 N.3    97  PHE97      -0.1241
    112  CA       -22.8880   -8.5880   39.2930 C.3    97  PHE97       0.1605
    113  C        -24.0790   -9.5240   39.1110 C.2    97  PHE97       0.2264
    114  O        -25.0220   -9.2140   38.3760 O.2    97  PHE97      -0.2867
    115  CB       -21.7560   -8.9710   38.3450 C.3    97  PHE97       0.0534
    116  CG       -20.7350   -7.8860   38.1570 C.ar   97  PHE97      -0.0203
    117  CD1      -20.8450   -6.9900   37.1070 C.ar   97  PHE97      -0.0042
    118  CD2      -19.6650   -7.7600   39.0280 C.ar   97  PHE97      -0.0042
    119  CE1      -19.9040   -5.9920   36.9270 C.ar   97  PHE97      -0.0003
    120  CE2      -18.7230   -6.7590   38.8540 C.ar   97  PHE97      -0.0003
    121  CZ       -18.8430   -5.8780   37.8040 C.ar   97  PHE97      -0.0000
    122  N         -9.8640   -2.7830   35.2900 N.3   112  MET112     -0.1245
    123  CA       -11.1700   -2.6380   35.9170 C.3   112  MET112      0.1570
    124  C        -11.0320   -2.2570   37.3850 C.2   112  MET112      0.2261
    125  O        -11.9960   -1.8290   38.0200 O.2   112  MET112     -0.2867
    126  CB       -11.9640   -3.9360   35.7840 C.3   112  MET112      0.0387
    127  CG       -12.2590   -4.3140   34.3460 C.3   112  MET112      0.0595
    128  SD       -13.2090   -3.0190   33.5310 S.3   112  MET112     -0.1393
    129  CE       -14.6430   -2.9770   34.6010 C.3   112  MET112      0.0692
    130  N        -12.3110    1.1450   37.9690 N.3   115  ILE115     -0.1245
    131  CA       -13.7640    1.1490   37.8290 C.3   115  ILE115      0.1561
    132  C        -14.4400    0.4600   39.0190 C.2   115  ILE115      0.2260
    133  O        -15.3960    0.9780   39.5930 O.2   115  ILE115     -0.2867
    134  CB       -14.2000    0.4570   36.5290 C.3   115  ILE115      0.0252
    135  CG1      -13.6780    1.2350   35.3180 C.3   115  ILE115      0.0019
    136  CG2      -15.7100    0.3340   36.4800 C.3   115  ILE115      0.0019
    137  CD1      -13.8800    0.5310   33.9970 C.3   115  ILE115      0.0001
    138  N        -17.1890    2.0130   41.7230 N.3   119  LEU119     -0.1245
    139  CA       -18.4730    1.3650   41.9720 C.3   119  LEU119      0.1561
    140  C        -18.6540    1.0840   43.4610 C.2   119  LEU119      0.2260
    141  O        -19.7290    1.3060   44.0200 O.2   119  LEU119     -0.2867
    142  CB       -18.5910    0.0790   41.1510 C.3   119  LEU119      0.0270
    143  CG       -18.6920    0.3370   39.6430 C.3   119  LEU119      0.0019
    144  CD1      -18.3900   -0.9160   38.8220 C.3   119  LEU119      0.0001
    145  CD2      -20.0610    0.9040   39.2910 C.3   119  LEU119      0.0001
    146  N        -15.9370    3.3750   31.9110 N.3   203  GLY203     -0.1225
    147  CA       -16.3130    2.0410   31.4800 C.3   203  GLY203      0.1811
    148  C        -16.3300    1.9230   29.9660 C.2   203  GLY203      0.2280
    149  O        -15.7320    1.0070   29.4090 O.2   203  GLY203     -0.2866
    150  N        -13.0320    1.8490   28.4990 N.3   206  HIS206     -0.1226
    151  CA       -12.3740    0.5630   28.7040 C.3   206  HIS206      0.1752
    152  C        -12.9010   -0.4700   27.7090 C.2   206  HIS206      0.2595
    153  O        -12.1250   -1.1470   27.0350 O.2   206  HIS206     -0.2718
    154  CB       -12.5620    0.0780   30.1420 C.3   206  HIS206      0.0759
    155  CG       -11.6180   -1.0080   30.5370 C.ar  206  HIS206      0.0818
    156  ND1      -10.3830   -0.7590   31.0850 N.ar  206  HIS206     -0.2268
    157  CD2      -11.7500   -2.3520   30.5010 C.ar  206  HIS206      0.1154
    158  CE1       -9.8010   -1.8990   31.4080 C.ar  206  HIS206      0.1986
    159  NE2      -10.6120   -2.8830   31.0670 N.ar  206  HIS206     -0.2212
    160  N        -14.2230   -0.5740   27.6130 N.am  207  LEU207     -0.1980
    161  CA       -14.8570   -1.4680   26.6500 C.3   207  LEU207      0.1596
    162  C        -14.3570   -1.2090   25.2350 C.2   207  LEU207      0.2287
    163  O        -13.9690   -2.1370   24.5300 O.2   207  LEU207     -0.2864
    164  CB       -16.3780   -1.3100   26.6820 C.3   207  LEU207      0.0297
    165  CG       -17.0800   -1.5110   28.0230 C.3   207  LEU207      0.0022
    166  CD1      -18.5820   -1.5940   27.8080 C.3   207  LEU207      0.0001
    167  CD2      -16.5650   -2.7640   28.7210 C.3   207  LEU207      0.0001
    168  N        -18.7490   -7.6890   22.6910 N.3   212  VAL212     -0.1231
    169  CA       -19.4620   -6.4320   22.4790 C.3   212  VAL212      0.1692
    170  C        -20.9790   -6.6400   22.5040 C.2   212  VAL212      0.2591
    171  O        -21.4690   -7.7360   22.2320 O.2   212  VAL212     -0.2718
    172  CB       -19.0130   -5.7500   21.1650 C.3   212  VAL212      0.0266
    173  CG1      -19.9610   -4.6220   20.7790 C.3   212  VAL212      0.0020
    174  CG2      -17.5890   -5.2280   21.3050 C.3   212  VAL212      0.0020
    175  N        -21.7140   -5.5860   22.8500 N.am  213  VAL213     -0.1980
    176  CA       -23.1680   -5.6570   22.9580 C.3   213  VAL213      0.1595
    177  C        -23.8460   -5.1730   21.6830 C.2   213  VAL213      0.2287
    178  O        -23.4720   -4.1440   21.1240 O.2   213  VAL213     -0.2864
    179  CB       -23.6550   -4.8490   24.1640 C.3   213  VAL213      0.0276
    180  CG1      -23.4070   -3.3650   24.0740 C.3   213  VAL213      0.0022
    181  CG2      -25.1030   -5.1680   24.5010 C.3   213  VAL213      0.0022
@<TRIPOS>BOND
     1   173   172    1
     2   178   177    2
     3   172   174    1
     4   172   169    1
     5   177   176    1
     6   171   170    2
     7   169   170    1
     8   169   168    1
     9   170   175   am
    10   175   176    1
    11   176   179    1
    12   180   179    1
    13   179   181    1
    14   163   162    2
    15    44    42   ar
    16    42    43   ar
    17    42    41    1
    18   162   161    1
    19    62    60   ar
    20    62    63   ar
    21    41    38    1
    22    23    21    1
    23    60    59   ar
    24    65    63   ar
    25    65    67   ar
    26    63    61   ar
    27    40    39    2
    28   161   164    1
    29   161   160    1
    30   164   165    1
    31    38    39    1
    32    38    37    1
    33   153   152    2
    34    59    61   ar
    35    59    58    1
    36    21    22    1
    37    21    18    1
    38    67    66   ar
    39    61    64   ar
    40   160   152   am
    41   152   151    1
    42    20    19    2
    43   166   165    1
    44    58    55    1
    45    37    34   am
    46   165   167    1
    47    19    18    1
    48    66    64   ar
    49    18    17    1
    50   150   151    1
    51   151   154    1
    52    54    55    1
    53    34    35    2
    54    34    33    1
    55    55    56    1
    56     4     3    2
    57   149   148    2
    58     5     6    1
    59     5     2    1
    60     3     2    1
    61    17    11   am
    62    36    33    1
    63   148   147    1
    64    68    56   am
    65    68    69    1
    66    47    48    2
    67    47    46    1
    68    33    32    1
    69   154   155    1
    70    56    57    2
    71    45    46    1
    72    75    73    1
    73     8     7    1
    74    72    69    1
    75    72    73    1
    76     6     7    1
    77    24    25    1
    78   157   155   ar
    79   157   159   ar
    80     2     1    1
    81   155   156   ar
    82    32    26   am
    83    11    12    2
    84    11    10    1
    85    69    70    1
    86    46    49    1
    87    26    27    2
    88    26    25    1
    89    73    74    1
    90   159   158   ar
    91   156   158   ar
    92    82    81    1
    93    25    28    1
    94   147   146    1
    95     9    10    1
    96    49    50    1
    97    10    13    1
    98    81    83    1
    99    81    80    1
   100    70    71    2
   101    13    14    1
   102    28    29    1
   103    50    51    1
   104    80    77    1
   105   128   127    1
   106   128   129    1
   107    14    15    1
   108    14    16    1
   109    29    30    1
   110    29    31    1
   111    76    77    1
   112    52    51   ar
   113   137   135    1
   114    51    53   ar
   115   127   126    1
   116    77    78    1
   117    91    90    1
   118    90    89    1
   119   122   123    1
   120   135   134    1
   121    89    88    1
   122    78    84   am
   123    78    79    2
   124    84    85    1
   125   126   123    1
   126   123   124    1
   127   136   134    1
   128   134   131    1
   129    88    85    1
   130    85    86    1
   131   119   117   ar
   132   119   121   ar
   133   117   116   ar
   134   124   125    2
   135   121   120   ar
   136   131   130    1
   137   131   132    1
   138    86    87    2
   139   116   115    1
   140   116   118   ar
   141   110   108    1
   142   115   112    1
   143   114   113    2
   144   109   108    1
   145   144   143    1
   146   120   118   ar
   147    99    97    1
   148   132   133    2
   149   108   107    2
   150   113   112    1
   151   145   143    1
   152   112   111    1
   153    96    97    1
   154    96    93    1
   155    92    93    1
   156   143   142    1
   157    97    98    1
   158    93    94    1
   159   107   106    1
   160   106   105    1
   161   142   139    1
   162    94    95    2
   163   138   139    1
   164   139   140    1
   165   105   104    1
   166   104   101    1
   167   140   141    2
   168   100   101    1
   169   101   102    1
   170   102   103    2
