@<TRIPOS>MOLECULE
tmp/3uueA00.pdb
 105 98 0 0 0
SMALL
GASTEIGER

@<TRIPOS>ATOM
      1  N          1.5700    6.6290   -2.2770 N.3   202  ARG202     -0.1245
      2  CA         0.8200    7.8580   -2.3090 C.3   202  ARG202      0.1563
      3  C         -0.4300    7.8730   -1.4320 C.2   202  ARG202      0.2260
      4  O         -1.2440    8.7790   -1.5320 O.2   202  ARG202     -0.2867
      5  CB         0.4210    8.2070   -3.7790 C.3   202  ARG202      0.0307
      6  CG         1.6640    8.6960   -4.5890 C.3   202  ARG202      0.0489
      7  CD         1.3020    8.8810   -6.0560 C.3   202  ARG202      0.2205
      8  NE         0.2650    9.9520   -6.2000 N.pl3 202  ARG202     -0.0865
      9  CZ        -0.5630   10.0400   -7.2450 C.cat 202  ARG202      0.5346
     10  NH1       -0.5810    9.0950   -8.1990 N.pl3 202  ARG202      0.1354
     11  NH2       -1.4420   11.0650   -7.3190 N.pl3 202  ARG202      0.1354
     12  N          5.3290    3.3220   -4.1660 N.3   227  GLY227     -0.1210
     13  CA         4.2730    2.4280   -3.6600 C.3   227  GLY227      0.1956
     14  C          4.3410    1.0600   -4.2600 C.2   227  GLY227      0.2611
     15  O          4.5520    0.9320   -5.4570 O.2   227  GLY227     -0.2717
     16  N          4.1110    0.0300   -3.4530 N.am  228  ASN228     -0.1974
     17  CA         4.1380   -1.3890   -3.8630 C.3   228  ASN228      0.1688
     18  C          5.5090   -1.9590   -4.1540 C.2   228  ASN228      0.2292
     19  O          5.5940   -3.1670   -4.4850 O.2   228  ASN228     -0.2864
     20  CB         3.1800   -1.7390   -5.0450 C.3   228  ASN228      0.1181
     21  CG         1.7540   -1.4070   -4.7390 C.2   228  ASN228      0.2629
     22  OD1        1.3590   -1.1610   -3.6000 O.2   228  ASN228     -0.2716
     23  ND2        0.9350   -1.3950   -5.8030 N.am  228  ASN228     -0.0877
     24  N         -2.4920   10.6130   -3.6170 N.3   250  GLU250     -0.1245
     25  CA        -3.6240   10.2120   -4.4640 C.3   250  GLU250      0.1567
     26  C         -4.9010   10.2550   -3.6210 C.2   250  GLU250      0.2260
     27  O         -4.8300   10.0720   -2.4190 O.2   250  GLU250     -0.2867
     28  CB        -3.4200    8.8180   -5.1040 C.3   250  GLU250      0.0388
     29  CG        -3.4740    7.6830   -4.0740 C.3   250  GLU250      0.1160
     30  CD        -2.9520    6.4160   -4.6590 C.2   250  GLU250      0.3649
     31  OE1       -2.6920    6.3370   -5.8920 O.co2 250  GLU250     -0.2457
     32  OE2       -2.7830    5.4440   -3.8950 O.co2 250  GLU250     -0.2457
     33  N         -7.8810    4.6680   -2.8290 N.3   253  PHE253     -0.1227
     34  CA        -7.3090    3.7300   -1.8600 C.3   253  PHE253      0.1736
     35  C         -6.3050    2.8060   -2.5140 C.2   253  PHE253      0.2595
     36  O         -5.9740    1.7880   -1.9330 O.2   253  PHE253     -0.2718
     37  CB        -8.4270    2.9130   -1.2080 C.3   253  PHE253      0.0547
     38  CG        -9.2060    3.6490   -0.1470 C.ar  253  PHE253     -0.0202
     39  CD1       -8.5890    4.4410    0.8290 C.ar  253  PHE253     -0.0042
     40  CD2      -10.6260    3.5960   -0.1900 C.ar  253  PHE253     -0.0042
     41  CE1       -9.3170    5.0640    1.8550 C.ar  253  PHE253     -0.0003
     42  CE2      -11.3820    4.2480    0.7980 C.ar  253  PHE253     -0.0003
     43  CZ       -10.7300    4.9830    1.8130 C.ar  253  PHE253     -0.0000
     44  N         -5.7900    3.1660   -3.7030 N.am  254  ASP254     -0.1960
     45  CA        -4.9340    2.2000   -4.4230 C.3   254  ASP254      0.1840
     46  C         -3.7030    1.7920   -3.6370 C.2   254  ASP254      0.2622
     47  O         -3.5210    0.6200   -3.3550 O.2   254  ASP254     -0.2715
     48  CB        -4.5030    2.8160   -5.7560 C.3   254  ASP254      0.1450
     49  CG        -5.6560    3.0390   -6.7450 C.2   254  ASP254      0.3671
     50  OD1       -6.8020    2.6980   -6.4510 O.co2 254  ASP254     -0.2456
     51  OD2       -5.3400    3.4970   -7.9000 O.co2 254  ASP254     -0.2456
     52  N         -2.8170    2.7220   -3.2810 N.am  255  ASP255     -0.1971
     53  CA        -1.6420    2.3430   -2.5050 C.3   255  ASP255      0.1709
     54  C         -2.0370    1.9540   -1.0730 C.2   255  ASP255      0.2293
     55  O         -1.3700    1.1220   -0.4430 O.2   255  ASP255     -0.2864
     56  CB        -0.5710    3.4660   -2.5210 C.3   255  ASP255      0.1436
     57  CG         0.0990    3.5990   -3.8800 C.2   255  ASP255      0.3671
     58  OD1       -0.1850    2.8090   -4.8120 O.co2 255  ASP255     -0.2456
     59  OD2        0.9810    4.4670   -3.9520 O.co2 255  ASP255     -0.2456
     60  N         -4.3700    0.1650   -0.2090 N.3   257  GLN257     -0.1231
     61  CA        -4.7410   -1.2300   -0.2880 C.3   257  GLN257      0.1698
     62  C         -3.7660   -1.9650   -1.1920 C.2   257  GLN257      0.2593
     63  O         -4.1460   -2.8890   -1.9490 O.2   257  GLN257     -0.2718
     64  CB        -6.1740   -1.3400   -0.8500 C.3   257  GLN257      0.0381
     65  CG        -7.1820   -0.8040    0.1510 C.3   257  GLN257      0.0905
     66  CD        -8.6110   -0.6990   -0.3860 C.2   257  GLN257      0.2608
     67  OE1       -8.9070   -0.8460   -1.6150 O.2   257  GLN257     -0.2717
     68  NE2       -9.5270   -0.4550    0.5410 N.am  257  GLN257     -0.0878
     69  N         -2.5000   -1.5830   -1.0160 N.am  258  GLY258     -0.1942
     70  CA        -1.4340   -2.0530   -1.9050 C.3   258  GLY258      0.2014
     71  C         -0.6450   -3.2200   -1.3630 C.2   258  GLY258      0.2638
     72  O         -1.1300   -4.0460   -0.5550 O.2   258  GLY258     -0.2714
     73  N          0.5930   -3.3120   -1.8210 N.am  259  ILE259     -0.1977
     74  CA         1.5040   -4.4170   -1.4860 C.3   259  ILE259      0.1596
     75  C          2.5190   -3.9210   -0.4910 C.2   259  ILE259      0.2287
     76  O          3.2030   -2.9590   -0.7750 O.2   259  ILE259     -0.2864
     77  CB         2.2440   -4.8970   -2.7620 C.3   259  ILE259      0.0276
     78  CG1        1.2690   -5.2420   -3.8810 C.3   259  ILE259      0.0022
     79  CG2        3.1270   -6.1270   -2.4100 C.3   259  ILE259      0.0022
     80  CD1        0.2160   -6.2650   -3.5840 C.3   259  ILE259      0.0001
     81  N         -0.2540   -8.3890   -0.0740 N.3   264  GLN264     -0.1245
     82  CA        -1.3220   -7.4340   -0.3980 C.3   264  GLN264      0.1566
     83  C         -2.2850   -7.2960    0.7780 C.2   264  GLN264      0.2260
     84  O         -2.7670   -8.3140    1.3210 O.2   264  GLN264     -0.2867
     85  CB        -2.1050   -7.9270   -1.6130 C.3   264  GLN264      0.0367
     86  CG        -3.0670   -6.8580   -2.1540 C.3   264  GLN264      0.0905
     87  CD        -4.0190   -7.4070   -3.1990 C.2   264  GLN264      0.2608
     88  OE1       -4.0860   -6.8120   -4.3060 O.2   264  GLN264     -0.2717
     89  NE2       -4.7540   -8.4300   -2.9170 N.am  264  GLN264     -0.0878
     90  N         -5.4540   -5.8930    0.3600 N.3   266  GLY266     -0.1225
     91  CA        -6.4940   -5.4520   -0.5770 C.3   266  GLY266      0.1811
     92  C         -7.7920   -5.0830    0.0660 C.2   266  GLY266      0.2280
     93  O         -8.6540   -4.4760   -0.6160 O.2   266  GLY266     -0.2866
     94  N        -12.0350   -6.1260   -1.1260 N.3   269  MET269     -0.1182
     95  CA       -11.6550   -6.4090   -2.5560 C.3   269  MET269      0.1917
     96  C        -10.5530   -7.4390   -2.7150 C.2   269  MET269      0.2635
     97  O        -10.3870   -7.9850   -3.8130 O.2   269  MET269     -0.2714
     98  CB       -11.0770   -5.1100   -3.2450 C.2   269  MET269      0.0083
     99  CG       -12.0380   -3.9600   -3.6740 C.2   269  MET269      0.0282
    100  SD       -11.3340   -2.4000   -4.3980 S.3   269  MET269     -0.1125
    101  CE       -10.4310   -3.1260   -5.7890 C.3   269  MET269      0.0742
    102  N         -9.7730   -7.6590   -1.6500 N.am  270  GLY270     -0.1954
    103  CA        -8.5020   -8.3780   -1.6750 C.3   270  GLY270      0.1869
    104  C         -8.5900   -9.8930   -1.6310 C.2   270  GLY270      0.2309
    105  O         -9.5740  -10.5090   -2.0710 O.2   270  GLY270     -0.2863
@<TRIPOS>BOND
     1    10     9    1
     2    51    49   ar
     3    11     9    1
     4     9     8    2
     5    49    50   ar
     6    49    48    1
     7     8     7    1
     8     7     6    1
     9    31    30   ar
    10    23    21   am
    11   101   100    1
    12    48    45    1
    13    15    14    2
    14    28    25    1
    15    28    29    1
    16    20    21    1
    17    20    17    1
    18    58    57   ar
    19    21    22    2
    20    30    29    1
    21    30    32   ar
    22     6     5    1
    23    19    18    2
    24    25    26    1
    25    25    24    1
    26    45    44    1
    27    45    46    1
    28   100    99    1
    29    88    87    2
    30    14    13    1
    31    14    16   am
    32    12    13    1
    33    18    17    1
    34    59    57   ar
    35    78    80    1
    36    78    77    1
    37    57    56    1
    38    17    16    1
    39    97    96    2
    40     5     2    1
    41    44    35   am
    42    99    98    2
    43    46    47    2
    44    46    52   am
    45    26    27    2
    46    52    53    1
    47    98    95    1
    48    87    89   am
    49    87    86    1
    50    33    34    1
    51    77    79    1
    52    77    74    1
    53    96    95    1
    54    96   102   am
    55    95    94    1
    56    56    53    1
    57    35    36    2
    58    35    34    1
    59    53    54    1
    60     2     1    1
    61     2     3    1
    62    86    85    1
    63   105   104    2
    64    63    62    2
    65    70    71    1
    66    70    69    1
    67    34    37    1
    68    73    74    1
    69    73    71   am
    70   103   102    1
    71   103   104    1
    72    67    66    2
    73    85    82    1
    74     4     3    2
    75    74    75    1
    76    71    72    2
    77    37    38    1
    78    62    69   am
    79    62    61    1
    80    54    55    2
    81    64    61    1
    82    64    65    1
    83    76    75    2
    84    93    92    2
    85    91    92    1
    86    91    90    1
    87    82    81    1
    88    82    83    1
    89    66    65    1
    90    66    68   am
    91    61    60    1
    92    40    38   ar
    93    40    42   ar
    94    38    39   ar
    95    83    84    2
    96    42    43   ar
    97    39    41   ar
    98    43    41   ar
