@<TRIPOS>MOLECULE
tmp/3uufA00.pdb
 111 107 0 0 0
SMALL
GASTEIGER

@<TRIPOS>ATOM
      1  N         18.5450  -29.6140  -15.7580 N.3   201  ARG201     -0.1245
      2  CA        18.4620  -28.4940  -16.7160 C.3   201  ARG201      0.1563
      3  C         17.6280  -27.3170  -16.1650 C.2   201  ARG201      0.2260
      4  O         17.2020  -26.4350  -16.9110 O.2   201  ARG201     -0.2867
      5  CB        17.9270  -28.9910  -18.0900 C.3   201  ARG201      0.0307
      6  CG        18.9970  -29.4660  -19.0920 C.3   201  ARG201      0.0489
      7  CD        18.5460  -30.5760  -20.0570 C.3   201  ARG201      0.2205
      8  NE        17.5300  -30.1400  -21.0240 N.pl3 201  ARG201     -0.0865
      9  CZ        16.2030  -30.3320  -20.9080 C.cat 201  ARG201      0.5346
     10  NH1       15.6820  -30.9670  -19.8580 N.pl3 201  ARG201      0.1354
     11  NH2       15.3760  -29.8910  -21.8580 N.pl3 201  ARG201      0.1354
     12  N         23.6870  -34.1050  -12.6870 N.3   224  TYR224     -0.1228
     13  CA        23.4830  -34.4050  -14.1230 C.3   224  TYR224      0.1721
     14  C         23.8100  -35.8710  -14.5050 C.2   224  TYR224      0.2437
     15  O         24.8590  -36.4070  -14.0820 O.2   224  TYR224     -0.2733
     16  CB        24.2230  -33.4000  -15.0200 C.3   224  TYR224      0.0547
     17  CG        23.5440  -33.2930  -16.3540 C.ar  224  TYR224     -0.0200
     18  CD1       22.2170  -32.8640  -16.4360 C.ar  224  TYR224     -0.0009
     19  CD2       24.1970  -33.6720  -17.5340 C.ar  224  TYR224     -0.0009
     20  CE1       21.5570  -32.7960  -17.6510 C.ar  224  TYR224      0.0417
     21  CE2       23.5510  -33.6000  -18.7620 C.ar  224  TYR224      0.0417
     22  CZ        22.2330  -33.1630  -18.8130 C.ar  224  TYR224      0.1957
     23  OH        21.5730  -33.0880  -20.0160 O.3   224  TYR224     -0.2866
     24  N         22.9030  -36.5380  -15.2750 N.am  225  PRO225     -0.2718
     25  CA        21.6250  -36.0120  -15.7470 C.3   225  PRO225      0.1535
     26  C         20.6440  -35.8370  -14.6320 C.2   225  PRO225      0.2599
     27  O         20.7750  -36.4700  -13.5910 O.2   225  PRO225     -0.2715
     28  CB        21.1070  -37.1130  -16.6970 C.3   225  PRO225      0.0310
     29  CG        21.8000  -38.3600  -16.2630 C.3   225  PRO225      0.0237
     30  CD        23.1640  -37.8780  -15.8490 C.3   225  PRO225      0.0939
     31  N         19.6410  -35.0050  -14.8930 N.am  226  GLY226     -0.1941
     32  CA        18.5440  -34.7470  -13.9790 C.3   226  GLY226      0.2014
     33  C         17.9300  -35.9920  -13.3800 C.2   226  GLY226      0.2638
     34  O         17.6200  -36.9550  -14.0870 O.2   226  GLY226     -0.2714
     35  N         17.7400  -35.9490  -12.0630 N.am  227  ASN227     -0.1972
     36  CA        17.1230  -37.0230  -11.3170 C.3   227  ASN227      0.1688
     37  C         18.0310  -38.2400  -11.1310 C.2   227  ASN227      0.2292
     38  O         17.6150  -39.1740  -10.4690 O.2   227  ASN227     -0.2864
     39  CB        15.8240  -37.4810  -11.9650 C.3   227  ASN227      0.1181
     40  CG        14.7920  -36.3710  -12.1290 C.2   227  ASN227      0.2629
     41  OD1       14.7330  -35.3990  -11.3560 O.2   227  ASN227     -0.2716
     42  ND2       13.9400  -36.5400  -13.1480 N.am  227  ASN227     -0.0877
     43  N          9.5140  -26.1570  -15.1930 N.3   252  PHE252     -0.1227
     44  CA         9.9250  -26.5350  -13.8460 C.3   252  PHE252      0.1736
     45  C         10.1520  -28.0130  -13.6470 C.2   252  PHE252      0.2595
     46  O          9.9660  -28.5300  -12.5340 O.2   252  PHE252     -0.2718
     47  CB         8.8800  -26.0760  -12.8320 C.3   252  PHE252      0.0547
     48  CG         8.7780  -24.5910  -12.6950 C.ar  252  PHE252     -0.0202
     49  CD1        9.8770  -23.8370  -12.2980 C.ar  252  PHE252     -0.0042
     50  CD2        7.5710  -23.9370  -12.9590 C.ar  252  PHE252     -0.0042
     51  CE1        9.7750  -22.4530  -12.1680 C.ar  252  PHE252     -0.0003
     52  CE2        7.4630  -22.5540  -12.8250 C.ar  252  PHE252     -0.0003
     53  CZ         8.5620  -21.8160  -12.4110 C.ar  252  PHE252     -0.0000
     54  N         10.5540  -28.7020  -14.7070 N.am  253  ASP253     -0.1960
     55  CA        10.5560  -30.1900  -14.6880 C.3   253  ASP253      0.1840
     56  C         11.6180  -30.7160  -13.7220 C.2   253  ASP253      0.2622
     57  O         11.2860  -31.2220  -12.6470 O.2   253  ASP253     -0.2715
     58  CB        10.7330  -30.7770  -16.1090 C.3   253  ASP253      0.1450
     59  CG         9.4140  -30.8510  -16.9030 C.2   253  ASP253      0.3671
     60  OD1        8.3240  -30.3780  -16.4690 O.co2 253  ASP253     -0.2456
     61  OD2        9.4790  -31.4280  -17.9890 O.co2 253  ASP253     -0.2456
     62  N         12.8830  -30.5810  -14.1190 N.am  254  ASP254     -0.1971
     63  CA        14.0420  -30.7900  -13.2570 C.3   254  ASP254      0.1709
     64  C         13.9400  -30.0160  -11.9280 C.2   254  ASP254      0.2293
     65  O         14.2140  -30.5730  -10.8510 O.2   254  ASP254     -0.2864
     66  CB        15.3080  -30.4040  -14.0190 C.3   254  ASP254      0.1436
     67  CG        15.6800  -31.4270  -15.0720 C.2   254  ASP254      0.3671
     68  OD1       14.9580  -32.4280  -15.1910 O.co2 254  ASP254     -0.2456
     69  OD2       16.7000  -31.2530  -15.7560 O.co2 254  ASP254     -0.2456
     70  N         11.4020  -29.3700  -10.2310 N.3   256  GLN256     -0.1231
     71  CA        10.4880  -30.1050   -9.3510 C.3   256  GLN256      0.1698
     72  C         10.7800  -31.6200   -9.4140 C.2   256  GLN256      0.2593
     73  O          9.8790  -32.4480   -9.3250 O.2   256  GLN256     -0.2718
     74  CB         9.0210  -29.7520   -9.6650 C.3   256  GLN256      0.0381
     75  CG         8.5100  -28.4300   -9.0520 C.3   256  GLN256      0.0905
     76  CD         7.4220  -27.7710   -9.9030 C.2   256  GLN256      0.2608
     77  OE1        7.4450  -27.8980  -11.1000 O.2   256  GLN256     -0.2717
     78  NE2        6.4720  -27.0800   -9.2890 N.am  256  GLN256     -0.0878
     79  N         12.0680  -31.9520   -9.5260 N.am  257  GLY257     -0.1942
     80  CA        12.5260  -33.3100   -9.7140 C.3   257  GLY257      0.2014
     81  C         12.9990  -34.0980   -8.5100 C.2   257  GLY257      0.2638
     82  O         12.5170  -33.9100   -7.4000 O.2   257  GLY257     -0.2714
     83  N         13.9490  -35.0020   -8.7640 N.am  258  ILE258     -0.1977
     84  CA        14.3840  -35.9970   -7.7990 C.3   258  ILE258      0.1596
     85  C         15.7690  -35.6500   -7.2800 C.2   258  ILE258      0.2287
     86  O         16.7680  -35.7000   -8.0070 O.2   258  ILE258     -0.2864
     87  CB        14.4460  -37.4450   -8.3990 C.3   258  ILE258      0.0276
     88  CG1       13.1740  -37.8260   -9.2210 C.3   258  ILE258      0.0022
     89  CG2       14.8320  -38.4560   -7.3130 C.3   258  ILE258      0.0022
     90  CD1       12.0850  -38.5690   -8.4800 C.3   258  ILE258      0.0001
     91  N         11.7580  -36.7750   -4.2680 N.3   263  GLN263     -0.1245
     92  CA        11.1260  -35.8430   -5.1880 C.3   263  GLN263      0.1566
     93  C         10.5730  -34.6170   -4.4570 C.2   263  GLN263      0.2260
     94  O          9.7620  -34.7590   -3.5010 O.2   263  GLN263     -0.2867
     95  CB         9.9730  -36.5270   -5.9130 C.3   263  GLN263      0.0367
     96  CG         9.1140  -35.5440   -6.6800 C.3   263  GLN263      0.0905
     97  CD         7.8970  -36.1650   -7.3240 C.2   263  GLN263      0.2608
     98  OE1        7.8680  -36.3300   -8.5450 O.2   263  GLN263     -0.2717
     99  NE2        6.8790  -36.4730   -6.5250 N.am  263  GLN263     -0.0878
    100  N          8.2750  -32.1160   -5.6590 N.3   265  GLY265     -0.1225
    101  CA         7.4420  -32.0490   -6.8470 C.3   265  GLY265      0.1811
    102  C          6.5150  -30.8690   -6.7560 C.2   265  GLY265      0.2280
    103  O          5.8120  -30.5580   -7.7170 O.2   265  GLY265     -0.2866
    104  N          2.0500  -30.1850   -7.1790 N.3   268  MET268     -0.1245
    105  CA         1.5490  -31.3940   -7.8330 C.3   268  MET268      0.1570
    106  C          2.2850  -32.7190   -7.4730 C.2   268  MET268      0.2261
    107  O          1.9700  -33.7640   -8.0400 O.2   268  MET268     -0.2867
    108  CB         1.4590  -31.2050   -9.3760 C.3   268  MET268      0.0387
    109  CG         0.4890  -30.1130   -9.9100 C.3   268  MET268      0.0595
    110  SD        -1.0350  -29.6470   -8.9940 S.3   268  MET268     -0.1393
    111  CE        -1.9710  -31.1870   -8.9720 C.3   268  MET268      0.0692
@<TRIPOS>BOND
     1    11     9    1
     2     8     9    2
     3     8     7    1
     4     9    10    1
     5     7     6    1
     6    23    22    1
     7     6     5    1
     8    22    21   ar
     9    22    20   ar
    10    21    19   ar
    11     5     2    1
    12    61    59   ar
    13    20    18   ar
    14    19    17   ar
    15     4     3    2
    16    59    60   ar
    17    59    58    1
    18     2     3    1
    19     2     1    1
    20    28    29    1
    21    28    25    1
    22    18    17   ar
    23    17    16    1
    24    29    30    1
    25    58    55    1
    26    30    24    1
    27    69    67   ar
    28    25    24    1
    29    25    26    1
    30    24    14   am
    31    43    44    1
    32    68    67   ar
    33    67    66    1
    34    16    13    1
    35    31    26   am
    36    31    32    1
    37    54    55    1
    38    54    45   am
    39    55    56    1
    40    26    27    2
    41    14    13    1
    42    14    15    2
    43    13    12    1
    44    62    56   am
    45    62    63    1
    46    34    33    2
    47    66    63    1
    48    32    33    1
    49    44    45    1
    50    44    47    1
    51    56    57    2
    52    45    46    2
    53    33    35   am
    54    63    64    1
    55    42    40   am
    56    50    52   ar
    57    50    48   ar
    58    47    48    1
    59    52    53   ar
    60    48    49   ar
    61    53    51   ar
    62    49    51   ar
    63    40    39    1
    64    40    41    2
    65    35    36    1
    66    39    36    1
    67    64    65    2
    68    36    37    1
    69    37    38    2
    70    77    76    2
    71    70    71    1
    72   109   108    1
    73   109   110    1
    74    76    78   am
    75    76    75    1
    76    80    79    1
    77    80    81    1
    78    74    71    1
    79    74    75    1
    80    79    72   am
    81    72    71    1
    82    72    73    2
    83   108   105    1
    84    88    90    1
    85    88    87    1
    86   110   111    1
    87    83    81   am
    88    83    84    1
    89    98    97    2
    90    81    82    2
    91    87    84    1
    92    87    89    1
    93   107   106    2
    94    86    85    2
    95   105   106    1
    96   105   104    1
    97    84    85    1
    98   103   102    2
    99    97    96    1
   100    97    99   am
   101   101   102    1
   102   101   100    1
   103    96    95    1
   104    95    92    1
   105    92    93    1
   106    92    91    1
   107    93    94    2
