@<TRIPOS>MOLECULE
tmp/3uuoB00.pdb
 127 122 0 0 0
SMALL
GASTEIGER

@<TRIPOS>ATOM
      1  N          6.3640   48.4460   65.1720 N.3    70  TYR70      -0.1227
      2  CA         7.3690   47.4050   65.4880 C.3    70  TYR70       0.1736
      3  C          8.8170   47.9220   65.5750 C.2    70  TYR70       0.2595
      4  O          9.4520   47.6980   66.5910 O.2    70  TYR70      -0.2718
      5  CB         7.2950   46.2570   64.4670 C.3    70  TYR70       0.0548
      6  CG         8.2590   45.1170   64.7510 C.ar   70  TYR70      -0.0200
      7  CD1        7.9280   44.0980   65.6410 C.ar   70  TYR70      -0.0009
      8  CD2        9.4820   45.0370   64.1030 C.ar   70  TYR70      -0.0009
      9  CE1        8.8150   43.0490   65.9040 C.ar   70  TYR70       0.0417
     10  CE2       10.3810   44.0040   64.3660 C.ar   70  TYR70       0.0417
     11  CZ        10.0360   43.0000   65.2550 C.ar   70  TYR70       0.1957
     12  OH        10.8970   41.9570   65.5030 O.3    70  TYR70      -0.2866
     13  N          9.3550   48.5740   64.5270 N.am   71  HIS71      -0.1975
     14  CA        10.7530   49.0460   64.5500 C.3    71  HIS71       0.1656
     15  C         10.8460   50.3370   65.3620 C.2    71  HIS71       0.2291
     16  O         11.1720   51.3980   64.8410 O.2    71  HIS71      -0.2864
     17  CB        11.3120   49.1930   63.1170 C.3    71  HIS71       0.0771
     18  CG        11.1610   47.9620   62.2950 C.ar   71  HIS71       0.0820
     19  ND1       10.0980   47.8110   61.4310 N.ar   71  HIS71      -0.2267
     20  CD2       11.9320   46.8520   62.2270 C.ar   71  HIS71       0.1154
     21  CE1       10.2310   46.6120   60.8790 C.ar   71  HIS71       0.1986
     22  NE2       11.3250   46.0020   61.3170 N.ar   71  HIS71      -0.2212
     23  N         18.0880   40.5610   56.8440 N.3   181  LEU181     -0.1245
     24  CA        17.6870   39.1460   56.8050 C.3   181  LEU181      0.1561
     25  C         18.0200   38.4450   55.4900 C.2   181  LEU181      0.2260
     26  O         18.2290   37.2300   55.4810 O.2   181  LEU181     -0.2867
     27  CB        16.1880   38.9820   57.1460 C.3   181  LEU181      0.0270
     28  CG        15.6840   37.5540   57.4310 C.3   181  LEU181      0.0019
     29  CD1       16.2530   37.0350   58.7460 C.3   181  LEU181      0.0001
     30  CD2       14.1650   37.5220   57.4870 C.3   181  LEU181      0.0001
     31  N         17.8570   39.8700   66.8560 N.3   220  ASP220     -0.1225
     32  CA        16.8750   40.6160   66.0750 C.3   220  ASP220      0.1805
     33  C         15.4990   39.9160   66.0160 C.2   220  ASP220      0.2597
     34  O         14.4710   40.5940   66.0660 O.2   220  ASP220     -0.2718
     35  CB        17.4110   40.8670   64.6640 C.3   220  ASP220      0.1424
     36  CG        16.6660   41.9390   63.8970 C.2   220  ASP220      0.3668
     37  OD1       16.1520   42.8730   64.5380 O.co2 220  ASP220     -0.2456
     38  OD2       16.6680   41.8830   62.6420 O.co2 220  ASP220     -0.2456
     39  N         15.4750   38.5870   65.9610 N.am  221  LEU221     -0.1979
     40  CA        14.2160   37.8250   65.9200 C.3   221  LEU221      0.1596
     41  C         13.7680   37.3340   67.2870 C.2   221  LEU221      0.2287
     42  O         12.7950   36.5960   67.3410 O.2   221  LEU221     -0.2864
     43  CB        14.3700   36.6000   65.0050 C.3   221  LEU221      0.0297
     44  CG        14.8380   36.8090   63.5730 C.3   221  LEU221      0.0022
     45  CD1       14.9860   35.4630   62.8950 C.3   221  LEU221      0.0001
     46  CD2       13.8550   37.6630   62.7940 C.3   221  LEU221      0.0001
     47  N         11.8020   38.2140   69.5990 N.3   223  SER223     -0.1202
     48  CA        10.3780   38.3170   69.9520 C.3   223  SER223      0.2020
     49  C          9.6610   36.9350   69.7820 C.2   223  SER223      0.2618
     50  O          8.6290   36.7160   70.4050 O.2   223  SER223     -0.2717
     51  CB         9.6920   39.3770   69.0920 C.3   223  SER223      0.2103
     52  OG         9.9430   39.1200   67.7190 O.3   223  SER223     -0.2182
     53  N         10.2240   35.9980   68.9690 N.am  224  VAL224     -0.1979
     54  CA         9.6730   34.6340   68.8020 C.3   224  VAL224      0.1595
     55  C         10.1300   33.6630   69.9320 C.2   224  VAL224      0.2287
     56  O          9.7610   32.4790   69.8870 O.2   224  VAL224     -0.2864
     57  CB         9.9950   34.0230   67.4050 C.3   224  VAL224      0.0276
     58  CG1        9.5680   34.9590   66.2780 C.3   224  VAL224      0.0022
     59  CG2       11.4540   33.5960   67.2640 C.3   224  VAL224      0.0022
     60  N          3.2550   39.6570   67.5740 N.3   235  ALA235     -0.1245
     61  CA         2.9610   39.3190   66.1800 C.3   235  ALA235      0.1562
     62  C          2.0190   40.3690   65.5640 C.2   235  ALA235      0.2260
     63  O          2.1740   40.7000   64.4110 O.2   235  ALA235     -0.2867
     64  CB         2.3530   37.9310   66.0890 C.3   235  ALA235      0.0290
     65  N          4.2350   43.5310   64.1640 N.3   238  ILE238     -0.1231
     66  CA         4.8670   43.3840   62.8470 C.3   238  ILE238      0.1692
     67  C          3.8220   43.4110   61.7050 C.2   238  ILE238      0.2592
     68  O          4.0300   44.1250   60.7170 O.2   238  ILE238     -0.2718
     69  CB         5.8540   42.1540   62.7650 C.3   238  ILE238      0.0266
     70  CG1        6.7120   42.1680   61.4670 C.3   238  ILE238      0.0019
     71  CG2        5.1310   40.8240   62.8360 C.3   238  ILE238      0.0020
     72  CD1        7.6360   43.4340   61.2020 C.3   238  ILE238      0.0001
     73  N          2.6990   42.6700   61.8470 N.am  239  TYR239     -0.1976
     74  CA         1.6480   42.6740   60.8190 C.3   239  TYR239      0.1639
     75  C          1.0330   44.0710   60.6440 C.2   239  TYR239      0.2290
     76  O          0.6510   44.4100   59.5260 O.2   239  TYR239     -0.2864
     77  CB         0.5620   41.6040   61.0700 C.3   239  TYR239      0.0560
     78  CG         0.9720   40.2290   60.5990 C.ar  239  TYR239     -0.0198
     79  CD1        1.7310   39.3920   61.4050 C.ar  239  TYR239     -0.0009
     80  CD2        0.6920   39.8030   59.3040 C.ar  239  TYR239     -0.0009
     81  CE1        2.1530   38.1400   60.9600 C.ar  239  TYR239      0.0417
     82  CE2        1.1410   38.5700   58.8350 C.ar  239  TYR239      0.0417
     83  CZ         1.8560   37.7330   59.6720 C.ar  239  TYR239      0.1957
     84  OH         2.2740   36.4950   59.2580 O.3   239  TYR239     -0.2866
     85  N          3.3950   45.6160   58.1470 N.3   242  PHE242     -0.1241
     86  CA         3.2070   44.9230   56.8630 C.3   242  PHE242      0.1605
     87  C          1.9750   45.4600   56.1640 C.2   242  PHE242      0.2264
     88  O          2.0180   45.7530   54.9720 O.2   242  PHE242     -0.2867
     89  CB         3.0070   43.4020   57.0670 C.3   242  PHE242      0.0534
     90  CG         4.1760   42.5230   57.4640 C.ar  242  PHE242     -0.0203
     91  CD1        3.9720   41.1960   57.8130 C.ar  242  PHE242     -0.0042
     92  CD2        5.4860   42.9820   57.3680 C.ar  242  PHE242     -0.0042
     93  CE1        5.0450   40.3570   58.1140 C.ar  242  PHE242     -0.0003
     94  CE2        6.5600   42.1420   57.6870 C.ar  242  PHE242     -0.0003
     95  CZ         6.3320   40.8360   58.0580 C.ar  242  PHE242     -0.0000
     96  N          0.5090   38.4660   52.7610 N.3   259  MET259     -0.1245
     97  CA         1.1500   38.8350   54.0390 C.3   259  MET259      0.1570
     98  C          0.9900   40.3370   54.3550 C.2   259  MET259      0.2261
     99  O          0.8150   40.7140   55.5170 O.2   259  MET259     -0.2867
    100  CB         2.6420   38.4830   53.9460 C.3   259  MET259      0.0387
    101  CG         3.4180   38.6700   55.2070 C.3   259  MET259      0.0595
    102  SD         5.1240   38.1610   54.9010 S.3   259  MET259     -0.1393
    103  CE         5.8870   39.7090   54.4900 C.3   259  MET259      0.0692
    104  N          1.1300   31.9270   58.5720 N.3   271  GLY271     -0.1210
    105  CA         2.3160   32.6990   58.2130 C.3   271  GLY271      0.1956
    106  C          3.4110   32.5350   59.2380 C.2   271  GLY271      0.2611
    107  O          4.5890   32.4040   58.8830 O.2   271  GLY271     -0.2717
    108  N          3.0140   32.4980   60.5260 N.am  272  GLN272     -0.1979
    109  CA         3.9410   32.3230   61.6300 C.3   272  GLN272      0.1601
    110  C          4.5140   30.9060   61.6460 C.2   272  GLN272      0.2287
    111  O          5.7180   30.7710   61.7520 O.2   272  GLN272     -0.2864
    112  CB         3.2850   32.6950   62.9680 C.3   272  GLN272      0.0394
    113  CG         2.9730   34.1990   63.0840 C.3   272  GLN272      0.0908
    114  CD         4.2120   35.0540   62.9640 C.2   272  GLN272      0.2608
    115  OE1        4.9760   35.2240   63.9190 O.2   272  GLN272     -0.2717
    116  NE2        4.4890   35.5340   61.7690 N.am  272  GLN272     -0.0878
    117  N          7.1520   30.7700   58.8570 N.3   275  PHE275     -0.1241
    118  CA         8.3560   31.5420   59.1970 C.3   275  PHE275      0.1605
    119  C          9.2260   30.8620   60.2620 C.2   275  PHE275      0.2264
    120  O         10.4400   30.9100   60.1610 O.2   275  PHE275     -0.2867
    121  CB         7.9680   32.9450   59.6900 C.3   275  PHE275      0.0534
    122  CG         9.1480   33.8290   60.0510 C.ar  275  PHE275     -0.0203
    123  CD1        9.9000   34.4500   59.0660 C.ar  275  PHE275     -0.0042
    124  CD2        9.5110   34.0270   61.3770 C.ar  275  PHE275     -0.0042
    125  CE1       10.9980   35.2480   59.3960 C.ar  275  PHE275     -0.0003
    126  CE2       10.6150   34.8280   61.7070 C.ar  275  PHE275     -0.0003
    127  CZ        11.3370   35.4410   60.7160 C.ar  275  PHE275     -0.0000
@<TRIPOS>BOND
     1    96    97    1
     2   100    97    1
     3   100   101    1
     4    97    98    1
     5    98    99    2
     6   103   102    1
     7   102   101    1
     8    88    87    2
     9    26    25    2
    10    25    24    1
    11    87    86    1
    12    24    23    1
    13    24    27    1
    14    86    89    1
    15    86    85    1
    16    89    90    1
    17    27    28    1
    18    92    90   ar
    19    92    94   ar
    20    28    30    1
    21    28    29    1
    22    90    91   ar
    23    94    95   ar
    24    91    93   ar
    25    95    93   ar
    26   105   104    1
    27   105   106    1
    28    82    80   ar
    29    82    83   ar
    30   117   118    1
    31   107   106    2
    32   123   125   ar
    33   123   122   ar
    34   118   121    1
    35   118   119    1
    36   106   108   am
    37    84    83    1
    38    80    78   ar
    39   125   127   ar
    40    76    75    2
    41    83    81   ar
    42   121   122    1
    43   122   124   ar
    44   120   119    2
    45   108   109    1
    46    78    77    1
    47    78    79   ar
    48    75    74    1
    49   127   126   ar
    50    68    67    2
    51    74    77    1
    52    74    73    1
    53    21    22   ar
    54    21    19   ar
    55    81    79   ar
    56    72    70    1
    57    22    20   ar
    58   124   126   ar
    59    19    18   ar
    60    70    69    1
    61   109   110    1
    62   109   112    1
    63   110   111    2
    64    67    73   am
    65    67    66    1
    66   116   114   am
    67    20    18   ar
    68    18    17    1
    69    38    36   ar
    70    69    71    1
    71    69    66    1
    72    46    44    1
    73    66    65    1
    74    45    44    1
    75   114   113    1
    76   114   115    2
    77   112   113    1
    78    17    14    1
    79    44    43    1
    80    36    37   ar
    81    36    35    1
    82     8    10   ar
    83     8     6   ar
    84    10    11   ar
    85    63    62    2
    86     5     6    1
    87     5     2    1
    88    13    14    1
    89    13     3   am
    90    14    15    1
    91    35    32    1
    92     6     7   ar
    93    16    15    2
    94    43    40    1
    95     1     2    1
    96    11    12    1
    97    11     9   ar
    98     2     3    1
    99    62    61    1
   100     3     4    2
   101     7     9   ar
   102    40    39    1
   103    40    41    1
   104    39    33   am
   105    33    34    2
   106    33    32    1
   107    32    31    1
   108    64    61    1
   109    61    60    1
   110    58    57    1
   111    59    57    1
   112    41    42    2
   113    57    54    1
   114    52    51    1
   115    54    53    1
   116    54    55    1
   117    53    49   am
   118    51    48    1
   119    47    48    1
   120    49    48    1
   121    49    50    2
   122    56    55    2
