@<TRIPOS>MOLECULE
tmp/3uuwA01.pdb
 87 83 0 0 0
SMALL
GASTEIGER

@<TRIPOS>ATOM
      1  N         -5.2350   -8.8210  -21.5740 N.3   140  SER140     -0.1217
      2  CA        -4.1650   -7.8380  -21.7990 C.3   140  SER140      0.1889
      3  C         -3.0470   -8.0660  -20.8090 C.2   140  SER140      0.2288
      4  O         -3.2910   -8.5080  -19.6810 O.2   140  SER140     -0.2866
      5  CB        -4.7240   -6.4280  -21.6030 C.3   140  SER140      0.2089
      6  OG        -3.8350   -5.4170  -22.0010 O.3   140  SER140     -0.2183
      7  N          0.5220   -5.9280  -19.3760 N.3   142  ASN142     -0.1225
      8  CA         1.3810   -4.7360  -19.4090 C.3   142  ASN142      0.1785
      9  C          2.6910   -5.0510  -18.6980 C.2   142  ASN142      0.2597
     10  O          2.6760   -5.5890  -17.5930 O.2   142  ASN142     -0.2718
     11  CB         0.6940   -3.5450  -18.7210 C.3   142  ASN142      0.1169
     12  CG        -0.6310   -3.2050  -19.3380 C.2   142  ASN142      0.2627
     13  OD1       -0.7370   -2.9770  -20.5420 O.2   142  ASN142     -0.2716
     14  ND2       -1.6730   -3.1680  -18.5070 N.am  142  ASN142     -0.0877
     15  N          3.8160   -4.6820  -19.3000 N.am  143  ILE143     -0.1980
     16  CA         5.1080   -4.9130  -18.6910 C.3   143  ILE143      0.1595
     17  C          5.9150   -3.6540  -18.7970 C.2   143  ILE143      0.2287
     18  O          6.0670   -3.1210  -19.8780 O.2   143  ILE143     -0.2864
     19  CB         5.9090   -6.0510  -19.3710 C.3   143  ILE143      0.0276
     20  CG1        5.0850   -7.3510  -19.4370 C.3   143  ILE143      0.0022
     21  CG2        7.2320   -6.2560  -18.6250 C.3   143  ILE143      0.0022
     22  CD1        5.7980   -8.4990  -20.2200 C.3   143  ILE143      0.0001
     23  N          6.6510    3.4640  -29.7680 N.3   185  ASP185     -0.1239
     24  CA         7.1680    4.7880  -29.4360 C.3   185  ASP185      0.1674
     25  C          8.6680    4.5740  -29.2700 C.2   185  ASP185      0.2266
     26  O          9.0940    3.6430  -28.5900 O.2   185  ASP185     -0.2867
     27  CB         6.6450    5.3200  -28.1020 C.3   185  ASP185      0.1410
     28  CG         5.1430    5.4940  -28.0680 C.2   185  ASP185      0.3668
     29  OD1        4.5530    5.8760  -29.0920 O.co2 185  ASP185     -0.2456
     30  OD2        4.5670    5.2620  -26.9730 O.co2 185  ASP185     -0.2456
     31  N         13.0380    6.7190  -24.0420 N.3   196  PHE196     -0.1241
     32  CA        11.8300    5.9270  -23.8000 C.3   196  PHE196      0.1605
     33  C         11.5360    5.0450  -24.9870 C.2   196  PHE196      0.2264
     34  O         11.7340    5.4500  -26.1250 O.2   196  PHE196     -0.2867
     35  CB        10.6710    6.8890  -23.5550 C.3   196  PHE196      0.0534
     36  CG         9.3450    6.2200  -23.3890 C.ar  196  PHE196     -0.0203
     37  CD1        8.9730    5.6990  -22.1570 C.ar  196  PHE196     -0.0042
     38  CD2        8.4740    6.0920  -24.4490 C.ar  196  PHE196     -0.0042
     39  CE1        7.7490    5.0470  -21.9850 C.ar  196  PHE196     -0.0003
     40  CE2        7.2460    5.4380  -24.2780 C.ar  196  PHE196     -0.0003
     41  CZ         6.8840    4.9380  -23.0340 C.ar  196  PHE196     -0.0000
     42  N          8.4910    1.9580  -26.2280 N.3   198  SER198     -0.1202
     43  CA         7.2850    1.2090  -25.9460 C.3   198  SER198      0.2020
     44  C          6.8000    0.5120  -27.1940 C.2   198  SER198      0.2619
     45  O          7.0090    0.9970  -28.3090 O.2   198  SER198     -0.2717
     46  CB         6.1990    2.1320  -25.4050 C.3   198  SER198      0.2103
     47  OG         4.9870    1.4260  -25.2610 O.3   198  SER198     -0.2182
     48  N          6.1660   -0.6400  -26.9920 N.am  199  HIS199     -0.1961
     49  CA         5.5720   -1.4140  -28.0740 C.3   199  HIS199      0.1787
     50  C          4.2630   -2.0090  -27.6610 C.2   199  HIS199      0.2620
     51  O          4.0030   -2.2220  -26.4800 O.2   199  HIS199     -0.2715
     52  CB         6.4960   -2.5250  -28.5290 C.3   199  HIS199      0.0785
     53  CG         7.6950   -2.0140  -29.2440 C.ar  199  HIS199      0.0821
     54  ND1        8.8620   -1.6840  -28.5930 N.ar  199  HIS199     -0.2267
     55  CD2        7.8750   -1.6880  -30.5380 C.ar  199  HIS199      0.1154
     56  CE1        9.7290   -1.2150  -29.4740 C.ar  199  HIS199      0.1986
     57  NE2        9.1460   -1.1820  -30.6570 N.ar  199  HIS199     -0.2212
     58  N          3.4240   -2.2330  -28.6530 N.am  200  LYS200     -0.1977
     59  CA         2.2560   -3.0490  -28.4690 C.3   200  LYS200      0.1596
     60  C          2.4990   -4.3010  -29.3080 C.2   200  LYS200      0.2287
     61  O          2.7130   -4.2130  -30.5530 O.2   200  LYS200     -0.2864
     62  CB         0.9950   -2.3270  -28.9010 C.3   200  LYS200      0.0298
     63  CG        -0.2600   -3.1570  -28.6840 C.3   200  LYS200      0.0038
     64  CD        -1.5080   -2.4010  -29.1300 C.3   200  LYS200      0.0206
     65  CE        -1.9600   -1.3940  -28.1030 C.3   200  LYS200      0.1093
     66  NZ        -2.5450   -2.1070  -26.9130 N.3   200  LYS200     -0.1314
     67  N          1.5750   -4.8620  -23.8020 N.3   209  ASN209     -0.1225
     68  CA         2.0940   -3.5130  -23.8750 C.3   209  ASN209      0.1785
     69  C          3.3470   -3.4330  -23.0600 C.2   209  ASN209      0.2598
     70  O          3.3030   -3.5880  -21.8420 O.2   209  ASN209     -0.2718
     71  CB         1.0480   -2.5400  -23.3580 C.3   209  ASN209      0.1169
     72  CG        -0.2570   -2.6720  -24.1050 C.2   209  ASN209      0.2627
     73  OD1       -0.3360   -2.3070  -25.2770 O.2   209  ASN209     -0.2716
     74  ND2       -1.2720   -3.2430  -23.4590 N.am  209  ASN209     -0.0877
     75  N          4.4600   -3.1590  -23.7480 N.am  210  THR210     -0.1939
     76  CA         5.7870   -3.1150  -23.1470 C.3   210  THR210      0.2028
     77  C          6.2830   -1.7070  -23.1060 C.2   210  THR210      0.2642
     78  O          6.0490   -0.9530  -24.0330 O.2   210  THR210     -0.2714
     79  CB         6.7970   -3.9580  -23.9560 C.3   210  THR210      0.1808
     80  OG1        6.8830   -3.4860  -25.3100 O.3   210  THR210     -0.2208
     81  CG2        6.3720   -5.4300  -23.9690 C.3   210  THR210      0.0379
     82  N          6.9650   -1.3360  -22.0190 N.am  211  SER211     -0.1949
     83  CA         7.4170    0.0560  -21.8210 C.3   211  SER211      0.1924
     84  C          8.6790    0.1940  -20.9530 C.2   211  SER211      0.2314
     85  O          8.8050   -0.4440  -19.9210 O.2   211  SER211     -0.2863
     86  CB         6.2790    0.8520  -21.1800 C.3   211  SER211      0.2116
     87  OG         6.6450    2.1870  -20.8740 O.3   211  SER211     -0.2180
@<TRIPOS>BOND
     1    57    55   ar
     2    57    56   ar
     3    61    60    2
     4    55    53   ar
     5    23    24    1
     6    56    54   ar
     7    24    25    1
     8    24    27    1
     9    60    59    1
    10    25    26    2
    11    53    54   ar
    12    53    52    1
    13    64    63    1
    14    64    65    1
    15    29    28   ar
    16    62    63    1
    17    62    59    1
    18    58    59    1
    19    58    50   am
    20    52    49    1
    21    45    44    2
    22    65    66    1
    23    27    28    1
    24    49    50    1
    25    49    48    1
    26    28    30   ar
    27    50    51    2
    28    44    48   am
    29    44    43    1
    30    42    43    1
    31    34    33    2
    32    43    46    1
    33    46    47    1
    34    80    79    1
    35    73    72    2
    36    33    32    1
    37    38    40   ar
    38    38    36   ar
    39    40    41   ar
    40    72    74   am
    41    72    71    1
    42    31    32    1
    43    78    77    2
    44    81    79    1
    45    79    76    1
    46    68    67    1
    47    68    71    1
    48    68    69    1
    49    32    35    1
    50    75    76    1
    51    75    69   am
    52    35    36    1
    53    36    37   ar
    54    76    77    1
    55    77    82   am
    56    69    70    2
    57    41    39   ar
    58    37    39   ar
    59    82    83    1
    60     6     5    1
    61    83    86    1
    62    83    84    1
    63     2     5    1
    64     2     1    1
    65     2     3    1
    66    86    87    1
    67    84    85    2
    68     3     4    2
    69    13    12    2
    70    22    20    1
    71    18    17    2
    72    20    19    1
    73     8     7    1
    74     8    11    1
    75     8     9    1
    76    19    16    1
    77    19    21    1
    78    12    11    1
    79    12    14   am
    80    15     9   am
    81    15    16    1
    82    17    16    1
    83     9    10    2
