@<TRIPOS>MOLECULE
tmp/3uuwD01.pdb
 77 74 0 0 0
SMALL
GASTEIGER

@<TRIPOS>ATOM
      1  N         -5.6060   -1.8770   19.3060 N.3   142  ASN142     -0.1225
      2  CA        -4.8750   -0.6050   19.3250 C.3   142  ASN142      0.1785
      3  C         -5.7030    0.4230   18.6030 C.2   142  ASN142      0.2597
      4  O         -6.2170    0.1620   17.4960 O.2   142  ASN142     -0.2718
      5  CB        -3.5390   -0.7290   18.6300 C.3   142  ASN142      0.1169
      6  CG        -2.6430   -1.7330   19.2810 C.2   142  ASN142      0.2627
      7  OD1       -2.4320   -1.7050   20.4960 O.2   142  ASN142     -0.2716
      8  ND2       -2.0920   -2.6310   18.4800 N.am  142  ASN142     -0.0877
      9  N         -5.8700    1.5790   19.2190 N.am  143  ILE143     -0.1980
     10  CA        -6.6440    2.6450   18.5960 C.3   143  ILE143      0.1595
     11  C         -5.8750    3.9150   18.6900 C.2   143  ILE143      0.2287
     12  O         -5.4500    4.2940   19.7720 O.2   143  ILE143     -0.2864
     13  CB        -7.9970    2.8870   19.2820 C.3   143  ILE143      0.0276
     14  CG1       -8.7770    1.5860   19.3720 C.3   143  ILE143      0.0022
     15  CG2       -8.8400    3.8870   18.4760 C.3   143  ILE143      0.0022
     16  CD1      -10.1430    1.6940   20.1480 C.3   143  ILE143      0.0001
     17  N         -1.1810    2.5290   32.7520 N.3   183  GLY183     -0.1225
     18  CA        -0.1580    2.8860   31.7750 C.3   183  GLY183      0.1811
     19  C         -0.4210    4.1910   31.0600 C.2   183  GLY183      0.2280
     20  O         -0.3240    4.2720   29.8350 O.2   183  GLY183     -0.2866
     21  N          0.3560   14.8790   23.7990 N.3   196  PHE196     -0.1241
     22  CA         0.1720   13.4430   23.5940 C.3   196  PHE196      0.1605
     23  C         -0.4950   12.7810   24.7860 C.2   196  PHE196      0.2264
     24  O         -0.1970   13.1110   25.9330 O.2   196  PHE196     -0.2867
     25  CB         1.5490   12.7940   23.3410 C.3   196  PHE196      0.0534
     26  CG         1.4970   11.2820   23.1580 C.ar  196  PHE196     -0.0203
     27  CD1        1.7690   10.4340   24.2070 C.ar  196  PHE196     -0.0042
     28  CD2        1.1740   10.7260   21.9280 C.ar  196  PHE196     -0.0042
     29  CE1        1.7080    9.0440   24.0340 C.ar  196  PHE196     -0.0003
     30  CE2        1.1050    9.3640   21.7570 C.ar  196  PHE196     -0.0003
     31  CZ         1.3790    8.5160   22.7990 C.ar  196  PHE196     -0.0000
     32  N         -1.9020    8.7190   26.0230 N.3   198  SER198     -0.1202
     33  CA        -2.1170    7.3010   25.7570 C.3   198  SER198      0.2020
     34  C         -2.4930    6.5680   27.0230 C.2   198  SER198      0.2619
     35  O         -2.1070    6.9710   28.1100 O.2   198  SER198     -0.2717
     36  CB        -0.8940    6.6500   25.1020 C.3   198  SER198      0.2103
     37  OG         0.1600    6.4480   26.0090 O.3   198  SER198     -0.2182
     38  N         -3.2480    5.4840   26.8590 N.am  199  HIS199     -0.1961
     39  CA        -3.6370    4.6350   27.9640 C.3   199  HIS199      0.1787
     40  C         -3.6620    3.1820   27.5600 C.2   199  HIS199      0.2620
     41  O         -3.6940    2.8540   26.3810 O.2   199  HIS199     -0.2715
     42  CB        -5.0240    5.0030   28.4880 C.3   199  HIS199      0.0785
     43  CG        -5.0600    6.3270   29.1570 C.ar  199  HIS199      0.0821
     44  ND1       -5.2940    7.4940   28.4710 N.ar  199  HIS199     -0.2267
     45  CD2       -4.8470    6.6810   30.4480 C.ar  199  HIS199      0.1154
     46  CE1       -5.2260    8.5110   29.3080 C.ar  199  HIS199      0.1986
     47  NE2       -4.9550    8.0470   30.5150 N.ar  199  HIS199     -0.2212
     48  N         -3.5830    2.3290   28.5570 N.am  200  LYS200     -0.1977
     49  CA        -3.8290    0.9320   28.3590 C.3   200  LYS200      0.1596
     50  C         -5.0750    0.6100   29.1730 C.2   200  LYS200      0.2287
     51  O         -5.1080    0.8420   30.4030 O.2   200  LYS200     -0.2864
     52  CB        -2.6440    0.0920   28.8070 C.3   200  LYS200      0.0298
     53  CG        -2.8470   -1.3700   28.5370 C.3   200  LYS200      0.0038
     54  CD        -1.6600   -2.1830   28.9810 C.3   200  LYS200      0.0206
     55  CE        -1.8420   -3.6240   28.6030 C.3   200  LYS200      0.1093
     56  NZ        -0.9470   -4.4830   29.4340 N.3   200  LYS200     -0.1314
     57  N         -5.0650   -0.5240   23.7380 N.3   209  ASN209     -0.1225
     58  CA        -4.0790    0.5590   23.8240 C.3   209  ASN209      0.1785
     59  C         -4.5690    1.7360   23.0040 C.2   209  ASN209      0.2598
     60  O         -4.7380    1.6150   21.7830 O.2   209  ASN209     -0.2718
     61  CB        -2.7480    0.1020   23.2740 C.3   209  ASN209      0.1169
     62  CG        -2.2480   -1.1380   23.9520 C.2   209  ASN209      0.2627
     63  OD1       -2.2760   -2.2380   23.3730 O.2   209  ASN209     -0.2716
     64  ND2       -1.8310   -0.9970   25.2070 N.am  209  ASN209     -0.0877
     65  N         -4.7720    2.8670   23.6630 N.am  210  THR210     -0.1939
     66  CA        -5.3090    4.0690   23.0350 C.3   210  THR210      0.2028
     67  C         -4.2580    5.1410   22.9900 C.2   210  THR210      0.2642
     68  O         -3.4800    5.2680   23.9220 O.2   210  THR210     -0.2714
     69  CB        -6.5370    4.5930   23.8060 C.3   210  THR210      0.1808
     70  OG1       -6.2030    4.8220   25.1780 O.3   210  THR210     -0.2208
     71  CG2       -7.6780    3.5580   23.7550 C.3   210  THR210      0.0379
     72  N         -4.2250    5.9140   21.9110 N.am  211  SER211     -0.1949
     73  CA        -3.2820    7.0170   21.8120 C.3   211  SER211      0.1924
     74  C         -3.7620    8.1370   20.8950 C.2   211  SER211      0.2314
     75  O         -4.5350    7.9430   19.9420 O.2   211  SER211     -0.2863
     76  CB        -1.9490    6.5330   21.3140 C.3   211  SER211      0.2116
     77  OG        -2.0830    6.0320   20.0040 O.3   211  SER211     -0.2180
@<TRIPOS>BOND
     1     4     3    2
     2    15    13    1
     3     8     6   am
     4    10    11    1
     5    10     9    1
     6    10    13    1
     7     3     9   am
     8     3     2    1
     9     5     6    1
    10     5     2    1
    11    11    12    2
    12     6     7    2
    13    13    14    1
    14     1     2    1
    15    14    16    1
    16    75    74    2
    17    77    76    1
    18    74    73    1
    19    76    73    1
    20    30    28   ar
    21    30    31   ar
    22    60    59    2
    23    73    72    1
    24    72    67   am
    25    28    26   ar
    26    31    29   ar
    27    67    66    1
    28    67    68    2
    29    59    65   am
    30    59    58    1
    31    66    65    1
    32    66    69    1
    33    26    25    1
    34    26    27   ar
    35    61    58    1
    36    61    62    1
    37    25    22    1
    38    63    62    2
    39    22    21    1
    40    22    23    1
    41    57    58    1
    42    71    69    1
    43    69    70    1
    44    62    64   am
    45    29    27   ar
    46    23    24    2
    47    36    33    1
    48    36    37    1
    49    33    32    1
    50    33    34    1
    51    41    40    2
    52    38    34   am
    53    38    39    1
    54    34    35    2
    55    40    39    1
    56    40    48   am
    57    39    42    1
    58    49    48    1
    59    49    52    1
    60    49    50    1
    61    44    43   ar
    62    44    46   ar
    63    42    43    1
    64    53    52    1
    65    53    54    1
    66    55    54    1
    67    55    56    1
    68    43    45   ar
    69    50    51    2
    70    46    47   ar
    71    20    19    2
    72    45    47   ar
    73    19    18    1
    74    18    17    1
