@<TRIPOS>MOLECULE
tmp/3uuwB02.pdb
 93 90 0 0 0
SMALL
GASTEIGER

@<TRIPOS>ATOM
      1  N        -28.3710    8.7930  -10.9950 N.3    13  ILE13      -0.1245
      2  CA       -27.2920    9.7400  -11.2340 C.3    13  ILE13       0.1561
      3  C        -27.5740   11.1120  -10.5990 C.2    13  ILE13       0.2260
      4  O        -26.7420   11.6690   -9.9100 O.2    13  ILE13      -0.2867
      5  CB       -27.0040    9.8580  -12.7550 C.3    13  ILE13       0.0252
      6  CG1      -26.2940    8.5930  -13.2410 C.3    13  ILE13       0.0019
      7  CG2      -26.1830   11.0780  -13.0600 C.3    13  ILE13       0.0019
      8  CD1      -24.9160    8.3930  -12.6120 C.3    13  ILE13       0.0001
      9  N        -30.4960   15.0660  -16.3920 N.3    69  HIS69      -0.1226
     10  CA       -29.8990   13.8030  -16.0000 C.3    69  HIS69       0.1752
     11  C        -30.7890   12.6690  -16.4480 C.2    69  HIS69       0.2597
     12  O        -31.0310   11.7430  -15.6870 O.2    69  HIS69      -0.2718
     13  CB       -29.6880   13.7410  -14.4620 C.3    69  HIS69       0.0759
     14  CG       -29.0010   14.9460  -13.9000 C.ar   69  HIS69       0.0818
     15  ND1      -27.7130   15.2950  -14.2340 N.ar   69  HIS69      -0.2268
     16  CD2      -29.4410   15.9030  -13.0530 C.ar   69  HIS69       0.1154
     17  CE1      -27.3990   16.4270  -13.6320 C.ar   69  HIS69       0.1986
     18  NE2      -28.4230   16.8020  -12.8890 N.ar   69  HIS69      -0.2212
     19  N        -31.2660   12.7270  -17.6830 N.am   70  SER70      -0.1938
     20  CA       -32.1030   11.6540  -18.2260 C.3    70  SER70       0.2055
     21  C        -31.2790   10.6690  -19.0590 C.2    70  SER70       0.2644
     22  O        -30.0820   10.8850  -19.3150 O.2    70  SER70      -0.2714
     23  CB       -33.2460   12.2430  -19.0700 C.3    70  SER70       0.2130
     24  OG       -32.7540   12.9120  -20.2190 O.3    70  SER70      -0.2179
     25  N        -31.9290    9.5850  -19.4800 N.am   71  SER71      -0.1935
     26  CA       -31.3000    8.5680  -20.3040 C.3    71  SER71       0.2055
     27  C        -30.7510    9.1640  -21.6000 C.2    71  SER71       0.2643
     28  O        -31.3330   10.0820  -22.1700 O.2    71  SER71      -0.2714
     29  CB       -32.2960    7.4540  -20.6420 C.3    71  SER71       0.2130
     30  OG       -33.2910    7.9180  -21.5410 O.3    71  SER71      -0.2179
     31  N        -29.6320    8.6210  -22.0580 N.am   72  THR72      -0.1950
     32  CA       -28.9790    9.0820  -23.2800 C.3    72  THR72       0.1897
     33  C        -29.9190    9.1950  -24.4760 C.2    72  THR72       0.2313
     34  O        -29.8680   10.1750  -25.2220 O.2    72  THR72      -0.2863
     35  CB       -27.8220    8.1610  -23.6390 C.3    72  THR72       0.1794
     36  OG1      -26.8610    8.1800  -22.5690 O.3    72  THR72      -0.2208
     37  CG2      -27.1630    8.5920  -24.9470 C.3    72  THR72       0.0378
     38  N        -31.9080   12.4880  -24.5680 N.3    75  HIS75      -0.1241
     39  CA       -31.2180   13.7740  -24.6260 C.3    75  HIS75       0.1621
     40  C        -31.6170   14.6410  -25.8320 C.2    75  HIS75       0.2264
     41  O        -31.9540   15.8120  -25.6900 O.2    75  HIS75      -0.2867
     42  CB       -29.7040   13.5600  -24.6900 C.3    75  HIS75       0.0745
     43  CG       -29.0880   13.0500  -23.4240 C.ar   75  HIS75       0.0817
     44  ND1      -27.7220   12.9380  -23.2740 N.ar   75  HIS75      -0.2268
     45  CD2      -29.6270   12.6950  -22.2320 C.ar   75  HIS75       0.1154
     46  CE1      -27.4480   12.4830  -22.0640 C.ar   75  HIS75       0.1986
     47  NE2      -28.5840   12.3460  -21.4030 N.ar   75  HIS75      -0.2212
     48  N        -25.4930   15.1980  -18.7580 N.3    92  ASP92      -0.1225
     49  CA       -24.4530   14.1780  -18.6220 C.3    92  ASP92       0.1805
     50  C        -24.0450   13.6470  -20.0040 C.2    92  ASP92       0.2597
     51  O        -24.7860   13.7600  -20.9890 O.2    92  ASP92      -0.2718
     52  CB       -24.9240   13.0360  -17.7370 C.3    92  ASP92       0.1424
     53  CG       -24.9480   13.4300  -16.2750 C.2    92  ASP92       0.3668
     54  OD1      -23.8520   13.6150  -15.6920 O.co2  92  ASP92      -0.2456
     55  OD2      -26.0480   13.5470  -15.7270 O.co2  92  ASP92      -0.2456
     56  N        -22.8310   13.1200  -20.0720 N.am   93  LYS93      -0.1979
     57  CA       -22.3460   12.4760  -21.2870 C.3    93  LYS93       0.1596
     58  C        -23.1400   11.2140  -21.6410 C.2    93  LYS93       0.2287
     59  O        -23.7920   10.6230  -20.7720 O.2    93  LYS93      -0.2864
     60  CB       -20.8330   12.1890  -21.2390 C.3    93  LYS93       0.0298
     61  CG       -20.2260   11.3890  -20.0620 C.3    93  LYS93       0.0038
     62  CD       -20.6790    9.9370  -20.0160 C.3    93  LYS93       0.0206
     63  CE       -21.7280    9.7450  -18.9780 C.3    93  LYS93       0.1093
     64  NZ       -22.3400    8.3980  -19.0580 N.3    93  LYS93      -0.1314
     65  N        -21.3240    5.4460  -23.3790 N.3   162  ASP162     -0.1239
     66  CA       -21.7700    5.7030  -21.9990 C.3   162  ASP162      0.1674
     67  C        -20.6120    5.7470  -20.9920 C.2   162  ASP162      0.2266
     68  O        -20.6210    6.5510  -20.0440 O.2   162  ASP162     -0.2867
     69  CB       -22.7320    4.5940  -21.5460 C.3   162  ASP162      0.1410
     70  CG       -23.3150    4.8500  -20.1570 C.2   162  ASP162      0.3668
     71  OD1      -23.8140    5.9820  -19.9350 O.co2 162  ASP162     -0.2456
     72  OD2      -23.3010    3.9160  -19.3020 O.co2 162  ASP162     -0.2456
     73  N        -15.4740    8.2980  -21.0600 N.3   166  HIS166     -0.1241
     74  CA       -14.7340    9.0040  -20.0020 C.3   166  HIS166      0.1621
     75  C        -13.2420    8.8420  -20.1480 C.2   166  HIS166      0.2264
     76  O        -12.4720    9.7670  -19.9120 O.2   166  HIS166     -0.2867
     77  CB       -15.1110    8.4810  -18.6270 C.3   166  HIS166      0.0745
     78  CG       -16.4570    8.9120  -18.1670 C.ar  166  HIS166      0.0817
     79  ND1      -16.7860   10.2380  -17.9900 N.ar  166  HIS166     -0.2268
     80  CD2      -17.5350    8.1960  -17.7810 C.ar  166  HIS166      0.1154
     81  CE1      -18.0240   10.3180  -17.5330 C.ar  166  HIS166      0.1986
     82  NE2      -18.5000    9.0930  -17.3960 N.ar  166  HIS166     -0.2212
     83  N        -17.5660   16.6180   -9.8130 N.3   265  PHE265     -0.1241
     84  CA       -18.9710   17.0280   -9.9930 C.3   265  PHE265      0.1605
     85  C        -19.2670   18.3890   -9.3670 C.2   265  PHE265      0.2264
     86  O        -20.0080   19.2040   -9.9230 O.2   265  PHE265     -0.2867
     87  CB       -19.9200   15.9580   -9.4380 C.3   265  PHE265      0.0534
     88  CG       -19.9730   14.6980  -10.2760 C.ar  265  PHE265     -0.0203
     89  CD1      -20.6030   14.7050  -11.5100 C.ar  265  PHE265     -0.0042
     90  CD2      -19.3470   13.5290   -9.8600 C.ar  265  PHE265     -0.0042
     91  CE1      -20.6370   13.5640  -12.2990 C.ar  265  PHE265     -0.0003
     92  CE2      -19.3890   12.3850  -10.6330 C.ar  265  PHE265     -0.0003
     93  CZ       -20.0100   12.3870  -11.8470 C.ar  265  PHE265     -0.0000
@<TRIPOS>BOND
     1    40    41    2
     2    40    39    1
     3    34    33    2
     4    37    35    1
     5    42    39    1
     6    42    43    1
     7    39    38    1
     8    33    32    1
     9    35    32    1
    10    35    36    1
    11    43    44   ar
    12    43    45   ar
    13    65    66    1
    14    32    31    1
    15    44    46   ar
    16    45    47   ar
    17    28    27    2
    18    46    47   ar
    19    31    27   am
    20    66    69    1
    21    66    67    1
    22    58    57    1
    23    58    59    2
    24    27    26    1
    25    69    70    1
    26    30    29    1
    27    57    60    1
    28    57    56    1
    29    60    61    1
    30    73    74    1
    31    67    68    2
    32    51    50    2
    33    29    26    1
    34    26    25    1
    35    24    23    1
    36    70    71   ar
    37    70    72   ar
    38    75    74    1
    39    75    76    2
    40    56    50   am
    41    61    62    1
    42    62    63    1
    43    50    49    1
    44    74    77    1
    45    25    21   am
    46    22    21    2
    47    23    20    1
    48    21    20    1
    49    64    63    1
    50    48    49    1
    51    77    78    1
    52    49    52    1
    53    20    19    1
    54    78    79   ar
    55    78    80   ar
    56    79    81   ar
    57    80    82   ar
    58    52    53    1
    59    19    11   am
    60    81    82   ar
    61    11    10    1
    62    11    12    2
    63     9    10    1
    64    53    55   ar
    65    53    54   ar
    66    10    13    1
    67    13    14    1
    68    15    14   ar
    69    15    17   ar
    70    14    16   ar
    71    17    18   ar
    72     6     5    1
    73     6     8    1
    74     7     5    1
    75    16    18   ar
    76     5     2    1
    77    91    93   ar
    78    91    89   ar
    79    93    92   ar
    80    89    88   ar
    81     2     1    1
    82     2     3    1
    83    92    90   ar
    84     3     4    2
    85    88    90   ar
    86    88    87    1
    87    84    83    1
    88    84    87    1
    89    84    85    1
    90    86    85    2
