@<TRIPOS>MOLECULE
tmp/3uuwC00.pdb
 112 103 0 0 0
SMALL
GASTEIGER

@<TRIPOS>ATOM
      1  N         20.1750  -21.4990   11.1970 N.3    13  ILE13      -0.1245
      2  CA        20.5590  -20.0850   11.3690 C.3    13  ILE13       0.1561
      3  C         21.9240  -19.7830   10.7550 C.2    13  ILE13       0.2260
      4  O         22.1070  -18.7800   10.0530 O.2    13  ILE13      -0.2867
      5  CB        20.5560  -19.6860   12.8670 C.3    13  ILE13       0.0252
      6  CG1       19.1730  -19.9410   13.4920 C.3    13  ILE13       0.0019
      7  CG2       20.9430  -18.2370   13.0180 C.3    13  ILE13       0.0019
      8  CD1       18.0390  -19.2060   12.7950 C.3    13  ILE13       0.0001
      9  N         24.7940  -16.0810   18.9440 N.3    92  ASP92      -0.1225
     10  CA        23.4240  -15.6170   18.7900 C.3    92  ASP92       0.1805
     11  C         22.7770  -15.4470   20.1580 C.2    92  ASP92       0.2597
     12  O         23.2180  -16.0380   21.1650 O.2    92  ASP92      -0.2718
     13  CB        22.6070  -16.5750   17.9470 C.3    92  ASP92       0.1424
     14  CG        22.8730  -16.4120   16.4570 C.2    92  ASP92       0.3668
     15  OD1       22.5830  -15.3210   15.8850 O.co2  92  ASP92      -0.2456
     16  OD2       23.3410  -17.3960   15.8560 O.co2  92  ASP92      -0.2456
     17  N         21.7520  -14.6080   20.2070 N.am   93  LYS93      -0.1979
     18  CA        21.0340  -14.3920   21.4630 C.3    93  LYS93       0.1596
     19  C         20.2740  -15.6250   21.9000 C.2    93  LYS93       0.2287
     20  O         20.0110  -16.5200   21.0870 O.2    93  LYS93      -0.2864
     21  CB        20.0910  -13.1660   21.4020 C.3    93  LYS93       0.0298
     22  CG        19.0980  -13.0560   20.2320 C.3    93  LYS93       0.0038
     23  CD        18.0320  -14.1320   20.2060 C.3    93  LYS93       0.0206
     24  CE        18.3300  -15.1700   19.1680 C.3    93  LYS93       0.1093
     25  NZ        17.3990  -16.3170   19.2790 N.3    93  LYS93      -0.1314
     26  N         24.5770  -11.5400   19.2460 N.3   119  GLY119     -0.1225
     27  CA        24.0490  -11.2000   17.9280 C.3   119  GLY119      0.1811
     28  C         22.7110  -10.5020   17.8730 C.2   119  GLY119      0.2280
     29  O         21.7430  -11.0630   17.2950 O.2   119  GLY119     -0.2866
     30  N         21.2220   -8.4380   15.9000 N.3   121  ASN121     -0.1225
     31  CA        21.3210   -7.8740   14.5620 C.3   121  ASN121      0.1785
     32  C         20.4830   -6.6300   14.3100 C.2   121  ASN121      0.2597
     33  O         20.8680   -5.7840   13.5080 O.2   121  ASN121     -0.2718
     34  CB        20.9950   -8.9260   13.4930 C.3   121  ASN121      0.1169
     35  CG        19.6190   -9.4650   13.6280 C.2   121  ASN121      0.2627
     36  OD1       19.3460  -10.2500   14.5350 O.2   121  ASN121     -0.2716
     37  ND2       18.7420   -9.1110   12.7030 N.am  121  ASN121     -0.0877
     38  N         19.3640   -6.4880   15.0070 N.am  122  ARG122     -0.1979
     39  CA        18.4960   -5.3420   14.7470 C.3   122  ARG122      0.1597
     40  C         19.1520   -4.0230   15.0500 C.2   122  ARG122      0.2287
     41  O         18.8000   -3.0230   14.4490 O.2   122  ARG122     -0.2864
     42  CB        17.1610   -5.4750   15.4670 C.3   122  ARG122      0.0334
     43  CG        16.2870   -6.4990   14.8290 C.3   122  ARG122      0.0492
     44  CD        15.2330   -7.0370   15.7590 C.3   122  ARG122      0.2205
     45  NE        14.3730   -7.9790   15.0400 N.pl3 122  ARG122     -0.0865
     46  CZ        14.7030   -9.2280   14.7210 C.cat 122  ARG122      0.5346
     47  NH1       15.8900   -9.7290   15.0700 N.pl3 122  ARG122      0.1354
     48  NH2       13.8430   -9.9900   14.0350 N.pl3 122  ARG122      0.1354
     49  N          6.2680   -7.9500   16.7710 N.3   145  LYS145     -0.1245
     50  CA         6.8380   -9.0380   15.9980 C.3   145  LYS145      0.1561
     51  C          5.8560  -10.1820   16.1030 C.2   145  LYS145      0.2260
     52  O          5.7630  -10.8470   17.1400 O.2   145  LYS145     -0.2867
     53  CB         8.2180   -9.4150   16.5210 C.3   145  LYS145      0.0271
     54  CG         8.9530  -10.4310   15.6740 C.3   145  LYS145      0.0035
     55  CD        10.3530  -10.6820   16.2200 C.3   145  LYS145      0.0206
     56  CE        11.1850  -11.5770   15.3060 C.3   145  LYS145      0.1093
     57  NZ        10.6370  -12.9450   15.1720 N.3   145  LYS145     -0.1314
     58  N         14.1570  -16.5290   23.6000 N.3   162  ASP162     -0.1239
     59  CA        14.6230  -16.8700   22.2530 C.3   162  ASP162      0.1674
     60  C         14.1650  -15.8830   21.1860 C.2   162  ASP162      0.2266
     61  O         14.9090  -15.6090   20.2330 O.2   162  ASP162     -0.2867
     62  CB        14.0700  -18.2490   21.8630 C.3   162  ASP162      0.1410
     63  CG        14.6530  -18.7710   20.5620 C.2   162  ASP162      0.3668
     64  OD1       15.9100  -18.8030   20.4420 O.co2 162  ASP162     -0.2456
     65  OD2       13.8530  -19.1830   19.6770 O.co2 162  ASP162     -0.2456
     66  N         14.2760  -10.0790   21.0300 N.3   166  HIS166     -0.1241
     67  CA        14.5850   -9.1280   19.9370 C.3   166  HIS166      0.1621
     68  C         13.7660   -7.8560   20.0550 C.2   166  HIS166      0.2264
     69  O         14.2550   -6.7470   19.8030 O.2   166  HIS166     -0.2867
     70  CB        14.3100   -9.7370   18.5680 C.3   166  HIS166      0.0745
     71  CG        15.2950  -10.7780   18.1730 C.ar  166  HIS166      0.0817
     72  ND1       16.6300  -10.4970   17.9860 N.ar  166  HIS166     -0.2268
     73  CD2       15.1400  -12.0950   17.9010 C.ar  166  HIS166      0.1154
     74  CE1       17.2630  -11.6060   17.6450 C.ar  166  HIS166      0.1986
     75  NE2       16.3780  -12.5890   17.5770 N.ar  166  HIS166     -0.2212
     76  N          3.3460  -13.0990    9.2460 N.3   219  LYS219     -0.1245
     77  CA         4.6170  -12.8670    9.8920 C.3   219  LYS219      0.1561
     78  C          4.9280  -11.4240    9.5530 C.2   219  LYS219      0.2260
     79  O          5.0290  -11.0530    8.3670 O.2   219  LYS219     -0.2867
     80  CB         5.6910  -13.8330    9.3870 C.3   219  LYS219      0.0271
     81  CG         7.0540  -13.6300   10.0150 C.3   219  LYS219      0.0035
     82  CD         8.0780  -14.5470    9.3690 C.3   219  LYS219      0.0206
     83  CE         9.5200  -14.2480    9.7860 C.3   219  LYS219      0.1093
     84  NZ         9.7390  -14.3800   11.2480 N.3   219  LYS219     -0.1314
     85  N         11.8330   -5.0200    8.4810 N.3   237  LEU237     -0.1245
     86  CA        13.2190   -4.5420    8.4120 C.3   237  LEU237      0.1561
     87  C         13.6670   -4.0210    7.0500 C.2   237  LEU237      0.2260
     88  O         14.8600   -3.7410    6.8700 O.2   237  LEU237     -0.2867
     89  CB        14.2010   -5.6340    8.8510 C.3   237  LEU237      0.0270
     90  CG        14.1430   -6.1150   10.2960 C.3   237  LEU237      0.0019
     91  CD1       12.9700   -7.0760   10.4180 C.3   237  LEU237      0.0001
     92  CD2       15.4400   -6.8030   10.7160 C.3   237  LEU237      0.0001
     93  N         18.7530   -6.9760    7.1050 N.3   263  LYS263     -0.1245
     94  CA        18.4250   -7.3270    8.4780 C.3   263  LYS263      0.1561
     95  C         19.4850   -6.9940    9.5160 C.2   263  LYS263      0.2260
     96  O         19.2110   -7.0990   10.7140 O.2   263  LYS263     -0.2867
     97  CB        18.0840   -8.8090    8.5850 C.3   263  LYS263      0.0271
     98  CG        16.9300   -9.2880    7.7310 C.3   263  LYS263      0.0035
     99  CD        16.8470  -10.7930    7.7350 C.3   263  LYS263      0.0206
    100  CE        15.9350  -11.3760    6.6610 C.3   263  LYS263      0.1093
    101  NZ        14.5480  -10.8350    6.7540 N.3   263  LYS263     -0.1314
    102  N         22.5560   -8.4460    9.6970 N.3   265  PHE265     -0.1241
    103  CA        23.5330   -9.5500    9.8730 C.3   265  PHE265      0.1605
    104  C         24.8710   -9.2270    9.2310 C.2   265  PHE265      0.2264
    105  O         25.9430   -9.5050    9.7950 O.2   265  PHE265     -0.2867
    106  CB        22.9900  -10.8930    9.3460 C.3   265  PHE265      0.0534
    107  CG        21.8940  -11.4560   10.1780 C.ar  265  PHE265     -0.0203
    108  CD1       22.1660  -12.0170   11.4200 C.ar  265  PHE265     -0.0042
    109  CD2       20.5860  -11.4030    9.7560 C.ar  265  PHE265     -0.0042
    110  CE1       21.1580  -12.4950   12.2030 C.ar  265  PHE265     -0.0003
    111  CE2       19.5750  -11.8800   10.5350 C.ar  265  PHE265     -0.0003
    112  CZ        19.8580  -12.4190   11.7640 C.ar  265  PHE265     -0.0000
@<TRIPOS>BOND
     1   100   101    1
     2   100    99    1
     3    88    87    2
     4    87    86    1
     5    93    94    1
     6    98    99    1
     7    98    97    1
     8    79    78    2
     9    86    85    1
    10    86    89    1
    11    94    97    1
    12    94    95    1
    13    89    90    1
    14   104   105    2
    15   104   103    1
    16    76    77    1
    17   106   103    1
    18   106   107    1
    19    82    83    1
    20    82    81    1
    21    80    77    1
    22    80    81    1
    23    95    96    2
    24    78    77    1
    25   102   103    1
    26   109   107   ar
    27   109   111   ar
    28    83    84    1
    29     4     3    2
    30   107   108   ar
    31    90    91    1
    32    90    92    1
    33   111   112   ar
    34     3     2    1
    35     1     2    1
    36     2     5    1
    37   108   110   ar
    38   112   110   ar
    39    37    35   am
    40     8     6    1
    41     5     7    1
    42     5     6    1
    43    34    35    1
    44    34    31    1
    45    33    32    2
    46    35    36    2
    47    48    46    1
    48    32    31    1
    49    32    38   am
    50    41    40    2
    51    31    30    1
    52    46    45    2
    53    46    47    1
    54    39    38    1
    55    39    40    1
    56    39    42    1
    57    43    42    1
    58    43    44    1
    59    45    44    1
    60    57    56    1
    61    56    55    1
    62    54    55    1
    63    54    53    1
    64    16    14   ar
    65    15    14   ar
    66    50    51    1
    67    50    53    1
    68    50    49    1
    69    51    52    2
    70    14    13    1
    71    29    28    2
    72    75    74   ar
    73    75    73   ar
    74    74    72   ar
    75    28    27    1
    76    73    71   ar
    77    27    26    1
    78    13    10    1
    79    72    71   ar
    80    71    70    1
    81    70    67    1
    82    10     9    1
    83    10    11    1
    84    24    25    1
    85    24    23    1
    86    65    63   ar
    87    69    68    2
    88    67    68    1
    89    67    66    1
    90    11    17   am
    91    11    12    2
    92    23    22    1
    93    17    18    1
    94    22    21    1
    95    61    60    2
    96    64    63   ar
    97    63    62    1
    98    20    19    2
    99    60    59    1
   100    21    18    1
   101    18    19    1
   102    62    59    1
   103    59    58    1
