@<TRIPOS>MOLECULE
tmp/3uuzB00.pdb
 188 187 0 0 0
SMALL
GASTEIGER

@<TRIPOS>ATOM
      1  N         -4.0910  -32.8590   14.5280 N.3    40  HIS40      -0.1241
      2  CA        -5.1950  -33.0520   13.5990 C.3    40  HIS40       0.1621
      3  C         -6.5140  -33.2760   14.3660 C.2    40  HIS40       0.2264
      4  O         -7.5870  -33.2730   13.7840 O.2    40  HIS40      -0.2867
      5  CB        -4.9120  -34.1640   12.5830 C.3    40  HIS40       0.0745
      6  CG        -5.1160  -35.5390   13.1210 C.ar   40  HIS40       0.0817
      7  ND1       -4.0890  -36.2820   13.6580 N.ar   40  HIS40      -0.2268
      8  CD2       -6.2260  -36.3170   13.1920 C.ar   40  HIS40       0.1154
      9  CE1       -4.5560  -37.4550   14.0520 C.ar   40  HIS40       0.1986
     10  NE2       -5.8470  -37.5070   13.7690 N.ar   40  HIS40      -0.2212
     11  N         -1.1020  -29.6030    8.2700 N.3    78  SER78      -0.1202
     12  CA        -2.2010  -30.5570    8.1330 C.3    78  SER78       0.2020
     13  C         -2.1960  -31.3080    6.7940 C.2    78  SER78       0.2619
     14  O         -2.9810  -32.2200    6.6090 O.2    78  SER78      -0.2717
     15  CB        -3.5470  -29.8580    8.2920 C.3    78  SER78       0.2103
     16  OG        -3.6800  -28.8270    7.3180 O.3    78  SER78      -0.2182
     17  N         -1.3510  -30.9070    5.8530 N.am   79  GLU79      -0.1965
     18  CA        -1.3050  -31.6130    4.5680 C.3    79  GLU79       0.1733
     19  C         -0.3290  -32.7590    4.6290 C.2    79  GLU79       0.2617
     20  O         -0.5740  -33.8140    4.0810 O.2    79  GLU79      -0.2715
     21  CB        -0.9370  -30.6560    3.4230 C.3    79  GLU79       0.0429
     22  CG        -2.0030  -29.6040    3.2140 C.3    79  GLU79       0.1163
     23  CD        -1.6380  -28.6020    2.1590 C.2    79  GLU79       0.3649
     24  OE1       -2.5650  -27.9760    1.6110 O.co2  79  GLU79      -0.2457
     25  OE2       -0.4320  -28.4430    1.8820 O.co2  79  GLU79      -0.2457
     26  N          0.7790  -32.5530    5.3300 N.am   80  THR80      -0.1937
     27  CA         1.7950  -33.5780    5.4120 C.3    80  THR80       0.2028
     28  C          1.7480  -34.2660    6.7620 C.2    80  THR80       0.2642
     29  O          2.4490  -35.2530    6.9580 O.2    80  THR80      -0.2714
     30  CB         3.1940  -32.9740    5.2730 C.3    80  THR80       0.1808
     31  OG1        3.4850  -32.1980    6.4430 O.3    80  THR80      -0.2208
     32  CG2        3.2880  -32.0800    4.0230 C.3    80  THR80       0.0379
     33  N          0.9440  -33.7250    7.6890 N.am   81  TYR81      -0.1973
     34  CA         0.8770  -34.2150    9.0810 C.3    81  TYR81       0.1639
     35  C          2.1800  -34.1100    9.8730 C.2    81  TYR81       0.2290
     36  O          2.2950  -34.6390   10.9730 O.2    81  TYR81      -0.2864
     37  CB         0.3600  -35.6340    9.1580 C.3    81  TYR81       0.0560
     38  CG        -1.1460  -35.7150    9.3220 C.ar   81  TYR81      -0.0198
     39  CD1       -1.9970  -34.9630    8.5130 C.ar   81  TYR81      -0.0009
     40  CD2       -1.7100  -36.5500   10.2650 C.ar   81  TYR81      -0.0009
     41  CE1       -3.3740  -35.0560    8.6360 C.ar   81  TYR81       0.0417
     42  CE2       -3.0820  -36.6540   10.3960 C.ar   81  TYR81       0.0417
     43  CZ        -3.9060  -35.9110    9.5840 C.ar   81  TYR81       0.1957
     44  OH        -5.2580  -36.0130    9.7210 O.3    81  TYR81      -0.2866
     45  N          3.0260  -41.6850    1.3090 N.3   154  PHE154     -0.1227
     46  CA         3.2030  -40.3130    1.7560 C.3   154  PHE154      0.1736
     47  C          4.6280  -40.0420    2.1620 C.2   154  PHE154      0.2595
     48  O          5.3270  -40.9230    2.6560 O.2   154  PHE154     -0.2718
     49  CB         2.3190  -40.0210    2.9630 C.3   154  PHE154      0.0547
     50  CG         0.8590  -39.9930    2.6520 C.ar  154  PHE154     -0.0202
     51  CD1        0.0450  -41.0400    3.0280 C.ar  154  PHE154     -0.0042
     52  CD2        0.2980  -38.9120    1.9910 C.ar  154  PHE154     -0.0042
     53  CE1       -1.3240  -41.0110    2.7530 C.ar  154  PHE154     -0.0003
     54  CE2       -1.0660  -38.8770    1.7100 C.ar  154  PHE154     -0.0003
     55  CZ        -1.8730  -39.9350    2.0950 C.ar  154  PHE154     -0.0000
     56  N          5.0500  -38.8060    1.9550 N.am  155  ILE155     -0.1980
     57  CA         6.2810  -38.3190    2.5380 C.3   155  ILE155      0.1595
     58  C          6.1630  -38.4000    4.0510 C.2   155  ILE155      0.2287
     59  O          5.1880  -37.9360    4.6470 O.2   155  ILE155     -0.2864
     60  CB         6.5390  -36.8800    2.1130 C.3   155  ILE155      0.0276
     61  CG1        6.7980  -36.8400    0.6130 C.3   155  ILE155      0.0022
     62  CG2        7.7430  -36.3000    2.8640 C.3   155  ILE155      0.0022
     63  CD1        8.1960  -37.2540    0.2440 C.3   155  ILE155      0.0001
     64  N          7.9240  -38.5370   12.6140 N.3   160  MET160     -0.1245
     65  CA         6.9870  -39.6590   12.6260 C.3   160  MET160      0.1570
     66  C          7.7360  -40.9500   12.8240 C.2   160  MET160      0.2261
     67  O          8.9230  -41.0530   12.5040 O.2   160  MET160     -0.2867
     68  CB         6.2330  -39.7440   11.3060 C.3   160  MET160      0.0387
     69  CG         5.6670  -38.4360   10.8550 C.3   160  MET160      0.0595
     70  SD         4.9190  -38.6080    9.2390 S.3   160  MET160     -0.1393
     71  CE         4.3650  -36.9230    8.9610 C.3   160  MET160      0.0692
     72  N         -3.7250  -52.7280   14.2030 N.3   171  ASP171     -0.1225
     73  CA        -3.3950  -51.3370   13.9020 C.3   171  ASP171      0.1805
     74  C         -4.2890  -50.4230   14.7290 C.2   171  ASP171      0.2598
     75  O         -5.2810  -50.8800   15.2890 O.2   171  ASP171     -0.2718
     76  CB        -3.6230  -51.0950   12.4070 C.3   171  ASP171      0.1424
     77  CG        -2.9490  -49.8190   11.8830 C.2   171  ASP171      0.3668
     78  OD1       -2.2550  -49.1150   12.6430 O.co2 171  ASP171     -0.2456
     79  OD2       -3.1150  -49.5220   10.6850 O.co2 171  ASP171     -0.2456
     80  N         -3.9100  -49.1540   14.8510 N.am  172  ALA172     -0.1966
     81  CA        -4.8280  -48.1370   15.3590 C.3   172  ALA172      0.1728
     82  C         -5.6720  -47.7060   14.1850 C.2   172  ALA172      0.2616
     83  O         -5.3930  -48.0750   13.0360 O.2   172  ALA172     -0.2715
     84  CB        -4.0560  -46.9330   15.9510 C.3   172  ALA172      0.0334
     85  N         -6.7210  -46.9400   14.4500 N.am  173  CYS173     -0.1954
     86  CA        -7.6440  -46.5640   13.3990 C.3   173  CYS173      0.1843
     87  C         -8.2430  -45.2030   13.7310 C.2   173  CYS173      0.2625
     88  O         -7.8920  -44.6000   14.7430 O.2   173  CYS173     -0.2714
     89  CB        -8.7410  -47.6350   13.2710 C.3   173  CYS173      0.0997
     90  SG        -9.5980  -47.7100   11.6510 S.3   173  CYS173     -0.0797
     91  N         -9.1470  -44.7500   12.8720 N.am  174  GLN174     -0.1977
     92  CA        -9.8860  -43.5220   13.0700 C.3   174  GLN174      0.1601
     93  C        -10.5370  -43.6160   14.4320 C.2   174  GLN174      0.2287
     94  O        -11.0800  -44.6580   14.7770 O.2   174  GLN174     -0.2864
     95  CB       -10.9750  -43.4240   12.0000 C.3   174  GLN174      0.0394
     96  CG       -11.8730  -42.1970   12.0850 C.3   174  GLN174      0.0908
     97  CD       -12.8970  -42.1920   10.9500 C.2   174  GLN174      0.2608
     98  OE1      -12.7860  -42.9730   10.0000 O.2   174  GLN174     -0.2717
     99  NE2      -13.9020  -41.3230   11.0510 N.am  174  GLN174     -0.0878
    100  N         -6.9910  -41.5400   16.9680 N.3   177  SER177     -0.1217
    101  CA        -6.1980  -40.3220   16.7470 C.3   177  SER177      0.1889
    102  C         -5.9470  -39.5880   18.0310 C.2   177  SER177      0.2288
    103  O         -6.8860  -39.3510   18.7910 O.2   177  SER177     -0.2866
    104  CB        -6.9690  -39.3580   15.8420 C.3   177  SER177      0.2089
    105  OG        -7.0330  -39.8130   14.5130 O.3   177  SER177     -0.2183
    106  N         -1.1350  -41.2630   18.2400 N.3   191  VAL191     -0.1231
    107  CA        -1.8020  -41.8290   17.0590 C.3   191  VAL191      0.1692
    108  C         -2.0070  -40.7140   16.0600 C.2   191  VAL191      0.2593
    109  O         -2.7010  -39.7350   16.3360 O.2   191  VAL191     -0.2718
    110  CB        -3.1610  -42.4520   17.3950 C.3   191  VAL191      0.0266
    111  CG1       -3.8550  -42.9910   16.1030 C.3   191  VAL191      0.0020
    112  CG2       -2.9800  -43.5830   18.4290 C.3   191  VAL191      0.0020
    113  N         -1.4040  -40.8450   14.8880 N.am  192  SER192     -0.1938
    114  CA        -1.4060  -39.7200   13.9580 C.3   192  SER192      0.2055
    115  C         -2.1930  -40.0100   12.6930 C.2   192  SER192      0.2643
    116  O         -3.1910  -39.3510   12.4020 O.2   192  SER192     -0.2714
    117  CB         0.0350  -39.2920   13.6320 C.3   192  SER192      0.2130
    118  OG         0.0410  -38.1480   12.7850 O.3   192  SER192     -0.2179
    119  N         -1.7560  -41.0120   11.9410 N.am  193  TRP193     -0.1959
    120  CA        -2.3970  -41.2950   10.6720 C.3   193  TRP193      0.1771
    121  C         -2.0720  -42.6950   10.1550 C.2   193  TRP193      0.2620
    122  O         -1.1740  -43.3770   10.6490 O.2   193  TRP193     -0.2715
    123  CB        -1.9750  -40.2440    9.6310 C.3   193  TRP193      0.0590
    124  CG        -0.5170  -40.2910    9.2320 C.ar  193  TRP193      0.0006
    125  CD1        0.5260  -39.6440    9.8360 C.ar  193  TRP193      0.0946
    126  CD2        0.0440  -41.0010    8.1160 C.ar  193  TRP193      0.0152
    127  NE1        1.6970  -39.9060    9.1630 N.ar  193  TRP193     -0.2442
    128  CE2        1.4250  -40.7300    8.1010 C.ar  193  TRP193      0.0810
    129  CE3       -0.4940  -41.8250    7.1240 C.ar  193  TRP193      0.0012
    130  CZ2        2.2750  -41.2710    7.1530 C.ar  193  TRP193      0.0191
    131  CZ3        0.3590  -42.3540    6.1680 C.ar  193  TRP193      0.0001
    132  CH2        1.7250  -42.0780    6.1950 C.ar  193  TRP193      0.0015
    133  N         -2.8080  -43.1120    9.1440 N.am  194  GLY194     -0.1940
    134  CA        -2.5690  -44.3990    8.5230 C.3   194  GLY194      0.2014
    135  C         -3.3520  -44.4390    7.2260 C.2   194  GLY194      0.2640
    136  O         -4.2860  -43.6700    7.0620 O.2   194  GLY194     -0.2714
    137  N         -2.9620  -45.3190    6.3090 N.am  195  SER195     -0.1935
    138  CA        -3.7450  -45.5730    5.1060 C.3   195  SER195      0.2055
    139  C         -4.6730  -46.7430    5.3780 C.2   195  SER195      0.2644
    140  O         -4.2250  -47.8820    5.5010 O.2   195  SER195     -0.2714
    141  CB        -2.8300  -45.8710    3.9230 C.3   195  SER195      0.2130
    142  OG        -2.0350  -44.7300    3.6540 O.3   195  SER195     -0.2179
    143  N         -5.9680  -46.4500    5.4720 N.am  196  GLY196     -0.1939
    144  CA        -6.9320  -47.3930    6.0100 C.3   196  GLY196      0.2014
    145  C         -6.4440  -47.8230    7.3780 C.2   196  GLY196      0.2639
    146  O         -5.7050  -47.0930    8.0290 O.2   196  GLY196     -0.2714
    147  N         -6.8440  -49.0030    7.8250 N.am  197  CYS197     -0.1967
    148  CA        -6.4000  -49.5180    9.1160 C.3   197  CYS197      0.1712
    149  C         -6.1340  -51.0140    9.0310 C.2   197  CYS197      0.2296
    150  O         -6.9490  -51.7510    8.4820 O.2   197  CYS197     -0.2864
    151  CB        -7.4650  -49.2650   10.1920 C.3   197  CYS197      0.0983
    152  SG        -8.0650  -47.5500   10.3180 S.3   197  CYS197     -0.0798
    153  N          0.4890  -51.4190    5.3280 N.3   202  LYS202     -0.1245
    154  CA         0.0930  -50.0510    5.6450 C.3   202  LYS202      0.1561
    155  C          0.0430  -49.9030    7.1510 C.2   202  LYS202      0.2260
    156  O         -1.0240  -49.8920    7.7480 O.2   202  LYS202     -0.2867
    157  CB        -1.2470  -49.7020    4.9960 C.3   202  LYS202      0.0271
    158  CG        -1.1970  -49.7300    3.4710 C.3   202  LYS202      0.0035
    159  CD        -2.5660  -49.5270    2.8740 C.3   202  LYS202      0.0206
    160  CE        -2.4800  -49.3270    1.3750 C.3   202  LYS202      0.1093
    161  NZ        -1.6160  -50.3660    0.7380 N.3   202  LYS202     -0.1314
    162  N          0.5790  -48.2770   11.0020 N.3   204  GLY204     -0.1210
    163  CA         0.1910  -47.0180   11.5910 C.3   204  GLY204      0.1956
    164  C          1.3550  -46.0680   11.7390 C.2   204  GLY204      0.2612
    165  O          2.5000  -46.4890   11.9880 O.2   204  GLY204     -0.2717
    166  N          1.0550  -44.7790   11.5800 N.am  205  PHE205     -0.1962
    167  CA         2.0350  -43.7210   11.7970 C.3   205  PHE205      0.1771
    168  C          1.6870  -42.8760   13.0050 C.2   205  PHE205      0.2619
    169  O          0.5130  -42.6450   13.3180 O.2   205  PHE205     -0.2715
    170  CB         2.1890  -42.8630   10.5480 C.3   205  PHE205      0.0574
    171  CG         3.0170  -43.5150    9.4930 C.ar  205  PHE205     -0.0200
    172  CD1        2.4480  -44.4330    8.6270 C.ar  205  PHE205     -0.0042
    173  CD2        4.3730  -43.2450    9.3900 C.ar  205  PHE205     -0.0042
    174  CE1        3.2070  -45.0500    7.6610 C.ar  205  PHE205     -0.0003
    175  CE2        5.1370  -43.8590    8.4130 C.ar  205  PHE205     -0.0003
    176  CZ         4.5570  -44.7700    7.5620 C.ar  205  PHE205     -0.0000
    177  N          2.7300  -42.4250   13.6790 N.am  206  TYR206     -0.1974
    178  CA         2.6170  -41.8400   14.9980 C.3   206  TYR206      0.1639
    179  C          3.5520  -40.6670   15.0860 C.2   206  TYR206      0.2290
    180  O          4.6750  -40.7060   14.5680 O.2   206  TYR206     -0.2864
    181  CB         2.9930  -42.8840   16.0500 C.3   206  TYR206      0.0560
    182  CG         2.0910  -44.0990   15.9760 C.ar  206  TYR206     -0.0198
    183  CD1        2.4240  -45.1990   15.1810 C.ar  206  TYR206     -0.0009
    184  CD2        0.8750  -44.1130   16.6430 C.ar  206  TYR206     -0.0009
    185  CE1        1.5850  -46.3000   15.0910 C.ar  206  TYR206      0.0417
    186  CE2        0.0260  -45.2060   16.5530 C.ar  206  TYR206      0.0417
    187  CZ         0.3880  -46.2920   15.7880 C.ar  206  TYR206      0.1957
    188  OH        -0.4650  -47.3520   15.7100 O.3   206  TYR206     -0.2866
@<TRIPOS>BOND
     1    63    61    1
     2    61    60    1
     3   161   160    1
     4    45    46    1
     5   160   159    1
     6    24    23   ar
     7    54    52   ar
     8    54    55   ar
     9    46    47    1
    10    46    49    1
    11    25    23   ar
    12    56    47   am
    13    56    57    1
    14    52    50   ar
    15    55    53   ar
    16    60    57    1
    17    60    62    1
    18    23    22    1
    19    47    48    2
    20    57    58    1
    21    50    49    1
    22    50    51   ar
    23    53    51   ar
    24   159   158    1
    25    22    21    1
    26    21    18    1
    27   158   157    1
    28   142   141    1
    29   141   138    1
    30    32    30    1
    31    58    59    2
    32    20    19    2
    33    18    19    1
    34    18    17    1
    35    19    26   am
    36   157   154    1
    37   138   139    1
    38   138   137    1
    39    30    27    1
    40    30    31    1
    41   153   154    1
    42    26    27    1
    43   139   143   am
    44   139   140    2
    45    27    28    1
    46   143   144    1
    47   154   155    1
    48    17    13   am
    49   144   145    1
    50   131   132   ar
    51   131   129   ar
    52   132   130   ar
    53   137   135   am
    54    14    13    2
    55    28    29    2
    56    28    33   am
    57    13    12    1
    58   136   135    2
    59   129   126   ar
    60   155   156    2
    61   130   128   ar
    62   135   134    1
    63    16    15    1
    64   145   147   am
    65   145   146    2
    66   176   174   ar
    67   176   175   ar
    68   174   172   ar
    69    33    34    1
    70   147   148    1
    71   128   126   ar
    72   128   127   ar
    73   126   124   ar
    74    12    11    1
    75    12    15    1
    76   175   173   ar
    77   150   149    2
    78    39    41   ar
    79    39    38   ar
    80   134   133    1
    81   172   171   ar
    82    41    43   ar
    83    71    70    1
    84   149   148    1
    85    34    37    1
    86    34    35    1
    87   148   151    1
    88   133   121   am
    89    37    38    1
    90   127   125   ar
    91   124   123    1
    92   124   125   ar
    93    70    69    1
    94    38    40   ar
    95   173   171   ar
    96   171   170    1
    97    43    44    1
    98    43    42   ar
    99   123   120    1
   100    35    36    2
   101    98    97    2
   102   121   122    2
   103   121   120    1
   104   151   152    1
   105    40    42   ar
   106   152    90    1
   107   170   167    1
   108   120   119    1
   109    79    77   ar
   110    69    68    1
   111    97    99   am
   112    97    96    1
   113   162   163    1
   114    68    65    1
   115   166   164   am
   116   166   167    1
   117   163   164    1
   118    90    89    1
   119   164   165    2
   120   167   168    1
   121    77    76    1
   122    77    78   ar
   123   119   115   am
   124    95    96    1
   125    95    92    1
   126   116   115    2
   127    76    73    1
   128    67    66    2
   129     5     6    1
   130     5     2    1
   131    64    65    1
   132    65    66    1
   133   115   114    1
   134   118   117    1
   135    91    92    1
   136    91    87   am
   137   168   169    2
   138   168   177   am
   139    83    82    2
   140    92    93    1
   141     6     8   ar
   142     6     7   ar
   143     8    10   ar
   144    89    86    1
   145    86    87    1
   146    86    85    1
   147     2     3    1
   148     2     1    1
   149   117   114    1
   150     7     9   ar
   151   177   178    1
   152    87    88    2
   153    10     9   ar
   154     4     3    2
   155    73    72    1
   156    73    74    1
   157   114   113    1
   158    82    85   am
   159    82    81    1
   160    93    94    2
   161   105   104    1
   162   180   179    2
   163    74    80   am
   164    74    75    2
   165    80    81    1
   166   113   108   am
   167   178   179    1
   168   178   181    1
   169   185   183   ar
   170   185   187   ar
   171   183   182   ar
   172    81    84    1
   173   188   187    1
   174   187   186   ar
   175   104   101    1
   176   182   181    1
   177   182   184   ar
   178   108   109    2
   179   108   107    1
   180   111   110    1
   181   186   184   ar
   182   101   100    1
   183   101   102    1
   184   107   110    1
   185   107   106    1
   186   110   112    1
   187   102   103    2
