@<TRIPOS>MOLECULE
tmp/3uv2A00.pdb
 94 93 0 0 0
SMALL
GASTEIGER

@<TRIPOS>ATOM
      1  N         10.9090    1.9400    0.3540 N.3    33  PRO33      -0.2102
      2  CA         9.6700    1.5880    1.0860 C.3    33  PRO33       0.1504
      3  C          8.8860    2.7130    1.6660 C.2    33  PRO33       0.2575
      4  O          7.7900    2.4520    2.2060 O.2    33  PRO33      -0.2718
      5  CB        10.1780    0.7120    2.2580 C.3    33  PRO33       0.0282
      6  CG        11.6150    0.4830    2.0500 C.3    33  PRO33       0.0208
      7  CD        12.1150    1.5840    1.1320 C.3    33  PRO33       0.0893
      8  N          9.4720    3.9170    1.6490 N.am   34  PHE34      -0.1977
      9  CA         8.9490    5.0800    2.4240 C.3    34  PHE34       0.1639
     10  C          8.4500    6.2180    1.5220 C.2    34  PHE34       0.2290
     11  O          8.0100    7.2690    2.0200 O.2    34  PHE34      -0.2864
     12  CB        10.0500    5.6450    3.3110 C.3    34  PHE34       0.0560
     13  CG        10.7570    4.5960    4.1290 C.ar   34  PHE34      -0.0200
     14  CD1       10.0150    3.7480    4.9640 C.ar   34  PHE34      -0.0042
     15  CD2       12.1380    4.4050    4.0340 C.ar   34  PHE34      -0.0042
     16  CE1       10.6480    2.7380    5.6780 C.ar   34  PHE34      -0.0003
     17  CE2       12.7590    3.4110    4.7780 C.ar   34  PHE34      -0.0003
     18  CZ        12.0070    2.5720    5.5960 C.ar   34  PHE34      -0.0000
     19  N          2.2310    3.2520    3.1280 N.3    38  VAL38      -0.1245
     20  CA         2.2330    1.8370    3.1140 C.3    38  VAL38       0.1561
     21  C          0.9040    1.3440    2.4850 C.2    38  VAL38       0.2260
     22  O         -0.2160    1.8380    2.7950 O.2    38  VAL38      -0.2867
     23  CB         2.3750    1.2790    4.5360 C.3    38  VAL38       0.0252
     24  CG1        2.0200   -0.2070    4.5740 C.3    38  VAL38       0.0019
     25  CG2        3.7810    1.5280    5.0950 C.3    38  VAL38       0.0019
     26  N         -0.2270   -4.9480    0.8790 N.3    42  ASP42      -0.1225
     27  CA         1.1390   -5.4740    1.1320 C.3    42  ASP42       0.1805
     28  C          1.4190   -5.7510    2.6320 C.2    42  ASP42       0.2598
     29  O          2.4070   -6.4100    2.9710 O.2    42  ASP42      -0.2718
     30  CB         2.1930   -4.4280    0.7370 C.3    42  ASP42       0.1424
     31  CG         2.2630   -4.1450   -0.7730 C.2    42  ASP42       0.3668
     32  OD1        1.8210   -4.9930   -1.5860 O.co2  42  ASP42      -0.2456
     33  OD2        2.7960   -3.0540   -1.1220 O.co2  42  ASP42      -0.2456
     34  N          0.6320   -5.1510    3.5320 N.am   43  ALA43      -0.1966
     35  CA         0.9470   -5.1480    4.9750 C.3    43  ALA43       0.1713
     36  C         -0.2330   -5.4610    5.8650 C.2    43  ALA43       0.2458
     37  O         -0.9390   -4.5250    6.3440 O.2    43  ALA43      -0.2730
     38  CB         1.5510   -3.7870    5.3670 C.3    43  ALA43       0.0333
     39  N         -0.4920   -6.7750    6.0940 N.am   44  PRO44      -0.2727
     40  CA        -1.5910   -7.2080    6.9550 C.3    44  PRO44       0.1402
     41  C         -1.6210   -6.4840    8.3200 C.2    44  PRO44       0.2269
     42  O         -0.5950   -6.4250    9.0100 O.2    44  PRO44      -0.2865
     43  CB        -1.3160   -8.7170    7.1480 C.3    44  PRO44       0.0296
     44  CG        -0.5580   -9.1200    5.9420 C.3    44  PRO44       0.0237
     45  CD         0.2810   -7.9280    5.5740 C.3    44  PRO44       0.0939
     46  N         -1.5650   -3.5390    9.1970 N.3    46  TYR46      -0.1241
     47  CA        -0.7040   -2.3650    9.3700 C.3    46  TYR46       0.1605
     48  C         -1.4180   -1.1970   10.0090 C.2    46  TYR46       0.2264
     49  O         -0.9710   -0.6670   10.9760 O.2    46  TYR46      -0.2867
     50  CB        -0.1080   -1.9000    8.0430 C.3    46  TYR46       0.0534
     51  CG         1.0090   -0.8770    8.2370 C.ar   46  TYR46      -0.0201
     52  CD1        2.3360   -1.3000    8.5210 C.ar   46  TYR46      -0.0009
     53  CD2        0.7430    0.5180    8.2210 C.ar   46  TYR46      -0.0009
     54  CE1        3.3340   -0.3280    8.7020 C.ar   46  TYR46       0.0417
     55  CE2        1.7420    1.4690    8.3890 C.ar   46  TYR46       0.0417
     56  CZ         3.0250    1.0320    8.6820 C.ar   46  TYR46       0.1957
     57  OH         3.9880    2.0070    8.8730 O.3    46  TYR46      -0.2866
     58  N          8.3560    1.5620   10.8250 N.3    85  CYS85      -0.1235
     59  CA         8.9040    0.4780   10.0500 C.3    85  CYS85       0.1677
     60  C          9.5930   -0.5990   10.9500 C.2    85  CYS85       0.2270
     61  O          9.3620   -1.7900   10.8260 O.2    85  CYS85      -0.2867
     62  CB         9.8720    1.0810    9.0600 C.3    85  CYS85       0.0956
     63  SG        10.6870   -0.1610    8.0550 S.3    85  CYS85      -0.0801
     64  N          6.8300   -2.5200   13.0060 N.3    88  TYR88      -0.1227
     65  CA         5.9630   -3.4730   12.3010 C.3    88  TYR88       0.1736
     66  C          6.7450   -4.6300   11.7010 C.2    88  TYR88       0.2595
     67  O          6.2600   -5.7520   11.6220 O.2    88  TYR88      -0.2718
     68  CB         5.2210   -2.7060   11.1910 C.3    88  TYR88       0.0548
     69  CG         4.3290   -3.5870   10.3940 C.ar   88  TYR88      -0.0200
     70  CD1        3.0480   -3.9150   10.8610 C.ar   88  TYR88      -0.0009
     71  CD2        4.7430   -4.1150    9.1790 C.ar   88  TYR88      -0.0009
     72  CE1        2.2170   -4.7240   10.1110 C.ar   88  TYR88       0.0417
     73  CE2        3.9080   -4.9580    8.4350 C.ar   88  TYR88       0.0417
     74  CZ         2.6540   -5.2480    8.9170 C.ar   88  TYR88       0.1957
     75  OH         1.8580   -6.0930    8.1820 O.3    88  TYR88      -0.2866
     76  N          7.9420   -4.3640   11.2060 N.am   89  ASN89      -0.1974
     77  CA         8.7220   -5.3700   10.5010 C.3    89  ASN89       0.1688
     78  C          9.7730   -6.0700   11.3810 C.2    89  ASN89       0.2292
     79  O         10.3840   -5.4090   12.2710 O.2    89  ASN89      -0.2864
     80  CB         9.4330   -4.7220    9.3080 C.3    89  ASN89       0.1181
     81  CG         8.4520   -4.1460    8.3000 C.2    89  ASN89       0.2629
     82  OD1        7.8310   -4.8890    7.5100 O.2    89  ASN89      -0.2716
     83  ND2        8.2700   -2.8440    8.3180 N.am   89  ASN89      -0.0877
     84  N         12.8690   -4.2500    4.8370 N.3    95  PHE95      -0.1241
     85  CA        12.2290   -3.0010    5.2690 C.3    95  PHE95       0.1605
     86  C         12.9350   -2.3750    6.4790 C.2    95  PHE95       0.2264
     87  O         13.2360   -1.1750    6.5020 O.2    95  PHE95      -0.2867
     88  CB        10.7420   -3.2570    5.5920 C.3    95  PHE95       0.0534
     89  CG         9.9170   -3.6970    4.4260 C.ar   95  PHE95      -0.0203
     90  CD1        9.5730   -2.8140    3.4150 C.ar   95  PHE95      -0.0042
     91  CD2        9.4450   -5.0270    4.3410 C.ar   95  PHE95      -0.0042
     92  CE1        8.8420   -3.2390    2.2980 C.ar   95  PHE95      -0.0003
     93  CE2        8.7210   -5.4430    3.2630 C.ar   95  PHE95      -0.0003
     94  CZ         8.4110   -4.5680    2.2470 C.ar   95  PHE95      -0.0000
@<TRIPOS>BOND
     1    32    31   ar
     2    33    31   ar
     3    31    30    1
     4     1     2    1
     5     1     7    1
     6    30    27    1
     7    26    27    1
     8     2     3    1
     9     2     5    1
    10     7     6    1
    11    27    28    1
    12    10    11    2
    13    10     9    1
    14     8     3   am
    15     8     9    1
    16     3     4    2
    17     6     5    1
    18    94    92   ar
    19    94    93   ar
    20    92    90   ar
    21     9    12    1
    22    21    22    2
    23    21    20    1
    24    28    29    2
    25    28    34   am
    26    20    19    1
    27    20    23    1
    28    93    91   ar
    29    12    13    1
    30    90    89   ar
    31    34    35    1
    32    15    13   ar
    33    15    17   ar
    34    13    14   ar
    35    91    89   ar
    36    89    88    1
    37    23    24    1
    38    23    25    1
    39    17    18   ar
    40    84    85    1
    41    14    16   ar
    42    35    38    1
    43    35    36    1
    44    85    88    1
    45    85    86    1
    46    45    44    1
    47    45    39    1
    48    18    16   ar
    49    36    39   am
    50    36    37    2
    51    44    43    1
    52    39    40    1
    53    86    87    2
    54    40    43    1
    55    40    41    1
    56    82    81    2
    57    50    51    1
    58    50    47    1
    59    63    62    1
    60    75    74    1
    61    53    51   ar
    62    53    55   ar
    63    51    52   ar
    64    81    83   am
    65    81    80    1
    66    41    42    2
    67    55    56   ar
    68    73    74   ar
    69    73    71   ar
    70    52    54   ar
    71    56    54   ar
    72    56    57    1
    73    74    72   ar
    74    62    59    1
    75    71    69   ar
    76    46    47    1
    77    80    77    1
    78    47    48    1
    79    48    49    2
    80    59    58    1
    81    59    60    1
    82    72    70   ar
    83    69    70   ar
    84    69    68    1
    85    77    76    1
    86    77    78    1
    87    61    60    2
    88    68    65    1
    89    76    66   am
    90    78    79    2
    91    67    66    2
    92    66    65    1
    93    65    64    1
