@<TRIPOS>MOLECULE
tmp/3uvcA00.pdb
 134 134 0 0 0
SMALL
GASTEIGER

@<TRIPOS>ATOM
      1  N         22.1700   -6.1610   10.9710 N.3    74  GLY74      -0.1210
      2  CA        21.1640   -6.2300    9.9010 C.3    74  GLY74       0.1956
      3  C         19.9060   -6.9660   10.3110 C.2    74  GLY74       0.2612
      4  O         19.1740   -6.5130   11.1790 O.2    74  GLY74      -0.2717
      5  N         19.6690   -8.1250    9.7220 N.am   75  ILE75      -0.1965
      6  CA        18.5260   -8.9550   10.1180 C.3    75  ILE75       0.1727
      7  C         18.7860   -9.5400   11.5130 C.2    75  ILE75       0.2616
      8  O         19.7900  -10.2170   11.7200 O.2    75  ILE75      -0.2715
      9  CB        18.3020  -10.1360    9.1680 C.3    75  ILE75       0.0290
     10  CG1       18.1730   -9.6800    7.7100 C.3    75  ILE75       0.0022
     11  CG2       17.0250  -10.8670    9.5770 C.3    75  ILE75       0.0023
     12  CD1       18.3950  -10.7970    6.7040 C.3    75  ILE75       0.0001
     13  N         17.9200   -9.2430   12.4830 N.am   76  LEU76      -0.1963
     14  CA        18.0770   -9.8110   13.8140 C.3    76  LEU76       0.1728
     15  C         17.1790  -11.0380   14.0130 C.2    76  LEU76       0.2616
     16  O         17.5260  -11.9720   14.7560 O.2    76  LEU76      -0.2715
     17  CB        17.7160   -8.7670   14.8430 C.3    76  LEU76       0.0311
     18  CG        18.4550   -7.4330   14.6890 C.3    76  LEU76       0.0022
     19  CD1       17.8810   -6.4110   15.6610 C.3    76  LEU76       0.0001
     20  CD2       19.9720   -7.5820   14.8280 C.3    76  LEU76       0.0001
     21  N         16.0050  -11.0140   13.3780 N.am   77  ALA77      -0.1963
     22  CA        14.9850  -12.0180   13.5880 C.3    77  ALA77       0.1728
     23  C         13.9580  -11.8380   12.4920 C.2    77  ALA77       0.2616
     24  O         13.9290  -10.8030   11.8260 O.2    77  ALA77      -0.2715
     25  CB        14.3210  -11.8170   14.9530 C.3    77  ALA77       0.0334
     26  N         13.1610  -12.8730   12.2720 N.am   78  HIS78      -0.1959
     27  CA        11.9720  -12.7290   11.4230 C.3    78  HIS78       0.1787
     28  C         10.9370  -13.7170   11.9250 C.2    78  HIS78       0.2620
     29  O         11.2890  -14.7000   12.5780 O.2    78  HIS78      -0.2715
     30  CB        12.2950  -12.9570    9.9350 C.3    78  HIS78       0.0785
     31  CG        12.4140  -14.3970    9.5600 C.ar   78  HIS78       0.0821
     32  ND1       11.3670  -15.0710    8.9630 N.ar   78  HIS78      -0.2267
     33  CD2       13.4120  -15.2920    9.7100 C.ar   78  HIS78       0.1154
     34  CE1       11.7180  -16.3330    8.7830 C.ar   78  HIS78       0.1986
     35  NE2       12.9600  -16.4890    9.2240 N.ar   78  HIS78      -0.2212
     36  N          9.6690  -13.5010   11.5990 N.am   79  ALA79      -0.1977
     37  CA         8.6230  -14.4030   12.0840 C.3    79  ALA79       0.1597
     38  C          7.5400  -14.4830   11.0340 C.2    79  ALA79       0.2287
     39  O          7.2850  -13.5280   10.3050 O.2    79  ALA79      -0.2864
     40  CB         8.0320  -13.9250   13.4480 C.3    79  ALA79       0.0319
     41  N         13.2800   -7.5890   23.8150 N.3   109  LEU109     -0.1231
     42  CA        12.7290   -6.5340   22.9510 C.3   109  LEU109      0.1693
     43  C         12.5570   -7.0240   21.5090 C.2   109  LEU109      0.2592
     44  O         11.5460   -6.7320   20.8680 O.2   109  LEU109     -0.2718
     45  CB        13.6180   -5.2870   22.9930 C.3   109  LEU109      0.0284
     46  CG        13.6970   -4.5930   24.3570 C.3   109  LEU109      0.0019
     47  CD1       14.7970   -3.5380   24.2890 C.3   109  LEU109      0.0001
     48  CD2       12.3360   -3.9920   24.7540 C.3   109  LEU109      0.0001
     49  N         13.5240   -7.8030   21.0140 N.am  110  THR110     -0.1953
     50  CA        13.4360   -8.3390   19.6710 C.3   110  THR110      0.1897
     51  C         12.2410   -9.3110   19.5960 C.2   110  THR110      0.2313
     52  O         11.4660   -9.2820   18.6430 O.2   110  THR110     -0.2863
     53  CB        14.7360   -9.0650   19.3180 C.3   110  THR110      0.1794
     54  OG1       15.8310   -8.1540   19.4350 O.3   110  THR110     -0.2208
     55  CG2       14.7020   -9.5820   17.8900 C.3   110  THR110      0.0378
     56  N          8.6710   -7.7330   19.3230 N.3   113  HIS113     -0.1226
     57  CA         8.4060   -7.3480   17.9430 C.3   113  HIS113      0.1752
     58  C          8.1250   -8.5660   17.0510 C.2   113  HIS113      0.2595
     59  O          7.1130   -8.5860   16.3190 O.2   113  HIS113     -0.2718
     60  CB         9.5780   -6.5260   17.4070 C.3   113  HIS113      0.0759
     61  CG         9.3740   -6.0360   16.0080 C.ar  113  HIS113      0.0818
     62  ND1        9.0550   -4.7220   15.7230 N.ar  113  HIS113     -0.2268
     63  CD2        9.4810   -6.6650   14.8120 C.ar  113  HIS113      0.1154
     64  CE1        8.9590   -4.5670   14.4090 C.ar  113  HIS113      0.1986
     65  NE2        9.2070   -5.7340   13.8340 N.ar  113  HIS113     -0.2212
     66  N          8.9990   -9.5700   17.1150 N.am  114  ALA114     -0.1980
     67  CA         8.8020  -10.7800   16.3140 C.3   114  ALA114      0.1597
     68  C          7.4620  -11.4590   16.6000 C.2   114  ALA114      0.2287
     69  O          6.7330  -11.8660   15.6890 O.2   114  ALA114     -0.2864
     70  CB         9.9460  -11.7240   16.5110 C.3   114  ALA114      0.0319
     71  N          4.4930  -10.0550   14.8480 N.3   117  HIS117     -0.1241
     72  CA         4.3120  -10.6540   13.5140 C.3   117  HIS117      0.1621
     73  C          3.7090  -12.0560   13.5700 C.2   117  HIS117      0.2264
     74  O          2.8560  -12.3880   12.7480 O.2   117  HIS117     -0.2867
     75  CB         5.6270  -10.7060   12.7390 C.3   117  HIS117      0.0745
     76  CG         6.1950   -9.3580   12.4110 C.ar  117  HIS117      0.0817
     77  ND1        5.4800   -8.3740   11.7620 N.ar  117  HIS117     -0.2268
     78  CD2        7.4470   -8.8690   12.5760 C.ar  117  HIS117      0.1154
     79  CE1        6.2660   -7.3260   11.5640 C.ar  117  HIS117      0.1986
     80  NE2        7.4640   -7.5970   12.0630 N.ar  117  HIS117     -0.2212
     81  N          3.8880   -3.7770   10.1660 N.3   123  HIS123     -0.1241
     82  CA         4.6630   -2.6660   10.6840 C.3   123  HIS123      0.1621
     83  C          3.8820   -1.4000   10.9000 C.2   123  HIS123      0.2264
     84  O          2.9010   -1.1420   10.2290 O.2   123  HIS123     -0.2867
     85  CB         5.8410   -2.4110    9.7640 C.3   123  HIS123      0.0745
     86  CG         6.8830   -3.4580    9.9170 C.ar  123  HIS123      0.0817
     87  ND1        7.5370   -4.0410    8.8570 N.ar  123  HIS123     -0.2268
     88  CD2        7.3630   -4.0470   11.0360 C.ar  123  HIS123      0.1154
     89  CE1        8.3880   -4.9440    9.3200 C.ar  123  HIS123      0.1986
     90  NE2        8.3080   -4.9570   10.6400 N.ar  123  HIS123     -0.2212
     91  N          6.5220   -0.0230   18.9290 N.3   130  VAL130     -0.1245
     92  CA         7.2720   -1.2810   19.0140 C.3   130  VAL130      0.1561
     93  C          7.3270   -1.9680   17.6580 C.2   130  VAL130      0.2260
     94  O          8.3280   -2.5950   17.3150 O.2   130  VAL130     -0.2867
     95  CB         6.6780   -2.2210   20.0930 C.3   130  VAL130      0.0252
     96  CG1        7.0580   -3.6690   19.8460 C.3   130  VAL130      0.0019
     97  CG2        7.1240   -1.7700   21.4780 C.3   130  VAL130      0.0019
     98  N          7.5000   -0.5400   14.7690 N.3   132  PHE132     -0.1228
     99  CA         8.3120    0.1670   13.7600 C.3   132  PHE132      0.1721
    100  C          9.4540   -0.7830   13.3490 C.2   132  PHE132      0.2437
    101  O         10.0220   -1.4520   14.2020 O.2   132  PHE132     -0.2733
    102  CB         8.8560    1.4580   14.3580 C.3   132  PHE132      0.0547
    103  CG         9.5350    2.3430   13.3820 C.ar  132  PHE132     -0.0202
    104  CD1        8.8000    3.0720   12.4470 C.ar  132  PHE132     -0.0042
    105  CD2       10.9160    2.4890   13.4290 C.ar  132  PHE132     -0.0042
    106  CE1        9.4470    3.9270   11.5500 C.ar  132  PHE132     -0.0003
    107  CE2       11.5750    3.3500   12.5530 C.ar  132  PHE132     -0.0003
    108  CZ        10.8390    4.0650   11.6100 C.ar  132  PHE132     -0.0000
    109  N          9.7980   -0.8490   12.0490 N.am  133  PRO133     -0.2718
    110  CA        10.7480   -1.8670   11.5780 C.3   133  PRO133      0.1535
    111  C         12.2430   -1.5940   11.8270 C.2   133  PRO133      0.2599
    112  O         13.0850   -2.0810   11.0520 O.2   133  PRO133     -0.2715
    113  CB        10.4570   -1.9330   10.0750 C.3   133  PRO133      0.0310
    114  CG         9.9770   -0.5900    9.7400 C.3   133  PRO133      0.0237
    115  CD         9.1880   -0.1200   10.9270 C.3   133  PRO133      0.0939
    116  N         12.5680   -0.8270   12.8670 N.am  134  THR134     -0.1937
    117  CA        13.9570   -0.6390   13.3010 C.3   134  THR134      0.2028
    118  C         14.0270   -1.0630   14.7430 C.2   134  THR134      0.2642
    119  O         13.1810   -0.6690   15.5440 O.2   134  THR134     -0.2714
    120  CB        14.3950    0.8350   13.1930 C.3   134  THR134      0.1808
    121  OG1       14.3700    1.2270   11.8170 O.3   134  THR134     -0.2208
    122  CG2       15.8180    1.0390   13.7540 C.3   134  THR134      0.0379
    123  N         15.0370   -1.8620   15.0730 N.am  135  TYR135     -0.1973
    124  CA        15.2850   -2.2680   16.4520 C.3   135  TYR135      0.1639
    125  C         15.7280   -1.0630   17.2740 C.2   135  TYR135      0.2290
    126  O         16.6220   -0.3070   16.8790 O.2   135  TYR135     -0.2864
    127  CB        16.3680   -3.3490   16.4740 C.3   135  TYR135      0.0560
    128  CG        16.9020   -3.6420   17.8500 C.ar  135  TYR135     -0.0198
    129  CD1       18.0630   -3.0170   18.2900 C.ar  135  TYR135     -0.0009
    130  CD2       16.2520   -4.5120   18.7190 C.ar  135  TYR135     -0.0009
    131  CE1       18.5710   -3.2520   19.5660 C.ar  135  TYR135      0.0417
    132  CE2       16.7610   -4.7630   19.9960 C.ar  135  TYR135      0.0417
    133  CZ        17.9330   -4.1500   20.4050 C.ar  135  TYR135      0.1957
    134  OH        18.4380   -4.3800   21.6730 O.3   135  TYR135     -0.2866
@<TRIPOS>BOND
     1    12    10    1
     2    10     9    1
     3    34    32   ar
     4    34    35   ar
     5    87    89   ar
     6    87    86   ar
     7    32    31   ar
     8     9    11    1
     9     9     6    1
    10    35    33   ar
    11    89    90   ar
    12    31    33   ar
    13    31    30    1
    14     5     6    1
    15     5     3   am
    16   114   113    1
    17   114   115    1
    18    85    86    1
    19    85    82    1
    20     2     3    1
    21     2     1    1
    22    86    88   ar
    23    30    27    1
    24   113   110    1
    25     6     7    1
    26    81    82    1
    27    84    83    2
    28    39    38    2
    29     3     4    2
    30    90    88   ar
    31    82    83    1
    32   115   109    1
    33    38    37    1
    34   112   111    2
    35    27    28    1
    36    27    26    1
    37     7     8    2
    38     7    13   am
    39   106   108   ar
    40   106   104   ar
    41    79    77   ar
    42    79    80   ar
    43   110   111    1
    44   110   109    1
    45    36    28   am
    46    36    37    1
    47   108   107   ar
    48    77    76   ar
    49   121   120    1
    50    24    23    2
    51   111   116   am
    52    28    29    2
    53   109   100   am
    54    80    78   ar
    55    37    40    1
    56    26    23   am
    57    76    78   ar
    58    76    75    1
    59   104   103   ar
    60    13    14    1
    61    23    22    1
    62   107   105   ar
    63    75    72    1
    64    74    73    2
    65   116   117    1
    66   120   117    1
    67   120   122    1
    68   117   118    1
    69   100    99    1
    70   100   101    2
    71    21    22    1
    72    21    15   am
    73   103   105   ar
    74   103   102    1
    75    72    73    1
    76    72    71    1
    77    22    25    1
    78    99   102    1
    79    99    98    1
    80    14    15    1
    81    14    17    1
    82    65    64   ar
    83    65    63   ar
    84    15    16    2
    85    64    62   ar
    86    18    20    1
    87    18    17    1
    88    18    19    1
    89   118   123   am
    90   118   119    2
    91    63    61   ar
    92   123   124    1
    93    69    68    2
    94    62    61   ar
    95    61    60    1
    96    67    70    1
    97    67    68    1
    98    67    66    1
    99    59    58    2
   100   124   127    1
   101   124   125    1
   102   127   128    1
   103   126   125    2
   104    58    66   am
   105    58    57    1
   106    94    93    2
   107    60    57    1
   108    93    92    1
   109   128   129   ar
   110   128   130   ar
   111    55    53    1
   112    57    56    1
   113   129   131   ar
   114    52    51    2
   115   130   132   ar
   116    91    92    1
   117    92    95    1
   118    53    54    1
   119    53    50    1
   120   131   133   ar
   121    51    50    1
   122    50    49    1
   123    96    95    1
   124   132   133   ar
   125    95    97    1
   126   133   134    1
   127    44    43    2
   128    49    43   am
   129    43    42    1
   130    42    45    1
   131    42    41    1
   132    45    46    1
   133    47    46    1
   134    46    48    1
