@<TRIPOS>MOLECULE
tmp/3uvdA00.pdb
 85 82 0 0 0
SMALL
GASTEIGER

@<TRIPOS>ATOM
      1  N          6.3700   14.5580   50.2980 N.3    38  VAL38      -0.1231
      2  CA         6.0880   14.4330   48.8340 C.3    38  VAL38       0.1692
      3  C          7.3010   13.9690   48.0050 C.2    38  VAL38       0.2592
      4  O          7.1870   13.5880   46.8020 O.2    38  VAL38      -0.2718
      5  CB         5.5830   15.7560   48.2730 C.3    38  VAL38       0.0266
      6  CG1        4.2850   16.0870   48.9450 C.3    38  VAL38       0.0020
      7  CG2        6.6470   16.8490   48.4510 C.3    38  VAL38       0.0020
      8  N          8.4480   13.9870   48.6790 N.am   39  PHE39      -0.1976
      9  CA         9.7710   13.6710   48.0890 C.3    39  PHE39       0.1639
     10  C         10.2120   12.2730   48.4710 C.2    39  PHE39       0.2290
     11  O         11.2740   11.8440   48.0640 O.2    39  PHE39      -0.2864
     12  CB        10.8290   14.7370   48.4940 C.3    39  PHE39       0.0560
     13  CG        10.4440   16.1840   48.1540 C.ar   39  PHE39      -0.0200
     14  CD1       10.4940   16.6500   46.8410 C.ar   39  PHE39      -0.0042
     15  CD2       10.0470   17.0900   49.1480 C.ar   39  PHE39      -0.0042
     16  CE1       10.1540   17.9760   46.5250 C.ar   39  PHE39      -0.0003
     17  CE2        9.6940   18.4020   48.8420 C.ar   39  PHE39      -0.0003
     18  CZ         9.7620   18.8550   47.5160 C.ar   39  PHE39      -0.0000
     19  N          8.9320    9.0590   44.4940 N.3    42  LEU42      -0.1231
     20  CA         8.5120    9.7390   43.2590 C.3    42  LEU42       0.1678
     21  C          7.3600    8.8890   42.6170 C.2    42  LEU42       0.2434
     22  O          7.3190    7.6880   42.8100 O.2    42  LEU42      -0.2733
     23  CB         9.6860    9.8800   42.2590 C.3    42  LEU42       0.0284
     24  CG        10.5710   11.1400   42.3400 C.3    42  LEU42       0.0019
     25  CD1       11.7640   11.0570   41.4020 C.3    42  LEU42       0.0001
     26  CD2        9.7720   12.3960   42.0420 C.3    42  LEU42       0.0001
     27  N          6.4410    9.5160   41.8440 N.am   43  PRO43      -0.2729
     28  CA         5.3190    8.7680   41.2190 C.3    43  PRO43       0.1401
     29  C          5.8250    7.9950   40.0100 C.2    43  PRO43       0.2269
     30  O          6.9650    8.2500   39.5640 O.2    43  PRO43      -0.2865
     31  CB         4.3290    9.8710   40.8290 C.3    43  PRO43       0.0296
     32  CG         5.1470   11.1310   40.7110 C.3    43  PRO43       0.0237
     33  CD         6.4770   10.9270   41.4060 C.3    43  PRO43       0.0939
     34  N          3.0290    9.5540   35.8300 N.3    48  LEU48      -0.1245
     35  CA         3.4770   10.9220   35.5780 C.3    48  LEU48       0.1561
     36  C          4.6000   10.9310   34.5170 C.2    48  LEU48       0.2260
     37  O          5.7320   11.3880   34.7740 O.2    48  LEU48      -0.2867
     38  CB         3.9510   11.5760   36.9000 C.3    48  LEU48       0.0270
     39  CG         3.6410   13.0650   37.1520 C.3    48  LEU48       0.0019
     40  CD1        4.5520   13.6120   38.2530 C.3    48  LEU48       0.0001
     41  CD2        3.7430   13.9140   35.8890 C.3    48  LEU48       0.0001
     42  N          6.9300   13.9020   33.9130 N.3    51  TYR51      -0.1241
     43  CA         8.0040   14.1490   34.9130 C.3    51  TYR51       0.1605
     44  C          9.3190   13.6570   34.3560 C.2    51  TYR51       0.2264
     45  O         10.3110   14.3860   34.2680 O.2    51  TYR51      -0.2867
     46  CB         7.7270   13.4110   36.2290 C.3    51  TYR51       0.0534
     47  CG         8.7240   13.7830   37.2990 C.ar   51  TYR51      -0.0201
     48  CD1        8.5390   14.9240   38.0820 C.ar   51  TYR51      -0.0009
     49  CD2        9.8900   13.0430   37.4840 C.ar   51  TYR51      -0.0009
     50  CE1        9.4890   15.2880   39.0390 C.ar   51  TYR51       0.0417
     51  CE2       10.8310   13.4080   38.4160 C.ar   51  TYR51       0.0417
     52  CZ        10.6210   14.5250   39.2090 C.ar   51  TYR51       0.1957
     53  OH        11.5960   14.8770   40.1550 O.3    51  TYR51      -0.2866
     54  N         12.6450   19.0860   41.8740 N.3    90  ALA90      -0.1245
     55  CA        11.4960   19.8480   42.3860 C.3    90  ALA90       0.1562
     56  C         11.3130   21.2800   41.8720 C.2    90  ALA90       0.2260
     57  O         10.1860   21.6780   41.4690 O.2    90  ALA90      -0.2867
     58  CB        11.5300   19.8930   43.9040 C.3    90  ALA90       0.0290
     59  N         10.6200   20.9970   37.9100 N.3    93  PHE93      -0.1227
     60  CA         9.2950   20.4730   37.5440 C.3    93  PHE93       0.1736
     61  C          8.1290   21.2750   38.0930 C.2    93  PHE93       0.2595
     62  O          7.0610   21.3730   37.4530 O.2    93  PHE93      -0.2718
     63  CB         9.1910   19.0310   38.0260 C.3    93  PHE93       0.0547
     64  CG         7.9500   18.3530   37.5780 C.ar   93  PHE93      -0.0202
     65  CD1        7.7730   18.0260   36.2230 C.ar   93  PHE93      -0.0042
     66  CD2        6.9590   18.0610   38.4630 C.ar   93  PHE93      -0.0042
     67  CE1        6.6270   17.3910   35.7890 C.ar   93  PHE93      -0.0003
     68  CE2        5.7800   17.4500   38.0350 C.ar   93  PHE93      -0.0003
     69  CZ         5.6250   17.0960   36.7010 C.ar   93  PHE93      -0.0000
     70  N          8.3100   21.8640   39.2660 N.am   94  ASN94      -0.1974
     71  CA         7.2900   22.7420   39.8330 C.3    94  ASN94       0.1688
     72  C          7.5740   24.2520   39.7110 C.2    94  ASN94       0.2292
     73  O          8.7200   24.7270   39.7190 O.2    94  ASN94      -0.2864
     74  CB         6.9980   22.3790   41.2760 C.3    94  ASN94       0.1181
     75  CG         6.7970   20.9010   41.4500 C.2    94  ASN94       0.2629
     76  OD1        5.6900   20.4130   41.2940 O.2    94  ASN94      -0.2716
     77  ND2        7.8790   20.1670   41.7270 N.am   94  ASN94      -0.0877
     78  N          5.3720   22.6600   46.6470 N.3   100  ILE100     -0.1245
     79  CA         6.4820   21.6920   46.3950 C.3   100  ILE100      0.1561
     80  C          7.8170   22.3780   46.0860 C.2   100  ILE100      0.2260
     81  O          8.8780   21.9400   46.5720 O.2   100  ILE100     -0.2867
     82  CB         6.1520   20.6590   45.2610 C.3   100  ILE100      0.0252
     83  CG1        4.8760   19.8890   45.5840 C.3   100  ILE100      0.0019
     84  CG2        7.3330   19.6420   45.1050 C.3   100  ILE100      0.0019
     85  CD1        4.6170   18.6740   44.6990 C.3   100  ILE100      0.0001
@<TRIPOS>BOND
     1    42    43    1
     2    45    44    2
     3    44    43    1
     4    36    37    2
     5    36    35    1
     6    43    46    1
     7    35    34    1
     8    35    38    1
     9    67    65   ar
    10    67    69   ar
    11    41    39    1
    12    65    64   ar
    13    46    47    1
    14    69    68   ar
    15    38    39    1
    16    39    40    1
    17    47    49   ar
    18    47    48   ar
    19    62    61    2
    20    49    51   ar
    21    60    59    1
    22    60    63    1
    23    60    61    1
    24    64    63    1
    25    64    66   ar
    26    68    66   ar
    27    48    50   ar
    28    61    70   am
    29    51    52   ar
    30    50    52   ar
    31    52    53    1
    32    70    71    1
    33    30    29    2
    34    72    73    2
    35    72    71    1
    36    71    74    1
    37    29    28    1
    38    32    31    1
    39    32    33    1
    40    31    28    1
    41    28    27    1
    42    74    75    1
    43    76    75    2
    44    25    24    1
    45    33    27    1
    46    75    77   am
    47    57    56    2
    48    27    21   am
    49    56    55    1
    50    54    55    1
    51    26    24    1
    52    23    24    1
    53    23    20    1
    54    55    58    1
    55    21    22    2
    56    21    20    1
    57    20    19    1
    58    85    83    1
    59    84    82    1
    60    82    83    1
    61    82    79    1
    62    80    79    1
    63    80    81    2
    64    79    78    1
    65    16    14   ar
    66    16    18   ar
    67     4     3    2
    68    14    13   ar
    69    18    17   ar
    70     3     8   am
    71     3     2    1
    72    11    10    2
    73     9    10    1
    74     9    12    1
    75     9     8    1
    76    13    12    1
    77    13    15   ar
    78     5     7    1
    79     5     2    1
    80     5     6    1
    81     2     1    1
    82    17    15   ar
