@<TRIPOS>MOLECULE
tmp/3uvkA00.pdb
 136 138 0 0 0
SMALL
GASTEIGER

@<TRIPOS>ATOM
      1  N         -8.5750    5.7510  -10.7120 N.3    23  PHE23      -0.1241
      2  CA        -7.8450    4.7470   -9.8950 C.3    23  PHE23       0.1605
      3  C         -6.7840    4.0780  -10.7010 C.2    23  PHE23       0.2264
      4  O         -7.0150    3.6780  -11.8410 O.2    23  PHE23      -0.2867
      5  CB        -8.8120    3.6920   -9.3620 C.3    23  PHE23       0.0534
      6  CG        -9.6920    4.1810   -8.2060 C.ar   23  PHE23      -0.0203
      7  CD1      -11.0430    4.5100   -8.4280 C.ar   23  PHE23      -0.0042
      8  CD2       -9.1280    4.3750   -6.9260 C.ar   23  PHE23      -0.0042
      9  CE1      -11.8550    4.9410   -7.3700 C.ar   23  PHE23      -0.0003
     10  CE2       -9.9460    4.8040   -5.8670 C.ar   23  PHE23      -0.0003
     11  CZ       -11.2800    5.0660   -6.0640 C.ar   23  PHE23      -0.0000
     12  N         -4.6880    0.9340  -12.1140 N.3    25  PRO25      -0.2116
     13  CA        -5.1580   -0.4250  -12.3560 C.3    25  PRO25       0.1372
     14  C         -4.8330   -1.3860  -11.2300 C.2    25  PRO25       0.2244
     15  O         -5.5390   -2.4040  -11.0880 O.2    25  PRO25      -0.2868
     16  CB        -4.4640   -0.8140  -13.6840 C.3    25  PRO25       0.0268
     17  CG        -4.3010    0.5400  -14.4080 C.3    25  PRO25       0.0207
     18  CD        -4.0190    1.5450  -13.2930 C.3    25  PRO25       0.0892
     19  N         -4.5870    9.9820  -16.9530 N.3    64  ALA64      -0.1231
     20  CA        -4.9050    8.5410  -17.1290 C.3    64  ALA64       0.1694
     21  C         -3.6610    7.7000  -16.8590 C.2    64  ALA64       0.2592
     22  O         -2.5160    8.1740  -17.0190 O.2    64  ALA64      -0.2718
     23  CB        -5.3870    8.2620  -18.5810 C.3    64  ALA64       0.0304
     24  N         -3.8780    6.4890  -16.3680 N.am   65  TRP65      -0.1962
     25  CA        -2.7810    5.5750  -15.9270 C.3    65  TRP65       0.1771
     26  C         -2.4000    4.5980  -17.0460 C.2    65  TRP65       0.2620
     27  O         -3.2490    4.1200  -17.7990 O.2    65  TRP65      -0.2715
     28  CB        -3.2500    4.6720  -14.7840 C.3    65  TRP65       0.0590
     29  CG        -3.5240    5.3820  -13.4780 C.ar   65  TRP65       0.0006
     30  CD1       -4.6940    5.9900  -13.0870 C.ar   65  TRP65       0.0946
     31  CD2       -2.5720    5.5790  -12.4020 C.ar   65  TRP65       0.0152
     32  NE1       -4.5150    6.5170  -11.7840 N.ar   65  TRP65      -0.2442
     33  CE2       -3.2310    6.2600  -11.3780 C.ar   65  TRP65       0.0810
     34  CE3       -1.1990    5.2280  -12.2300 C.ar   65  TRP65       0.0012
     35  CZ2       -2.6080    6.5960  -10.1900 C.ar   65  TRP65       0.0191
     36  CZ3       -0.5770    5.5530  -11.0750 C.ar   65  TRP65       0.0001
     37  CH2       -1.2610    6.2410  -10.0460 C.ar   65  TRP65       0.0015
     38  N         -1.1260    4.1990  -17.0580 N.am   66  SER66      -0.1936
     39  CA        -0.7110    3.0610  -17.8520 C.3    66  SER66       0.2055
     40  C         -1.0720    1.7520  -17.1380 C.2    66  SER66       0.2643
     41  O         -1.4440    1.7300  -15.9190 O.2    66  SER66      -0.2714
     42  CB         0.8120    3.0770  -18.0520 C.3    66  SER66       0.2130
     43  OG         1.5120    2.9660  -16.8160 O.3    66  SER66      -0.2179
     44  N         -1.0600    0.6590  -17.9010 N.am   67  SER67      -0.1949
     45  CA        -1.5520   -0.6080  -17.4280 C.3    67  SER67       0.1924
     46  C         -0.8420   -1.1360  -16.1730 C.2    67  SER67       0.2314
     47  O         -1.4230   -1.8190  -15.3510 O.2    67  SER67      -0.2863
     48  CB        -1.5050   -1.6070  -18.5750 C.3    67  SER67       0.2116
     49  OG        -2.6010   -1.3550  -19.4620 O.3    67  SER67      -0.2180
     50  N         -5.8490    8.7440  -22.9440 N.3   106  ASN106     -0.1225
     51  CA        -5.8380    7.4040  -22.3800 C.3   106  ASN106      0.1785
     52  C         -4.6710    6.6200  -22.9680 C.2   106  ASN106      0.2597
     53  O         -4.3660    6.7980  -24.1540 O.2   106  ASN106     -0.2718
     54  CB        -7.1470    6.6020  -22.6920 C.3   106  ASN106      0.1169
     55  CG        -8.1040    6.5990  -21.5420 C.2   106  ASN106      0.2627
     56  OD1       -7.7120    6.2200  -20.4640 O.2   106  ASN106     -0.2716
     57  ND2       -9.3200    7.0640  -21.7630 N.am  106  ASN106     -0.0877
     58  N         -4.0850    5.7050  -22.1850 N.am  107  PHE107     -0.1962
     59  CA        -3.2000    4.6590  -22.7440 C.3   107  PHE107      0.1771
     60  C         -4.0320    3.5620  -23.3460 C.2   107  PHE107      0.2620
     61  O         -5.1450    3.2890  -22.9030 O.2   107  PHE107     -0.2715
     62  CB        -2.3620    4.0430  -21.6000 C.3   107  PHE107      0.0574
     63  CG        -1.2250    4.9390  -21.1060 C.ar  107  PHE107     -0.0200
     64  CD1       -1.4280    5.8360  -20.0580 C.ar  107  PHE107     -0.0042
     65  CD2        0.0650    4.8460  -21.6740 C.ar  107  PHE107     -0.0042
     66  CE1       -0.4070    6.6250  -19.5720 C.ar  107  PHE107     -0.0003
     67  CE2        1.1620    5.5950  -21.1440 C.ar  107  PHE107     -0.0003
     68  CZ         0.8930    6.4880  -20.1210 C.ar  107  PHE107     -0.0000
     69  N         -3.4730    2.8120  -24.2870 N.am  108  ASN108     -0.1959
     70  CA        -4.0240    1.5230  -24.6390 C.3   108  ASN108      0.1804
     71  C         -3.6420    0.5050  -23.5600 C.2   108  ASN108      0.2463
     72  O         -2.7410    0.7320  -22.7210 O.2   108  ASN108     -0.2730
     73  CB        -3.6370    1.0440  -26.0570 C.3   108  ASN108      0.1195
     74  CG        -2.1260    0.9050  -26.2780 C.2   108  ASN108      0.2630
     75  OD1       -1.2820    1.3130  -25.4720 O.2   108  ASN108     -0.2716
     76  ND2       -1.8040    0.3300  -27.4410 N.am  108  ASN108     -0.0877
     77  N         -4.2840   -0.6700  -23.5650 N.am  109  PRO109     -0.2727
     78  CA        -3.9330   -1.6540  -22.5430 C.3   109  PRO109      0.1402
     79  C         -2.4740   -2.1050  -22.6150 C.2   109  PRO109      0.2269
     80  O         -1.8370   -2.3610  -21.5590 O.2   109  PRO109     -0.2865
     81  CB        -4.8830   -2.7970  -22.8370 C.3   109  PRO109      0.0296
     82  CG        -6.1080   -2.1230  -23.3520 C.3   109  PRO109      0.0237
     83  CD        -5.4930   -1.0840  -24.2810 C.3   109  PRO109      0.0939
     84  N         -0.1420   -0.1640  -23.3350 N.3   111  SER111     -0.1217
     85  CA         0.4870    1.0550  -22.9040 C.3   111  SER111      0.1889
     86  C          1.7310    1.4010  -23.7220 C.2   111  SER111      0.2288
     87  O          2.5450    2.1960  -23.2850 O.2   111  SER111     -0.2866
     88  CB         0.6940    0.9770  -21.3750 C.3   111  SER111      0.2089
     89  OG        -0.5840    1.0470  -20.7140 O.3   111  SER111     -0.2183
     90  N        -11.1820    6.5850  -25.8520 N.3   148  HIS148     -0.1226
     91  CA       -10.9210    5.4270  -24.9580 C.3   148  HIS148      0.1752
     92  C        -10.5750    4.2630  -25.8770 C.2   148  HIS148      0.2596
     93  O        -11.1320    4.1420  -26.9800 O.2   148  HIS148     -0.2718
     94  CB       -12.2060    5.1410  -24.1780 C.3   148  HIS148      0.0759
     95  CG       -12.0960    4.1360  -23.0700 C.ar  148  HIS148      0.0818
     96  ND1      -11.2400    4.1880  -21.9740 N.ar  148  HIS148     -0.2268
     97  CD2      -12.8880    3.0330  -22.9080 C.ar  148  HIS148      0.1154
     98  CE1      -11.5130    3.1410  -21.1870 C.ar  148  HIS148      0.1986
     99  NE2      -12.5020    2.4370  -21.7390 N.ar  148  HIS148     -0.2212
    100  N         -9.6870    3.4320  -25.4380 N.am  149  PHE149     -0.1962
    101  CA        -9.3650    2.1560  -26.1730 C.3   149  PHE149      0.1771
    102  C        -10.2130    1.0210  -25.6370 C.2   149  PHE149      0.2620
    103  O        -10.5240    1.0120  -24.4340 O.2   149  PHE149     -0.2715
    104  CB        -7.9050    1.7820  -25.9610 C.3   149  PHE149      0.0574
    105  CG        -6.8920    2.5510  -26.8060 C.ar  149  PHE149     -0.0200
    106  CD1       -6.1440    3.6160  -26.2470 C.ar  149  PHE149     -0.0042
    107  CD2       -6.6320    2.1580  -28.1230 C.ar  149  PHE149     -0.0042
    108  CE1       -5.1890    4.2650  -26.9540 C.ar  149  PHE149     -0.0003
    109  CE2       -5.6320    2.7950  -28.8420 C.ar  149  PHE149     -0.0003
    110  CZ        -4.8900    3.8630  -28.2530 C.ar  149  PHE149     -0.0000
    111  N        -10.4520    0.0260  -26.4760 N.am  150  ASN150     -0.1958
    112  CA       -11.0220   -1.2380  -26.0390 C.3   150  ASN150      0.1819
    113  C         -9.9650   -2.1530  -25.4090 C.2   150  ASN150      0.2621
    114  O         -8.7910   -1.7830  -25.2340 O.2   150  ASN150     -0.2715
    115  CB       -11.8370   -1.9260  -27.1730 C.3   150  ASN150      0.1195
    116  CG       -10.9440   -2.5130  -28.2120 C.2   150  ASN150      0.2630
    117  OD1       -9.7620   -2.1670  -28.2900 O.2   150  ASN150     -0.2716
    118  ND2      -11.4800   -3.4560  -28.9590 N.am  150  ASN150     -0.0877
    119  N        -10.4360   -3.3630  -25.0570 N.am  151  ARG151     -0.1977
    120  CA        -9.6380   -4.1750  -24.1080 C.3   151  ARG151      0.1597
    121  C         -8.3260   -4.7220  -24.7160 C.2   151  ARG151      0.2287
    122  O         -7.3960   -5.0860  -23.9830 O.2   151  ARG151     -0.2864
    123  CB       -10.4410   -5.3680  -23.6420 C.3   151  ARG151      0.0334
    124  CG       -11.2740   -4.9680  -22.4290 C.3   151  ARG151      0.0492
    125  CD       -10.4790   -4.8240  -20.9740 C.3   151  ARG151      0.2205
    126  NE        -9.5900   -5.9110  -20.4170 N.pl3 151  ARG151     -0.0865
    127  CZ        -9.6860   -7.2740  -20.5230 C.cat 151  ARG151      0.5346
    128  NH1      -10.6710   -7.8810  -21.2010 N.pl3 151  ARG151      0.1354
    129  NH2       -8.7670   -8.0630  -19.9250 N.pl3 151  ARG151      0.1354
    130  N        -15.9450   -2.5360  -19.1060 N.3   191  PRO191     -0.2116
    131  CA       -14.6780   -3.0830  -18.6020 C.3   191  PRO191      0.1372
    132  C        -14.2760   -4.3000  -19.3500 C.2   191  PRO191      0.2244
    133  O        -13.0640   -4.6190  -19.3650 O.2   191  PRO191     -0.2868
    134  CB       -15.0000   -3.4070  -17.1170 C.3   191  PRO191      0.0268
    135  CG       -15.8450   -2.2900  -16.6730 C.3   191  PRO191      0.0207
    136  CD       -16.7980   -2.1240  -17.9470 C.3   191  PRO191      0.0892
@<TRIPOS>BOND
     1   118   116   am
     2   109   110   ar
     3   109   107   ar
     4   117   116    2
     5   110   108   ar
     6   116   115    1
     7   107   105   ar
     8    76    74   am
     9   115   112    1
    10    93    92    2
    11   108   106   ar
    12   105   106   ar
    13   105   104    1
    14   111   112    1
    15   111   102   am
    16    74    73    1
    17    74    75    2
    18   101   104    1
    19   101   102    1
    20   101   100    1
    21    73    70    1
    22   112   113    1
    23    92   100   am
    24    92    91    1
    25    90    91    1
    26   102   103    2
    27   113   114    2
    28   113   119   am
    29   119   120    1
    30    91    94    1
    31   121   120    1
    32   121   122    2
    33    70    69    1
    34    70    71    1
    35    69    60   am
    36    83    77    1
    37    83    82    1
    38    94    95    1
    39    53    52    2
    40   120   123    1
    41    86    87    2
    42    86    85    1
    43   123   124    1
    44    77    71   am
    45    77    78    1
    46    71    72    2
    47    82    81    1
    48    60    61    2
    49    60    59    1
    50    84    85    1
    51    95    97   ar
    52    95    96   ar
    53    52    51    1
    54    52    58   am
    55    50    51    1
    56    97    99   ar
    57    85    88    1
    58    81    78    1
    59    59    58    1
    60    59    62    1
    61    54    51    1
    62    54    55    1
    63    79    78    1
    64    79    80    2
    65   124   125    1
    66    96    98   ar
    67    57    55   am
    68    99    98   ar
    69    65    67   ar
    70    65    63   ar
    71    62    63    1
    72    55    56    2
    73    88    89    1
    74   128   127    1
    75    67    68   ar
    76    63    64   ar
    77   125   126    1
    78   127   126    2
    79   127   129    1
    80    68    66   ar
    81    64    66   ar
    82    49    48    1
    83   133   132    2
    84   132   131    1
    85   130   131    1
    86   130   136    1
    87   131   134    1
    88    23    20    1
    89    48    45    1
    90    42    39    1
    91    42    43    1
    92   136   135    1
    93    44    45    1
    94    44    40   am
    95    39    40    1
    96    39    38    1
    97    27    26    2
    98    45    46    1
    99    40    41    2
   100    20    19    1
   101    20    21    1
   102   134   135    1
   103    38    26   am
   104    26    25    1
   105    22    21    2
   106    21    24   am
   107    24    25    1
   108    46    47    2
   109    25    28    1
   110    28    29    1
   111    17    16    1
   112    17    18    1
   113    16    13    1
   114    29    30   ar
   115    29    31   ar
   116    18    12    1
   117    30    32   ar
   118    31    34   ar
   119    31    33   ar
   120    13    12    1
   121    13    14    1
   122    34    36   ar
   123     4     3    2
   124    32    33   ar
   125    33    35   ar
   126    14    15    2
   127    36    37   ar
   128     1     2    1
   129     3     2    1
   130    35    37   ar
   131     2     5    1
   132     5     6    1
   133     7     6   ar
   134     7     9   ar
   135     6     8   ar
   136     9    11   ar
   137     8    10   ar
   138    11    10   ar
