@<TRIPOS>MOLECULE
tmp/3uvnA00.pdb
 236 228 0 0 0
SMALL
GASTEIGER

@<TRIPOS>ATOM
      1  N        -10.0340   24.2170    3.2920 N.3    16  LYS16      -0.1231
      2  CA        -9.0340   23.5760    2.4340 C.3    16  LYS16       0.1693
      3  C         -9.7860   22.8300    1.3410 C.2    16  LYS16       0.2592
      4  O        -11.0160   22.8320    1.3590 O.2    16  LYS16      -0.2718
      5  CB        -8.1580   22.6200    3.2470 C.3    16  LYS16       0.0285
      6  CG        -7.1910   23.3260    4.1640 C.3    16  LYS16       0.0035
      7  CD        -6.1500   22.3570    4.6650 C.3    16  LYS16       0.0206
      8  CE        -5.1740   23.0500    5.5710 C.3    16  LYS16       0.1093
      9  NZ        -4.8610   22.2470    6.7910 N.3    16  LYS16      -0.1314
     10  N         -9.0740   22.1940    0.4040 N.am   17  ALA17      -0.1966
     11  CA        -9.6540   21.4430   -0.7050 C.3    17  ALA17       0.1728
     12  C        -10.7860   20.5360   -0.2760 C.2    17  ALA17       0.2616
     13  O        -10.7220   19.9080    0.7800 O.2    17  ALA17      -0.2715
     14  CB        -8.5800   20.5910   -1.3770 C.3    17  ALA17       0.0334
     15  N        -11.8200   20.4700   -1.1050 N.am   18  VAL18      -0.1963
     16  CA       -12.9110   19.5250   -0.8770 C.3    18  VAL18       0.1727
     17  C        -12.4340   18.2560   -1.5600 C.2    18  VAL18       0.2616
     18  O        -11.8190   18.3380   -2.6210 O.2    18  VAL18      -0.2715
     19  CB       -14.2780   20.0010   -1.4230 C.3    18  VAL18       0.0290
     20  CG1      -15.3720   19.0030   -1.0500 C.3    18  VAL18       0.0023
     21  CG2      -14.6160   21.3820   -0.8870 C.3    18  VAL18       0.0023
     22  N        -12.6450   17.0890   -0.9490 N.am   19  SER19      -0.1950
     23  CA       -12.1450   15.8570   -1.5660 C.3    19  SER19       0.1924
     24  C        -13.2830   14.9590   -2.1360 C.2    19  SER19       0.2314
     25  O        -13.0700   14.2210   -3.1030 O.2    19  SER19      -0.2863
     26  CB       -11.3200   15.0690   -0.5510 C.3    19  SER19       0.2116
     27  OG       -12.0800   14.8500    0.6330 O.3    19  SER19      -0.2180
     28  N         -9.7800   18.1940    3.0420 N.3    35  ALA35      -0.1245
     29  CA        -8.4050   18.2430    3.5690 C.3    35  ALA35       0.1562
     30  C         -8.4020   19.0330    4.8970 C.2    35  ALA35       0.2260
     31  O         -7.4820   18.8870    5.6820 O.2    35  ALA35      -0.2867
     32  CB        -7.4850   18.9200    2.5580 C.3    35  ALA35       0.0290
     33  N         -6.2670   14.0490   10.6580 N.3    58  LEU58      -0.1231
     34  CA        -5.7070   14.5440    9.3990 C.3    58  LEU58       0.1693
     35  C         -6.7990   14.6310    8.3300 C.2    58  LEU58       0.2593
     36  O         -7.9380   14.2530    8.6090 O.2    58  LEU58      -0.2718
     37  CB        -4.5380   13.6480    8.9280 C.3    58  LEU58       0.0284
     38  CG        -3.2980   13.6110    9.8470 C.3    58  LEU58       0.0019
     39  CD1       -2.3300   12.5080    9.4280 C.3    58  LEU58       0.0001
     40  CD2       -2.5780   14.9630    9.8890 C.3    58  LEU58       0.0001
     41  N         -6.4480   15.1420    7.1290 N.am   59  GLY59      -0.1942
     42  CA        -7.3890   15.3060    6.0190 C.3    59  GLY59       0.2014
     43  C         -8.1490   14.0460    5.6170 C.2    59  GLY59       0.2639
     44  O         -7.6520   12.9260    5.7810 O.2    59  GLY59      -0.2714
     45  N         -9.3650   14.2210    5.0790 N.am   60  ILE60      -0.1963
     46  CA       -10.2560   13.1230    4.6660 C.3    60  ILE60       0.1727
     47  C        -10.3080   13.0890    3.1400 C.2    60  ILE60       0.2617
     48  O        -10.4980   14.1330    2.5240 O.2    60  ILE60      -0.2715
     49  CB       -11.6660   13.3220    5.2840 C.3    60  ILE60       0.0290
     50  CG1      -11.5960   13.4930    6.8190 C.3    60  ILE60       0.0022
     51  CG2      -12.6350   12.1940    4.8880 C.3    60  ILE60       0.0023
     52  CD1      -12.8600   14.1690    7.4110 C.3    60  ILE60       0.0001
     53  N        -10.1520   11.8990    2.5430 N.am   61  SER61      -0.1936
     54  CA       -10.1660   11.7130    1.0820 C.3    61  SER61       0.2055
     55  C        -11.5210   11.2410    0.5630 C.2    61  SER61       0.2643
     56  O        -11.7780   11.3510   -0.6380 O.2    61  SER61      -0.2714
     57  CB        -9.0920   10.7250    0.6510 C.3    61  SER61       0.2130
     58  OG        -7.8070   11.3080    0.7280 O.3    61  SER61      -0.2179
     59  N        -12.3830   10.6980    1.4450 N.am   62  ASP62      -0.1971
     60  CA       -13.6750   10.1940    0.9790 C.3    62  ASP62       0.1709
     61  C        -14.6690   10.0680    2.1050 C.2    62  ASP62       0.2293
     62  O        -14.2800    9.8870    3.2460 O.2    62  ASP62      -0.2864
     63  CB       -13.4530    8.7810    0.3540 C.3    62  ASP62       0.1436
     64  CG       -14.5020    8.3070   -0.6530 C.2    62  ASP62       0.3671
     65  OD1      -15.4340    9.0890   -0.9750 O.co2  62  ASP62      -0.2456
     66  OD2      -14.4010    7.1480   -1.1060 O.co2  62  ASP62      -0.2456
     67  N         -6.2640   10.4370    6.0510 N.3    77  ASP77      -0.1239
     68  CA        -4.8020   10.3700    6.0420 C.3    77  ASP77       0.1674
     69  C         -4.2650    9.8800    7.3930 C.2    77  ASP77       0.2266
     70  O         -3.1240    9.4320    7.4440 O.2    77  ASP77      -0.2867
     71  CB        -4.1750   11.7420    5.7150 C.3    77  ASP77       0.1410
     72  CG        -4.0750   12.0860    4.2340 C.2    77  ASP77       0.3668
     73  OD1       -4.8230   11.4770    3.4170 O.co2  77  ASP77      -0.2456
     74  OD2       -3.2550   12.9690    3.8850 O.co2  77  ASP77      -0.2456
     75  N         -2.3800    6.0230    4.4340 N.3   101  TYR101     -0.1241
     76  CA        -3.5980    6.8210    4.2120 C.3   101  TYR101      0.1605
     77  C         -4.7660    5.9620    3.7410 C.2   101  TYR101      0.2264
     78  O         -4.5730    5.1090    2.8530 O.2   101  TYR101     -0.2867
     79  CB        -3.3780    7.9110    3.1260 C.3   101  TYR101      0.0534
     80  CG        -2.0940    8.7130    3.2440 C.ar  101  TYR101     -0.0201
     81  CD1       -1.6890    9.2510    4.4680 C.ar  101  TYR101     -0.0009
     82  CD2       -1.3090    8.9730    2.1260 C.ar  101  TYR101     -0.0009
     83  CE1       -0.5100    9.9920    4.5840 C.ar  101  TYR101      0.0417
     84  CE2       -0.1250    9.7140    2.2280 C.ar  101  TYR101      0.0417
     85  CZ         0.2610   10.2330    3.4550 C.ar  101  TYR101      0.1957
     86  OH         1.4400   10.9330    3.5550 O.3   101  TYR101     -0.2866
     87  N         -7.9470    5.9300    1.5150 N.3   103  PHE103     -0.1227
     88  CA        -8.2750    6.7470    0.3570 C.3   103  PHE103      0.1736
     89  C         -9.7080    6.7290   -0.1080 C.2   103  PHE103      0.2595
     90  O        -10.1870    7.7200   -0.6430 O.2   103  PHE103     -0.2718
     91  CB        -7.3720    6.2940   -0.8020 C.3   103  PHE103      0.0547
     92  CG        -7.2720    7.2800   -1.9430 C.ar  103  PHE103     -0.0202
     93  CD1       -8.0980    7.1620   -3.0610 C.ar  103  PHE103     -0.0042
     94  CD2       -6.3100    8.2810   -1.9350 C.ar  103  PHE103     -0.0042
     95  CE1       -8.0080    8.0720   -4.1210 C.ar  103  PHE103     -0.0003
     96  CE2       -6.1850    9.1610   -3.0160 C.ar  103  PHE103     -0.0003
     97  CZ        -7.0490    9.0710   -4.0820 C.ar  103  PHE103     -0.0000
     98  N        -10.3510    5.5780    0.0000 N.am  104  CYS104     -0.1970
     99  CA       -11.7020    5.3680   -0.5190 C.3   104  CYS104      0.1712
    100  C        -12.4590    4.4450    0.4080 C.2   104  CYS104      0.2296
    101  O        -11.8620    3.6170    1.1020 O.2   104  CYS104     -0.2864
    102  CB       -11.6450    4.8170   -1.9410 C.3   104  CYS104      0.0983
    103  SG       -10.4990    3.4360   -2.1380 S.3   104  CYS104     -0.0798
    104  N         -3.4960    3.5640    0.6260 N.3   119  PHE119     -0.1241
    105  CA        -2.1550    3.7140    0.0650 C.3   119  PHE119      0.1605
    106  C         -1.3060    2.5150    0.4480 C.2   119  PHE119      0.2264
    107  O         -0.2780    2.2650   -0.1890 O.2   119  PHE119     -0.2867
    108  CB        -1.5160    4.9880    0.5930 C.3   119  PHE119      0.0534
    109  CG        -1.5110    6.1110   -0.4090 C.ar  119  PHE119     -0.0203
    110  CD1       -2.6890    6.5230   -1.0190 C.ar  119  PHE119     -0.0042
    111  CD2       -0.3240    6.7690   -0.7350 C.ar  119  PHE119     -0.0042
    112  CE1       -2.6920    7.5700   -1.9360 C.ar  119  PHE119     -0.0003
    113  CE2       -0.3280    7.8240   -1.6550 C.ar  119  PHE119     -0.0003
    114  CZ        -1.5190    8.2270   -2.2340 C.ar  119  PHE119     -0.0000
    115  N         -7.1990    3.2800   -5.3620 N.3   145  SER145     -0.1217
    116  CA        -7.8740    4.5410   -5.6530 C.3   145  SER145      0.1889
    117  C         -9.3800    4.5390   -5.4860 C.2   145  SER145      0.2288
    118  O         -9.9320    5.5960   -5.2350 O.2   145  SER145     -0.2866
    119  CB        -7.4830    5.0340   -7.0460 C.3   145  SER145      0.2089
    120  OG        -7.8290    4.0830   -8.0430 O.3   145  SER145     -0.2183
    121  N         -3.3430    2.4670   -8.8150 N.3   161  TYR161     -0.1241
    122  CA        -2.2820    3.1180   -9.5870 C.3   161  TYR161      0.1605
    123  C         -1.4390    2.0400  -10.2950 C.2   161  TYR161      0.2264
    124  O         -0.7040    2.3700  -11.2450 O.2   161  TYR161     -0.2867
    125  CB        -1.3670    3.9330   -8.6600 C.3   161  TYR161      0.0534
    126  CG        -1.9550    5.2000   -8.0730 C.ar  161  TYR161     -0.0201
    127  CD1       -3.0180    5.8520   -8.6910 C.ar  161  TYR161     -0.0009
    128  CD2       -1.3720    5.8150   -6.9660 C.ar  161  TYR161     -0.0009
    129  CE1       -3.5480    7.0340   -8.1680 C.ar  161  TYR161      0.0417
    130  CE2       -1.9080    6.9850   -6.4210 C.ar  161  TYR161      0.0417
    131  CZ        -2.9880    7.5980   -7.0350 C.ar  161  TYR161      0.1957
    132  OH        -3.4980    8.7760   -6.5390 O.3   161  TYR161     -0.2866
    133  N         -2.2410    4.1320  -14.7050 N.3   186  PRO186     -0.2116
    134  CA        -2.9000    4.1100  -13.3910 C.3   186  PRO186      0.1372
    135  C         -4.4180    4.2470  -13.4990 C.2   186  PRO186      0.2244
    136  O         -4.8850    5.0860  -14.2660 O.2   186  PRO186     -0.2868
    137  CB        -2.3260    5.3660  -12.7080 C.3   186  PRO186      0.0268
    138  CG        -0.9700    5.5160  -13.3070 C.3   186  PRO186      0.0207
    139  CD        -1.1770    5.1620  -14.7530 C.3   186  PRO186      0.0892
    140  N         -7.5950    5.5160  -11.7590 N.3   188  SER188     -0.1202
    141  CA        -7.8930    6.5320  -10.7610 C.3   188  SER188      0.2020
    142  C         -9.2630    6.4510  -10.1370 C.2   188  SER188      0.2618
    143  O         -9.5080    7.0250   -9.0730 O.2   188  SER188     -0.2717
    144  CB        -7.6490    7.8990  -11.3760 C.3   188  SER188      0.2103
    145  OG        -8.3990    7.9930  -12.5750 O.3   188  SER188     -0.2182
    146  N        -10.1690    5.7060  -10.7650 N.am  189  PHE189     -0.1975
    147  CA       -11.5370    5.5800  -10.2630 C.3   189  PHE189      0.1639
    148  C        -12.2050    4.4110  -10.9290 C.2   189  PHE189      0.2290
    149  O        -11.9220    4.1110  -12.0820 O.2   189  PHE189     -0.2864
    150  CB       -12.3810    6.8720  -10.5120 C.3   189  PHE189      0.0560
    151  CG       -13.8080    6.7600   -9.9750 C.ar  189  PHE189     -0.0200
    152  CD1      -14.0710    6.8930   -8.6100 C.ar  189  PHE189     -0.0042
    153  CD2      -14.8610    6.4500  -10.8180 C.ar  189  PHE189     -0.0042
    154  CE1      -15.3710    6.7300   -8.1040 C.ar  189  PHE189     -0.0003
    155  CE2      -16.1700    6.2710  -10.3090 C.ar  189  PHE189     -0.0003
    156  CZ       -16.4150    6.4530   -8.9610 C.ar  189  PHE189     -0.0000
    157  N         -5.4670    7.5860  -15.7320 N.3   204  LEU204     -0.1245
    158  CA        -4.7100    8.8360  -15.7780 C.3   204  LEU204      0.1561
    159  C         -4.1070    9.1880  -17.1480 C.2   204  LEU204      0.2260
    160  O         -3.1330    9.9410  -17.2530 O.2   204  LEU204     -0.2867
    161  CB        -3.7260    8.9730  -14.5990 C.3   204  LEU204      0.0270
    162  CG        -4.3500    8.9790  -13.1930 C.3   204  LEU204      0.0019
    163  CD1       -3.2720    9.1100  -12.1500 C.3   204  LEU204      0.0001
    164  CD2       -5.3680   10.0940  -13.0330 C.3   204  LEU204      0.0001
    165  N         -4.9950   13.5360  -15.6460 N.3   228  GLU228     -0.1231
    166  CA        -3.6690   12.9090  -15.6580 C.3   228  GLU228      0.1699
    167  C         -3.0480   12.8270  -14.2730 C.2   228  GLU228      0.2592
    168  O         -2.0220   12.1700  -14.1100 O.2   228  GLU228     -0.2718
    169  CB        -2.7350   13.7110  -16.5740 C.3   228  GLU228      0.0402
    170  CG        -2.8240   13.2820  -18.0220 C.3   228  GLU228      0.1161
    171  CD        -2.1200   14.1890  -19.0120 C.2   228  GLU228      0.3649
    172  OE1       -1.4380   15.1490  -18.5800 O.co2 228  GLU228     -0.2457
    173  OE2       -2.2640   13.9420  -20.2310 O.co2 228  GLU228     -0.2457
    174  N         -3.6440   13.4910  -13.2760 N.am  229  LYS229     -0.1966
    175  CA        -3.0390   13.5540  -11.9510 C.3   229  LYS229      0.1728
    176  C         -3.9100   13.1230  -10.7810 C.2   229  LYS229      0.2616
    177  O         -3.4050   12.5040   -9.8370 O.2   229  LYS229     -0.2715
    178  CB        -2.5120   14.9830  -11.7380 C.3   229  LYS229      0.0311
    179  CG        -1.8290   15.2460  -10.3990 C.3   229  LYS229      0.0038
    180  CD        -0.9980   16.5330  -10.4580 C.3   229  LYS229      0.0206
    181  CE        -0.6190   17.0690   -9.1000 C.3   229  LYS229      0.1093
    182  NZ         0.0600   16.0490   -8.2660 N.3   229  LYS229     -0.1314
    183  N         -5.1980   13.4560  -10.8120 N.am  230  TYR230     -0.1960
    184  CA        -6.0580   13.2170   -9.6620 C.3   230  TYR230      0.1771
    185  C         -7.0400   12.0680   -9.7860 C.2   230  TYR230      0.2619
    186  O         -7.4740   11.7300  -10.8860 O.2   230  TYR230     -0.2715
    187  CB        -6.8180   14.5190   -9.3160 C.3   230  TYR230      0.0574
    188  CG        -5.9000   15.6670   -8.9580 C.ar  230  TYR230     -0.0198
    189  CD1       -5.4670   16.5690   -9.9270 C.ar  230  TYR230     -0.0009
    190  CD2       -5.4440   15.8420   -7.6490 C.ar  230  TYR230     -0.0009
    191  CE1       -4.5760   17.5930   -9.6120 C.ar  230  TYR230      0.0417
    192  CE2       -4.5400   16.8480   -7.3300 C.ar  230  TYR230      0.0417
    193  CZ        -4.1320   17.7410   -8.3070 C.ar  230  TYR230      0.1957
    194  OH        -3.2890   18.7690   -7.9690 O.3   230  TYR230     -0.2866
    195  N         -7.4400   11.5130   -8.6480 N.am  231  CYS231     -0.1968
    196  CA        -8.4640   10.4770   -8.6060 C.3   231  CYS231      0.1712
    197  C         -9.8510   11.1290   -8.5340 C.2   231  CYS231      0.2296
    198  O        -10.3800   11.4180   -7.4620 O.2   231  CYS231     -0.2864
    199  CB        -8.2190    9.5330   -7.4440 C.3   231  CYS231      0.0983
    200  SG        -6.7110    8.5580   -7.6400 S.3   231  CYS231     -0.0798
    201  N        -13.8250   11.3930   -9.1740 N.3   233  PHE233     -0.1241
    202  CA       -15.0640   10.6040   -9.1570 C.3   233  PHE233      0.1605
    203  C        -15.8470   10.8160  -10.4710 C.2   233  PHE233      0.2264
    204  O        -15.9240   11.9290  -10.9750 O.2   233  PHE233     -0.2867
    205  CB       -15.9590   11.0320   -7.9910 C.3   233  PHE233      0.0534
    206  CG       -15.4290   10.6980   -6.6110 C.ar  233  PHE233     -0.0203
    207  CD1      -14.5810   11.5720   -5.9440 C.ar  233  PHE233     -0.0042
    208  CD2      -15.8480    9.5460   -5.9450 C.ar  233  PHE233     -0.0042
    209  CE1      -14.1260   11.2860   -4.6500 C.ar  233  PHE233     -0.0003
    210  CE2      -15.3580    9.2380   -4.6710 C.ar  233  PHE233     -0.0003
    211  CZ       -14.5140   10.1180   -4.0220 C.ar  233  PHE233     -0.0000
    212  N        -12.6650   17.6680   -8.3990 N.3   275  ILE275     -0.1245
    213  CA       -12.2480   16.3380   -7.9160 C.3   275  ILE275      0.1561
    214  C        -13.4150   15.3820   -7.7640 C.2   275  ILE275      0.2260
    215  O        -13.2280   14.1680   -7.7740 O.2   275  ILE275     -0.2867
    216  CB       -11.4780   16.5180   -6.5660 C.3   275  ILE275      0.0252
    217  CG1      -10.7670   15.2300   -6.0930 C.3   275  ILE275      0.0019
    218  CG2      -12.3740   17.1320   -5.4490 C.3   275  ILE275      0.0019
    219  CD1       -9.5960   14.7860   -7.0000 C.3   275  ILE275      0.0001
    220  N        -10.7980   21.6110   -5.7620 N.3   291  LEU291     -0.1231
    221  CA        -9.5950   21.6200   -4.9550 C.3   291  LEU291      0.1693
    222  C         -9.2440   22.9630   -4.3000 C.2   291  LEU291      0.2591
    223  O        -10.0730   23.8770   -4.3140 O.2   291  LEU291     -0.2718
    224  CB        -8.4250   20.9350   -5.6940 C.3   291  LEU291      0.0284
    225  CG        -8.6210   19.4470   -5.9970 C.3   291  LEU291      0.0019
    226  CD1       -7.3570   18.8720   -6.5750 C.3   291  LEU291      0.0001
    227  CD2       -9.0470   18.6300   -4.7370 C.3   291  LEU291      0.0001
    228  N         -8.0350   23.0590   -3.6800 N.am  292  GLU292     -0.1979
    229  CA        -7.5460   24.1830   -2.8690 C.3   292  GLU292      0.1602
    230  C         -7.8110   25.6150   -3.3260 C.2   292  GLU292      0.2287
    231  O         -8.0630   26.4710   -2.4770 O.2   292  GLU292     -0.2864
    232  CB        -6.0570   23.9780   -2.5130 C.3   292  GLU292      0.0415
    233  CG        -5.5820   24.7500   -1.2860 C.3   292  GLU292      0.1163
    234  CD        -6.0980   24.3120    0.0760 C.2   292  GLU292      0.3649
    235  OE1       -6.4520   23.1190    0.2500 O.co2 292  GLU292     -0.2457
    236  OE2       -6.0950   25.1690    0.9880 O.co2 292  GLU292     -0.2457
@<TRIPOS>BOND
     1   173   171   ar
     2   171   172   ar
     3   171   170    1
     4   170   169    1
     5   160   159    2
     6   159   158    1
     7   169   166    1
     8   158   157    1
     9   158   161    1
    10   166   165    1
    11   166   167    1
    12   139   133    1
    13   139   138    1
    14   133   134    1
    15   161   162    1
    16   167   168    2
    17   167   174   am
    18   136   135    2
    19   135   134    1
    20   134   137    1
    21   138   137    1
    22   174   175    1
    23   162   164    1
    24   162   163    1
    25   145   144    1
    26   149   148    2
    27   175   178    1
    28   175   176    1
    29   140   141    1
    30   178   179    1
    31   144   141    1
    32   124   123    2
    33   204   203    2
    34   148   147    1
    35   186   185    2
    36   153   155   ar
    37   153   151   ar
    38   183   176   am
    39   183   184    1
    40   176   177    2
    41   146   147    1
    42   146   142   am
    43   141   142    1
    44   150   147    1
    45   150   151    1
    46   203   202    1
    47   180   179    1
    48   180   181    1
    49   155   156   ar
    50   123   122    1
    51   142   143    2
    52   151   152   ar
    53   189   191   ar
    54   189   188   ar
    55   185   184    1
    56   185   195   am
    57   184   187    1
    58   191   193   ar
    59   122   121    1
    60   122   125    1
    61   187   188    1
    62   201   202    1
    63   202   205    1
    64   181   182    1
    65   156   154   ar
    66   188   190   ar
    67   127   129   ar
    68   127   126   ar
    69   125   126    1
    70   195   196    1
    71   152   154   ar
    72   196   197    1
    73   196   199    1
    74   197   198    2
    75   212   213    1
    76   193   194    1
    77   193   192   ar
    78   129   131   ar
    79   126   128   ar
    80   120   119    1
    81   205   206    1
    82   213   214    1
    83   213   216    1
    84   215   214    2
    85   190   192   ar
    86   200   199    1
    87   119   116    1
    88   131   132    1
    89   131   130   ar
    90   219   217    1
    91   128   130   ar
    92   206   208   ar
    93   206   207   ar
    94   226   225    1
    95   216   217    1
    96   216   218    1
    97   225   224    1
    98   225   227    1
    99   208   210   ar
   100   207   209   ar
   101   220   221    1
   102   224   221    1
   103   116   117    1
   104   116   115    1
   105   117   118    2
   106   221   222    1
   107   210   211   ar
   108   209   211   ar
   109   223   222    2
   110   222   228   am
   111    95    97   ar
   112    95    93   ar
   113    97    96   ar
   114   228   229    1
   115   230   229    1
   116   230   231    2
   117    25    24    2
   118    93    92   ar
   119    96    94   ar
   120   229   232    1
   121    18    17    2
   122   232   233    1
   123   114   112   ar
   124   114   113   ar
   125   103   102    1
   126    24    23    1
   127    92    94   ar
   128    92    91    1
   129   102    99    1
   130   112   110   ar
   131   113   111   ar
   132    23    22    1
   133    23    26    1
   134    17    22   am
   135    17    16    1
   136    19    20    1
   137    19    21    1
   138    19    16    1
   139    14    11    1
   140   233   234    1
   141    66    64   ar
   142    15    16    1
   143    15    12   am
   144   110   109   ar
   145    65    64   ar
   146    91    88    1
   147   111   109   ar
   148    11    12    1
   149    11    10    1
   150    64    63    1
   151    90    89    2
   152    56    55    2
   153    26    27    1
   154    99    98    1
   155    99   100    1
   156   109   108    1
   157    12    13    2
   158   107   106    2
   159    89    98   am
   160    89    88    1
   161   105   106    1
   162   105   108    1
   163   105   104    1
   164   234   235   ar
   165   234   236   ar
   166    63    60    1
   167    88    87    1
   168    10     3   am
   169   100   101    2
   170    55    54    1
   171    55    59   am
   172    57    58    1
   173    57    54    1
   174    60    59    1
   175    60    61    1
   176    54    53    1
   177     3     4    2
   178     3     2    1
   179    61    62    2
   180    82    84   ar
   181    82    80   ar
   182    84    85   ar
   183     2     5    1
   184     2     1    1
   185    48    47    2
   186    53    47   am
   187    32    29    1
   188    78    77    2
   189    28    29    1
   190    79    80    1
   191    79    76    1
   192    47    46    1
   193    80    81   ar
   194     5     6    1
   195    73    72   ar
   196    85    86    1
   197    85    83   ar
   198    29    30    1
   199    77    76    1
   200    74    72   ar
   201     6     7    1
   202    76    75    1
   203    72    71    1
   204    81    83   ar
   205     7     8    1
   206    46    45    1
   207    46    49    1
   208    51    49    1
   209    30    31    2
   210    45    43   am
   211    49    50    1
   212     8     9    1
   213    43    44    2
   214    43    42    1
   215    71    68    1
   216    42    41    1
   217    68    67    1
   218    68    69    1
   219    50    52    1
   220    41    35   am
   221    69    70    2
   222    35    36    2
   223    35    34    1
   224    37    34    1
   225    37    38    1
   226    34    33    1
   227    39    38    1
   228    38    40    1
