@<TRIPOS>MOLECULE
tmp/3uvpA00.pdb
 180 169 0 0 0
SMALL
GASTEIGER

@<TRIPOS>ATOM
      1  N        -24.4740   -7.8030  -21.2010 N.3    26  VAL26      -0.1245
      2  CA       -23.0610   -8.0130  -21.5050 C.3    26  VAL26       0.1561
      3  C        -22.2990   -8.2650  -20.1980 C.2    26  VAL26       0.2260
      4  O        -21.7520   -9.3610  -19.9910 O.2    26  VAL26      -0.2867
      5  CB       -22.4360   -6.8670  -22.3750 C.3    26  VAL26       0.0252
      6  CG1      -22.8110   -7.0420  -23.8430 C.3    26  VAL26       0.0019
      7  CG2      -22.8630   -5.4810  -21.9010 C.3    26  VAL26       0.0019
      8  N        -25.5150   -3.4740  -17.7630 N.3    31  VAL31      -0.1245
      9  CA       -25.3900   -3.0570  -19.1470 C.3    31  VAL31       0.1561
     10  C        -25.9420   -4.1360  -20.0690 C.2    31  VAL31       0.2260
     11  O        -25.7210   -5.3350  -19.8460 O.2    31  VAL31      -0.2867
     12  CB       -23.9030   -2.7970  -19.5240 C.3    31  VAL31       0.0252
     13  CG1      -23.7710   -2.2770  -20.9610 C.3    31  VAL31       0.0019
     14  CG2      -23.2560   -1.8240  -18.5570 C.3    31  VAL31       0.0019
     15  N        -24.7920    0.3710  -26.1790 N.3    44  ALA44      -0.1245
     16  CA       -24.8300   -0.1800  -24.8230 C.3    44  ALA44       0.1562
     17  C        -25.8420    0.6240  -24.0190 C.2    44  ALA44       0.2260
     18  O        -25.8300    1.8680  -24.0220 O.2    44  ALA44      -0.2867
     19  CB       -23.4560   -0.1580  -24.1670 C.3    44  ALA44       0.0290
     20  N        -27.2130    1.1110  -20.2880 N.3    46  LYS46      -0.1245
     21  CA       -26.9090    0.9090  -18.8790 C.3    46  LYS46       0.1561
     22  C        -28.0390    1.4050  -18.0270 C.2    46  LYS46       0.2260
     23  O        -28.4190    2.5760  -18.1130 O.2    46  LYS46      -0.2867
     24  CB       -25.6380    1.6690  -18.5100 C.3    46  LYS46       0.0271
     25  CG       -25.2240    1.5770  -17.0350 C.3    46  LYS46       0.0035
     26  CD       -23.8130    2.1030  -16.8890 C.3    46  LYS46       0.0206
     27  CE       -23.2590    1.9180  -15.5030 C.3    46  LYS46       0.1093
     28  NZ       -21.9600    2.6460  -15.4160 N.3    46  LYS46      -0.1314
     29  N        -22.3760   12.1340  -11.2420 N.3    63  ARG63      -0.1231
     30  CA       -21.0080   12.2350  -11.7810 C.3    63  ARG63       0.1694
     31  C        -20.8380   11.5430  -13.1350 C.2    63  ARG63       0.2591
     32  O        -20.2870   12.1060  -14.0790 O.2    63  ARG63      -0.2718
     33  CB       -20.0080   11.6200  -10.7840 C.3    63  ARG63       0.0321
     34  CG       -18.6210   11.2680  -11.3480 C.3    63  ARG63       0.0489
     35  CD       -17.8670   10.3170  -10.4150 C.3    63  ARG63       0.2205
     36  NE       -17.6250   10.9820   -9.1370 N.pl3  63  ARG63      -0.0865
     37  CZ       -17.7420   10.4310   -7.9270 C.cat  63  ARG63       0.5346
     38  NH1      -18.1030    9.1600   -7.7740 N.pl3  63  ARG63       0.1354
     39  NH2      -17.5120   11.1820   -6.8570 N.pl3  63  ARG63       0.1354
     40  N        -21.2870   10.3060  -13.2060 N.am   64  GLU64      -0.1979
     41  CA       -21.2450    9.5370  -14.4370 C.3    64  GLU64       0.1602
     42  C        -22.0590   10.2510  -15.5230 C.2    64  GLU64       0.2287
     43  O        -21.5770   10.4230  -16.6320 O.2    64  GLU64      -0.2864
     44  CB       -21.7810    8.1230  -14.1810 C.3    64  GLU64       0.0415
     45  CG       -21.9410    7.3230  -15.4410 C.3    64  GLU64       0.1163
     46  CD       -22.1740    5.8340  -15.2010 C.2    64  GLU64       0.3649
     47  OE1      -22.0210    5.0880  -16.1690 O.co2  64  GLU64      -0.2457
     48  OE2      -22.4990    5.3900  -14.0780 O.co2  64  GLU64      -0.2457
     49  N        -20.0940   13.4510  -16.5560 N.3    67  LEU67      -0.1231
     50  CA       -18.8860   13.1070  -17.2800 C.3    67  LEU67       0.1693
     51  C        -19.2250   12.6260  -18.6750 C.2    67  LEU67       0.2591
     52  O        -18.5300   12.9600  -19.6390 O.2    67  LEU67      -0.2718
     53  CB       -18.1070   12.0380  -16.5220 C.3    67  LEU67       0.0284
     54  CG       -17.2260   12.3690  -15.3140 C.3    67  LEU67       0.0019
     55  CD1      -16.6690   11.0700  -14.7040 C.3    67  LEU67       0.0001
     56  CD2      -16.1000   13.2680  -15.7010 C.3    67  LEU67       0.0001
     57  N        -20.3100   11.8660  -18.7900 N.am   68  LEU68      -0.1980
     58  CA       -20.7480   11.3580  -20.0980 C.3    68  LEU68       0.1596
     59  C        -21.2450   12.4780  -21.0130 C.2    68  LEU68       0.2287
     60  O        -20.9460   12.4940  -22.2140 O.2    68  LEU68      -0.2864
     61  CB       -21.8150   10.2610  -19.9490 C.3    68  LEU68       0.0297
     62  CG       -21.2990    8.8490  -19.6160 C.3    68  LEU68       0.0022
     63  CD1      -22.4030    7.9280  -19.0980 C.3    68  LEU68       0.0001
     64  CD2      -20.6490    8.2410  -20.8280 C.3    68  LEU68       0.0001
     65  N        -15.7960    7.4030  -25.0350 N.3    77  ILE77      -0.1245
     66  CA       -17.2230    7.1280  -24.8870 C.3    77  ILE77       0.1561
     67  C        -18.0130    8.3810  -24.5850 C.2    77  ILE77       0.2260
     68  O        -17.6310    9.1830  -23.7090 O.2    77  ILE77      -0.2867
     69  CB       -17.5010    6.0550  -23.7750 C.3    77  ILE77       0.0252
     70  CG1      -18.7510    5.2200  -24.0990 C.3    77  ILE77       0.0019
     71  CG2      -17.5550    6.6680  -22.3800 C.3    77  ILE77       0.0019
     72  CD1      -18.5980    4.3200  -25.4000 C.3    77  ILE77       0.0001
     73  N        -28.5930    4.9780  -19.4060 N.3    97  LEU97      -0.1245
     74  CA       -27.6090    5.7080  -20.2100 C.3    97  LEU97       0.1561
     75  C        -27.2740    4.9380  -21.5220 C.2    97  LEU97       0.2260
     76  O        -27.0130    3.7350  -21.4880 O.2    97  LEU97      -0.2867
     77  CB       -26.3370    5.9750  -19.3750 C.3    97  LEU97       0.0270
     78  CG       -26.4820    6.7220  -18.0500 C.3    97  LEU97       0.0019
     79  CD1      -25.2700    6.4760  -17.1960 C.3    97  LEU97       0.0001
     80  CD2      -26.6910    8.2270  -18.2720 C.3    97  LEU97       0.0001
     81  N        -24.9980    4.6150  -25.0820 N.3    99  THR99      -0.1203
     82  CA       -23.6070    4.7560  -25.3850 C.3    99  THR99       0.1994
     83  C        -23.3900    3.9280  -26.6620 C.2    99  THR99       0.2618
     84  O        -24.1460    2.9780  -26.9070 O.2    99  THR99      -0.2717
     85  CB       -22.8450    4.1650  -24.1470 C.3    99  THR99       0.1784
     86  OG1      -22.3680    5.2200  -23.2990 O.3    99  THR99      -0.2211
     87  CG2      -21.7580    3.2350  -24.5080 C.3    99  THR99       0.0376
     88  N        -22.3900    4.2860  -27.4740 N.am  100  HIS100     -0.1961
     89  CA       -21.9010    3.4120  -28.5560 C.3   100  HIS100      0.1787
     90  C        -21.5390    2.0210  -28.0310 C.2   100  HIS100      0.2620
     91  O        -21.0140    1.8880  -26.9390 O.2   100  HIS100     -0.2715
     92  CB       -20.6400    3.9930  -29.2090 C.3   100  HIS100      0.0785
     93  CG       -20.9060    4.9170  -30.3570 C.ar  100  HIS100      0.0821
     94  ND1      -20.7620    6.2870  -30.2580 N.ar  100  HIS100     -0.2267
     95  CD2      -21.2880    4.6680  -31.6320 C.ar  100  HIS100      0.1154
     96  CE1      -21.0580    6.8430  -31.4210 C.ar  100  HIS100      0.1986
     97  NE2      -21.3760    5.8820  -32.2720 N.ar  100  HIS100     -0.2212
     98  N        -21.8240    0.9910  -28.7990 N.am  101  LEU101     -0.1963
     99  CA       -21.2770   -0.3080  -28.4950 C.3   101  LEU101      0.1728
    100  C        -20.3070   -0.5970  -29.6140 C.2   101  LEU101      0.2616
    101  O        -20.7070   -0.8320  -30.7570 O.2   101  LEU101     -0.2715
    102  CB       -22.3460   -1.3840  -28.4200 C.3   101  LEU101      0.0311
    103  CG       -21.7980   -2.7830  -28.1780 C.3   101  LEU101      0.0022
    104  CD1      -21.9730   -3.1410  -26.7310 C.3   101  LEU101      0.0001
    105  CD2      -22.5160   -3.8070  -29.0740 C.3   101  LEU101      0.0001
    106  N        -19.0240   -0.5580  -29.2770 N.am  102  MET102     -0.1963
    107  CA       -17.9970   -0.6090  -30.2730 C.3   102  MET102      0.1736
    108  C        -17.9090   -2.0400  -30.7550 C.2   102  MET102      0.2617
    109  O        -17.6870   -2.2920  -31.9420 O.2   102  MET102     -0.2715
    110  CB       -16.6890   -0.1110  -29.6820 C.3   102  MET102      0.0427
    111  CG       -15.9920    0.9090  -30.5550 C.3   102  MET102      0.0599
    112  SD       -16.9490    2.3990  -30.9620 S.3   102  MET102     -0.1393
    113  CE       -15.7750    3.1370  -32.0610 C.3   102  MET102      0.0692
    114  N        -18.1350   -2.9800  -29.8420 N.am  103  GLY103     -0.1940
    115  CA       -18.2850   -4.3810  -30.2200 C.3   103  GLY103      0.2014
    116  C        -17.4320   -5.3090  -29.3920 C.2   103  GLY103      0.2639
    117  O        -17.8650   -6.4160  -29.0550 O.2   103  GLY103     -0.2714
    118  N        -16.2180   -4.8620  -29.0670 N.am  104  ALA104     -0.1963
    119  CA       -15.2760   -5.6510  -28.2740 C.3   104  ALA104      0.1728
    120  C        -14.4330   -4.7580  -27.3740 C.2   104  ALA104      0.2616
    121  O        -14.3010   -3.5620  -27.6250 O.2   104  ALA104     -0.2715
    122  CB       -14.3710   -6.4850  -29.1860 C.3   104  ALA104      0.0334
    123  N        -13.8640   -5.3430  -26.3200 N.am  105  ASP105     -0.1971
    124  CA       -12.8710   -4.6370  -25.5210 C.3   105  ASP105      0.1709
    125  C        -11.4500   -5.0020  -25.9740 C.2   105  ASP105      0.2293
    126  O        -11.2670   -5.8120  -26.8850 O.2   105  ASP105     -0.2864
    127  CB       -13.1180   -4.7970  -24.0040 C.3   105  ASP105      0.1436
    128  CG       -12.8200   -6.1880  -23.4890 C.2   105  ASP105      0.3671
    129  OD1      -13.4110   -6.5690  -22.4590 O.co2 105  ASP105     -0.2456
    130  OD2      -11.9980   -6.9030  -24.0960 O.co2 105  ASP105     -0.2456
    131  N        -10.2260   -8.7080  -26.0450 N.3   108  ASN108     -0.1240
    132  CA       -10.6580   -9.5430  -27.1660 C.3   108  ASN108      0.1653
    133  C         -9.7030   -9.5110  -28.3730 C.2   108  ASN108      0.2266
    134  O         -9.9310  -10.1870  -29.3740 O.2   108  ASN108     -0.2867
    135  CB       -12.0890   -9.1630  -27.5800 C.3   108  ASN108      0.1155
    136  CG       -13.0970   -9.3230  -26.4410 C.2   108  ASN108      0.2627
    137  OD1      -14.0550   -8.5480  -26.3220 O.2   108  ASN108     -0.2716
    138  ND2      -12.8900  -10.3340  -25.6040 N.am  108  ASN108     -0.0877
    139  N         -9.8690   -3.7930  -20.4640 N.3   147  SER147     -0.1217
    140  CA       -11.3090   -3.9110  -20.1970 C.3   147  SER147      0.1889
    141  C        -12.1110   -2.6550  -20.4650 C.2   147  SER147      0.2288
    142  O        -13.3450   -2.7220  -20.6440 O.2   147  SER147     -0.2866
    143  CB       -11.5240   -4.2050  -18.7230 C.3   147  SER147      0.2089
    144  OG       -11.7080   -5.5660  -18.5410 O.3   147  SER147     -0.2183
    145  N        -12.7730    0.0790  -25.6420 N.3   150  ALA150     -0.1245
    146  CA       -13.7410   -0.4860  -26.5710 C.3   150  ALA150      0.1562
    147  C        -13.2640   -0.2930  -28.0140 C.2   150  ALA150      0.2260
    148  O        -12.9360    0.8310  -28.4200 O.2   150  ALA150     -0.2867
    149  CB       -15.1070    0.1420  -26.3560 C.3   150  ALA150      0.0290
    150  N        -13.5540    4.0250  -22.0350 N.3   160  LEU160     -0.1231
    151  CA       -14.7130    4.0790  -21.1290 C.3   160  LEU160      0.1693
    152  C        -14.3600    3.9120  -19.6380 C.2   160  LEU160      0.2592
    153  O        -13.2170    3.5700  -19.3020 O.2   160  LEU160     -0.2718
    154  CB       -15.7950    3.0950  -21.5750 C.3   160  LEU160      0.0284
    155  CG       -15.5190    1.6000  -21.5770 C.3   160  LEU160      0.0019
    156  CD1      -16.7370    0.9000  -21.0760 C.3   160  LEU160      0.0001
    157  CD2      -15.1630    1.1180  -22.9460 C.3   160  LEU160      0.0001
    158  N        -15.3440    4.2180  -18.7760 N.am  161  ASP161     -0.1960
    159  CA       -15.3270    4.0370  -17.2970 C.3   161  ASP161      0.1840
    160  C        -14.4090    4.9070  -16.3980 C.2   161  ASP161      0.2622
    161  O        -13.8120    4.3830  -15.4380 O.2   161  ASP161     -0.2715
    162  CB       -15.1160    2.5590  -16.9640 C.3   161  ASP161      0.1450
    163  CG       -16.3710    1.7450  -17.1100 C.2   161  ASP161      0.3671
    164  OD1      -17.4630    2.3470  -17.0240 O.co2 161  ASP161     -0.2456
    165  OD2      -16.2620    0.5000  -17.2940 O.co2 161  ASP161     -0.2456
    166  N        -14.3750    6.2270  -16.6470 N.am  162  PHE162     -0.1960
    167  CA       -13.3260    7.1780  -16.1470 C.3   162  PHE162      0.1771
    168  C        -13.7200    8.3240  -15.2020 C.2   162  PHE162      0.2620
    169  O        -13.8030    9.4650  -15.6550 O.2   162  PHE162     -0.2715
    170  CB       -12.6600    7.8640  -17.3620 C.3   162  PHE162      0.0574
    171  CG       -13.6210    8.2180  -18.4600 C.ar  162  PHE162     -0.0200
    172  CD1      -13.8680    7.3300  -19.4870 C.ar  162  PHE162     -0.0042
    173  CD2      -14.2920    9.4170  -18.4470 C.ar  162  PHE162     -0.0042
    174  CE1      -14.7560    7.6280  -20.4790 C.ar  162  PHE162     -0.0003
    175  CE2      -15.2030    9.7280  -19.4440 C.ar  162  PHE162     -0.0003
    176  CZ       -15.4280    8.8260  -20.4600 C.ar  162  PHE162     -0.0000
    177  N        -13.8860    8.0660  -13.9020 N.am  163  GLY163     -0.1954
    178  CA       -14.3850    9.1150  -12.9830 C.3   163  GLY163      0.1869
    179  C        -13.4470    9.6380  -11.9000 C.2   163  GLY163      0.2309
    180  O        -12.2680    9.2720  -11.8680 O.2   163  GLY163     -0.2863
@<TRIPOS>BOND
     1    97    95   ar
     2    97    96   ar
     3   113   112    1
     4   109   108    2
     5    95    93   ar
     6    96    94   ar
     7   112   111    1
     8   101   100    2
     9   108   107    1
    10   108   114   am
    11   111   110    1
    12    93    94   ar
    13    93    92    1
    14   107   110    1
    15   107   106    1
    16   115   114    1
    17   115   116    1
    18   100   106   am
    19   100    99    1
    20   116   118   am
    21   116   117    2
    22   134   133    2
    23    92    89    1
    24   122   119    1
    25   105   103    1
    26   118   119    1
    27    98    99    1
    28    98    90   am
    29    89    90    1
    30    89    88    1
    31    99   102    1
    32   102   103    1
    33   148   147    2
    34   133   132    1
    35   119   120    1
    36   103   104    1
    37    90    91    2
    38   147   146    1
    39   121   120    2
    40   135   132    1
    41   135   136    1
    42    88    83   am
    43   120   123   am
    44   132   131    1
    45    84    83    2
    46   126   125    2
    47    83    82    1
    48   146   149    1
    49   146   145    1
    50   136   137    2
    51   136   138   am
    52   123   124    1
    53    15    16    1
    54   125   124    1
    55   124   127    1
    56    72    70    1
    57    82    81    1
    58    82    85    1
    59    65    66    1
    60    66    67    1
    61    66    69    1
    62    16    19    1
    63    16    17    1
    64    67    68    2
    65    87    85    1
    66    85    86    1
    67    70    69    1
    68   130   128   ar
    69    18    17    2
    70   127   128    1
    71     6     5    1
    72    69    71    1
    73   128   129   ar
    74   157   155    1
    75     5     7    1
    76     5     2    1
    77    60    59    2
    78   150   151    1
    79   155   154    1
    80   155   156    1
    81   154   151    1
    82    75    76    2
    83    75    74    1
    84     2     1    1
    85     2     3    1
    86   151   152    1
    87    59    58    1
    88    13    12    1
    89    64    62    1
    90   142   141    2
    91   174   176   ar
    92   174   172   ar
    93   141   140    1
    94   139   140    1
    95   176   175   ar
    96    20    21    1
    97    74    73    1
    98    74    77    1
    99     3     4    2
   100   140   143    1
   101    58    61    1
   102    58    57    1
   103    10    11    2
   104    10     9    1
   105    61    62    1
   106    52    51    2
   107   152   153    2
   108   152   158   am
   109    62    63    1
   110    12     9    1
   111    12    14    1
   112   172   171   ar
   113   175   173   ar
   114    77    78    1
   115     9     8    1
   116    21    24    1
   117    21    22    1
   118    57    51   am
   119   158   159    1
   120   143   144    1
   121    51    50    1
   122    24    25    1
   123   171   173   ar
   124   171   170    1
   125    80    78    1
   126    23    22    2
   127    78    79    1
   128   170   167    1
   129   159   162    1
   130   159   160    1
   131   165   163   ar
   132    50    49    1
   133    50    53    1
   134   163   164   ar
   135   163   162    1
   136    25    26    1
   137    26    27    1
   138   166   160   am
   139   166   167    1
   140    43    42    2
   141    53    54    1
   142   160   161    2
   143    47    46   ar
   144   167   168    1
   145    56    54    1
   146   169   168    2
   147    42    41    1
   148    27    28    1
   149    45    46    1
   150    45    44    1
   151    54    55    1
   152   168   177   am
   153    46    48   ar
   154    41    44    1
   155    41    40    1
   156    32    31    2
   157   177   178    1
   158    40    31   am
   159    31    30    1
   160   178   179    1
   161   179   180    2
   162    30    29    1
   163    30    33    1
   164    34    33    1
   165    34    35    1
   166    35    36    1
   167    36    37    2
   168    37    38    1
   169    37    39    1
