@<TRIPOS>MOLECULE
tmp/3uvqA00.pdb
 208 195 0 0 0
SMALL
GASTEIGER

@<TRIPOS>ATOM
      1  N         -8.0060   -0.7540  -28.0620 N.3    26  VAL26      -0.1245
      2  CA        -6.6000   -0.4450  -28.3220 C.3    26  VAL26       0.1561
      3  C         -5.8300   -1.7570  -28.5000 C.2    26  VAL26       0.2260
      4  O         -4.9170   -1.8540  -29.3230 O.2    26  VAL26      -0.2867
      5  CB        -5.9300    0.5220  -27.2660 C.3    26  VAL26       0.0252
      6  CG1       -6.9650    1.2250  -26.3930 C.3    26  VAL26       0.0019
      7  CG2       -4.8770   -0.1770  -26.4060 C.3    26  VAL26       0.0019
      8  N         -3.7580  -11.0970  -19.7720 N.3    31  TYR31      -0.1241
      9  CA        -4.8540  -11.2220  -18.8020 C.3    31  TYR31       0.1605
     10  C         -5.9430  -10.1290  -18.8750 C.2    31  TYR31       0.2264
     11  O         -6.5230   -9.7490  -17.8530 O.2    31  TYR31      -0.2867
     12  CB        -4.2800  -11.3680  -17.3880 C.3    31  TYR31       0.0534
     13  CG        -3.0660  -10.5000  -17.0790 C.ar   31  TYR31      -0.0201
     14  CD1       -3.1990   -9.1340  -16.8010 C.ar   31  TYR31      -0.0009
     15  CD2       -1.7660  -11.0280  -16.9890 C.ar   31  TYR31      -0.0009
     16  CE1       -2.0910   -8.3380  -16.4990 C.ar   31  TYR31       0.0417
     17  CE2       -0.6840  -10.1780  -16.7090 C.ar   31  TYR31       0.0417
     18  CZ        -0.8380   -8.8190  -16.4470 C.ar   31  TYR31       0.1957
     19  OH         0.3010   -8.1010  -16.1940 O.3    31  TYR31      -0.2866
     20  N         -7.8590   -3.9320  -23.4340 N.3    34  VAL34      -0.1245
     21  CA        -7.9040   -2.5180  -23.0640 C.3    34  VAL34       0.1561
     22  C         -8.5980   -1.7030  -24.1510 C.2    34  VAL34       0.2260
     23  O         -8.3090   -1.8690  -25.3430 O.2    34  VAL34      -0.2867
     24  CB        -6.4990   -1.9460  -22.8270 C.3    34  VAL34       0.0252
     25  CG1       -6.5840   -0.4550  -22.5140 C.3    34  VAL34       0.0019
     26  CG2       -5.7900   -2.6960  -21.6930 C.3    34  VAL34       0.0019
     27  N         -9.9000    2.3460  -25.3060 N.3    36  ALA36      -0.1245
     28  CA        -9.8300    3.7990  -25.1880 C.3    36  ALA36       0.1562
     29  C        -11.2590    4.3240  -25.0000 C.2    36  ALA36       0.2260
     30  O        -12.1680    3.9240  -25.7220 O.2    36  ALA36      -0.2867
     31  CB        -9.2010    4.3830  -26.4500 C.3    36  ALA36       0.0290
     32  N         -9.3730   11.5310  -22.0130 N.3    45  ARG45      -0.1245
     33  CA        -9.2830   10.1900  -22.5400 C.3    45  ARG45       0.1563
     34  C         -8.6880    9.2460  -21.4680 C.2    45  ARG45       0.2260
     35  O         -7.6860    9.5740  -20.8090 O.2    45  ARG45      -0.2867
     36  CB        -8.4100   10.1530  -23.8050 C.3    45  ARG45       0.0307
     37  CG        -8.8110   11.0840  -24.9220 C.3    45  ARG45       0.0489
     38  CD        -8.7390   10.3460  -26.2540 C.3    45  ARG45       0.2205
     39  NE        -9.8690    9.4160  -26.3490 N.pl3  45  ARG45      -0.0865
     40  CZ        -9.9980    8.4290  -27.2360 C.cat  45  ARG45       0.5346
     41  NH1       -9.0590    8.1880  -28.1540 N.pl3  45  ARG45       0.1354
     42  NH2      -11.0860    7.6740  -27.1940 N.pl3  45  ARG45       0.1354
     43  N         -7.9140    4.9120  -20.2100 N.3    47  ALA47      -0.1245
     44  CA        -7.7690    3.5160  -20.6070 C.3    47  ALA47       0.1562
     45  C         -8.6430    2.6740  -19.6930 C.2    47  ALA47       0.2260
     46  O         -8.5220    2.7560  -18.4750 O.2    47  ALA47      -0.2867
     47  CB        -6.2960    3.0680  -20.5380 C.3    47  ALA47       0.0290
     48  N         -9.5180   -1.1630  -18.7590 N.3    49  LYS49      -0.1245
     49  CA        -9.1670   -2.5810  -18.8330 C.3    49  LYS49       0.1561
     50  C        -10.2070   -3.4530  -18.1630 C.2    49  LYS49       0.2260
     51  O        -10.4970   -3.3090  -16.9750 O.2    49  LYS49      -0.2867
     52  CB        -7.8070   -2.8540  -18.1750 C.3    49  LYS49       0.0271
     53  CG        -7.3070   -4.3090  -18.3400 C.3    49  LYS49       0.0035
     54  CD        -6.0200   -4.4560  -17.5970 C.3    49  LYS49       0.0206
     55  CE        -5.6860   -5.8950  -17.3180 C.3    49  LYS49       0.1093
     56  NZ        -4.2440   -5.9800  -16.9000 N.3    49  LYS49      -0.1314
     57  N         -3.9550   -9.0410   -6.6560 N.3    66  ARG66      -0.1231
     58  CA        -2.6270   -8.4520   -6.7150 C.3    66  ARG66       0.1694
     59  C         -2.5770   -7.1920   -7.5750 C.2    66  ARG66       0.2591
     60  O         -2.0300   -6.1970   -7.1250 O.2    66  ARG66      -0.2718
     61  CB        -1.5810   -9.4580   -7.2080 C.3    66  ARG66       0.0321
     62  CG        -0.1900   -8.8420   -7.5280 C.3    66  ARG66       0.0489
     63  CD         0.7470   -9.9020   -8.2370 C.3    66  ARG66       0.2205
     64  NE         0.8370  -11.0790   -7.3880 N.pl3  66  ARG66      -0.0865
     65  CZ         0.6310  -12.3390   -7.7840 C.cat  66  ARG66       0.5346
     66  NH1        0.3660  -12.6140   -9.0540 N.pl3  66  ARG66       0.1354
     67  NH2        0.7190  -13.3340   -6.8850 N.pl3  66  ARG66       0.1354
     68  N         -3.0830   -7.2630   -8.8100 N.am   67  GLU67      -0.1979
     69  CA        -3.1780   -6.0990   -9.7060 C.3    67  GLU67       0.1602
     70  C         -3.9740   -4.9230   -9.0810 C.2    67  GLU67       0.2287
     71  O         -3.5250   -3.7570   -9.1150 O.2    67  GLU67      -0.2864
     72  CB        -3.8360   -6.5030  -11.0410 C.3    67  GLU67       0.0415
     73  CG        -4.0540   -5.3210  -11.9810 C.3    67  GLU67       0.1163
     74  CD        -4.3540   -5.7200  -13.4310 C.2    67  GLU67       0.3649
     75  OE1       -4.3160   -4.8320  -14.3110 O.co2  67  GLU67      -0.2457
     76  OE2       -4.6480   -6.9190  -13.6880 O.co2  67  GLU67      -0.2457
     77  N         -1.8120   -3.3820   -6.1100 N.3    70  LEU70      -0.1231
     78  CA        -0.6930   -2.6460   -6.7210 C.3    70  LEU70       0.1693
     79  C         -1.1360   -1.2940   -7.2600 C.2    70  LEU70       0.2591
     80  O         -0.5740   -0.2640   -6.9010 O.2    70  LEU70      -0.2718
     81  CB        -0.0670   -3.4440   -7.8790 C.3    70  LEU70       0.0284
     82  CG         1.2440   -4.2440   -7.7600 C.3    70  LEU70       0.0019
     83  CD1        1.9350   -4.1470   -6.4630 C.3    70  LEU70       0.0001
     84  CD2        1.2200   -5.7150   -8.2710 C.3    70  LEU70       0.0001
     85  N         -2.1520   -1.3380   -8.1200 N.am   71  LEU71      -0.1980
     86  CA        -2.7280   -0.1670   -8.7400 C.3    71  LEU71       0.1596
     87  C         -3.2880    0.8680   -7.7850 C.2    71  LEU71       0.2287
     88  O         -3.1490    2.0400   -8.0810 O.2    71  LEU71      -0.2864
     89  CB        -3.7670   -0.5640   -9.7740 C.3    71  LEU71       0.0297
     90  CG        -3.1230   -1.0630  -11.0640 C.3    71  LEU71       0.0022
     91  CD1       -4.1620   -1.7810  -11.9120 C.3    71  LEU71       0.0001
     92  CD2       -2.5140    0.0890  -11.8300 C.3    71  LEU71       0.0001
     93  N          1.9050    3.9710  -13.7610 N.3    80  ILE80      -0.1245
     94  CA         0.4560    3.8300  -13.9660 C.3    80  ILE80       0.1561
     95  C         -0.3250    3.9630  -12.6640 C.2    80  ILE80       0.2260
     96  O          0.0440    3.3840  -11.6460 O.2    80  ILE80      -0.2867
     97  CB         0.0850    2.5010  -14.7330 C.3    80  ILE80       0.0252
     98  CG1       -1.3540    2.5720  -15.2230 C.3    80  ILE80       0.0019
     99  CG2        0.4670    1.1780  -13.9260 C.3    80  ILE80       0.0019
    100  CD1       -1.8840    1.2820  -15.7400 C.3    80  ILE80       0.0001
    101  N        -10.6790   -1.7700  -14.9130 N.3   100  LEU100     -0.1245
    102  CA        -9.7930   -0.7920  -14.3120 C.3   100  LEU100      0.1561
    103  C         -9.5990    0.3610  -15.2830 C.2   100  LEU100      0.2260
    104  O         -9.4080    0.1330  -16.4800 O.2   100  LEU100     -0.2867
    105  CB        -8.4380   -1.4450  -13.9510 C.3   100  LEU100      0.0270
    106  CG        -8.5010   -2.7700  -13.1640 C.3   100  LEU100      0.0019
    107  CD1       -7.2230   -3.4940  -13.2750 C.3   100  LEU100      0.0001
    108  CD2       -8.8650   -2.6070  -11.7030 C.3   100  LEU100      0.0001
    109  N         -7.4370    3.8880  -16.1540 N.3   102  THR102     -0.1203
    110  CA        -6.2360    4.7190  -15.9620 C.3   102  THR102      0.1994
    111  C         -6.1620    5.8230  -17.0420 C.2   102  THR102      0.2618
    112  O         -6.9790    5.8350  -17.9540 O.2   102  THR102     -0.2717
    113  CB        -4.9580    3.8500  -16.0660 C.3   102  THR102      0.1784
    114  OG1       -4.8940    3.2770  -17.3800 O.3   102  THR102     -0.2211
    115  CG2       -5.0000    2.6940  -15.0200 C.3   102  THR102      0.0376
    116  N         -5.1710    6.7230  -16.9480 N.am  103  HIS103     -0.1961
    117  CA        -4.9370    7.7450  -17.9680 C.3   103  HIS103      0.1787
    118  C         -4.6660    7.0590  -19.2990 C.2   103  HIS103      0.2620
    119  O         -4.0680    5.9840  -19.3250 O.2   103  HIS103     -0.2715
    120  CB        -3.7390    8.6160  -17.5690 C.3   103  HIS103      0.0785
    121  CG        -3.9860    9.4810  -16.3710 C.ar  103  HIS103      0.0821
    122  ND1       -4.5360   10.7410  -16.4630 N.ar  103  HIS103     -0.2267
    123  CD2       -3.7580    9.2680  -15.0510 C.ar  103  HIS103      0.1154
    124  CE1       -4.6290   11.2670  -15.2540 C.ar  103  HIS103      0.1986
    125  NE2       -4.1680   10.3920  -14.3790 N.ar  103  HIS103     -0.2212
    126  N         -5.1040    7.6420  -20.4060 N.am  104  LEU104     -0.1963
    127  CA        -4.7550    7.0420  -21.6850 C.3   104  LEU104      0.1728
    128  C         -3.4710    7.6890  -22.1800 C.2   104  LEU104      0.2616
    129  O         -3.3690    8.8880  -22.2520 O.2   104  LEU104     -0.2715
    130  CB        -5.8720    7.1530  -22.7230 C.3   104  LEU104      0.0311
    131  CG        -5.5630    6.4840  -24.0640 C.3   104  LEU104      0.0022
    132  CD1       -5.9510    5.0070  -24.1120 C.3   104  LEU104      0.0001
    133  CD2       -6.2420    7.2570  -25.1820 C.3   104  LEU104      0.0001
    134  N         -2.4700    6.8910  -22.4950 N.am  105  MET105     -0.1963
    135  CA        -1.2000    7.4810  -22.8640 C.3   105  MET105      0.1736
    136  C         -1.1000    7.6950  -24.3690 C.2   105  MET105      0.2617
    137  O         -0.6870    8.7530  -24.8240 O.2   105  MET105     -0.2715
    138  CB        -0.0690    6.6210  -22.3510 C.3   105  MET105      0.0427
    139  CG         0.9030    7.4020  -21.5620 C.3   105  MET105      0.0599
    140  SD         0.2000    8.1330  -20.1030 S.3   105  MET105     -0.1393
    141  CE         1.4880    9.3260  -19.7440 C.3   105  MET105      0.0692
    142  N         -1.4840    6.6880  -25.1400 N.am  106  GLY106     -0.1940
    143  CA        -1.5550    6.8610  -26.5880 C.3   106  GLY106      0.2014
    144  C         -0.5790    6.0070  -27.3570 C.2   106  GLY106      0.2639
    145  O         -0.7650    5.7970  -28.5600 O.2   106  GLY106     -0.2714
    146  N          0.4480    5.5000  -26.6620 N.am  107  ALA107     -0.1963
    147  CA         1.4510    4.6200  -27.2480 C.3   107  ALA107      0.1728
    148  C          2.2870    3.9100  -26.1610 C.2   107  ALA107      0.2616
    149  O          2.2640    4.2870  -24.9970 O.2   107  ALA107     -0.2715
    150  CB         2.3740    5.4090  -28.1900 C.3   107  ALA107      0.0334
    151  N          3.0190    2.8870  -26.5730 N.am  108  ASP108     -0.1971
    152  CA         4.0800    2.3290  -25.7630 C.3   108  ASP108      0.1709
    153  C          5.4010    2.5740  -26.4650 C.2   108  ASP108      0.2293
    154  O          5.4150    2.8430  -27.6660 O.2   108  ASP108     -0.2864
    155  CB         3.8430    0.8500  -25.4490 C.3   108  ASP108      0.1436
    156  CG         3.8850   -0.0460  -26.6720 C.2   108  ASP108      0.3671
    157  OD1        3.1090   -1.0200  -26.7000 O.co2 108  ASP108     -0.2456
    158  OD2        4.6920    0.1870  -27.6000 O.co2 108  ASP108     -0.2456
    159  N          6.3260    1.6070  -29.8680 N.3   111  ASN111     -0.1240
    160  CA         5.6620    2.3940  -30.9020 C.3   111  ASN111      0.1653
    161  C          6.3800    3.6920  -31.2620 C.2   111  ASN111      0.2266
    162  O          6.1730    4.2410  -32.3550 O.2   111  ASN111     -0.2867
    163  CB         4.2470    2.7890  -30.4400 C.3   111  ASN111      0.1155
    164  CG         3.3120    1.6090  -30.2770 C.2   111  ASN111      0.2627
    165  OD1        3.5990    0.4900  -30.7250 O.2   111  ASN111     -0.2716
    166  ND2        2.1670    1.8590  -29.6390 N.am  111  ASN111     -0.0877
    167  N          7.1820   -2.6170  -24.2570 N.3   147  SER147     -0.1217
    168  CA         5.7350   -2.7730  -24.3130 C.3   147  SER147      0.1889
    169  C          5.0650   -2.5110  -22.9590 C.2   147  SER147      0.2288
    170  O          3.8770   -2.2680  -22.8800 O.2   147  SER147     -0.2866
    171  CB         5.4070   -4.1590  -24.8420 C.3   147  SER147      0.2089
    172  OG         5.8590   -5.1750  -23.9530 O.3   147  SER147     -0.2183
    173  N          4.3240    3.0580  -21.1900 N.3   150  ALA150     -0.1245
    174  CA         3.3370    3.9060  -21.8530 C.3   150  ALA150      0.1562
    175  C          3.8880    5.3340  -21.9640 C.2   150  ALA150      0.2260
    176  O          4.3660    5.9140  -20.9600 O.2   150  ALA150     -0.2867
    177  CB         2.0110    3.9000  -21.0890 C.3   150  ALA150      0.0290
    178  N          4.0750    0.4540  -16.7520 N.3   160  LEU160     -0.1231
    179  CA         2.9550   -0.4760  -16.5700 C.3   160  LEU160      0.1693
    180  C          3.3930   -1.8480  -16.0900 C.2   160  LEU160      0.2592
    181  O          4.5610   -2.2100  -16.2310 O.2   160  LEU160     -0.2718
    182  CB         2.2810   -0.7420  -17.9350 C.3   160  LEU160      0.0284
    183  CG         1.8960    0.3380  -18.9350 C.3   160  LEU160      0.0019
    184  CD1        1.4440   -0.3900  -20.2240 C.3   160  LEU160      0.0001
    185  CD2        0.7830    1.1320  -18.3460 C.3   160  LEU160      0.0001
    186  N          2.3900   -2.6140  -15.6170 N.am  161  ASP161     -0.1960
    187  CA         2.4110   -4.0820  -15.3340 C.3   161  ASP161      0.1840
    188  C          3.4260   -4.6090  -14.3160 C.2   161  ASP161      0.2622
    189  O          3.9350   -5.7340  -14.4500 O.2   161  ASP161     -0.2715
    190  CB         2.4450   -4.9050  -16.6250 C.3   161  ASP161      0.1450
    191  CG         1.2090   -4.6910  -17.4960 C.2   161  ASP161      0.3671
    192  OD1        0.1990   -4.1910  -16.9810 O.co2 161  ASP161     -0.2456
    193  OD2        1.2320   -5.0280  -18.7070 O.co2 161  ASP161     -0.2456
    194  N          3.6380   -3.8060  -13.2810 N.am  162  PHE162     -0.1960
    195  CA         4.8080   -3.8540  -12.3600 C.3   162  PHE162      0.1771
    196  C          4.7260   -4.4810  -10.9660 C.2   162  PHE162      0.2620
    197  O          4.8190   -3.7530  -10.0090 O.2   162  PHE162     -0.2715
    198  CB         5.2020   -2.3950  -12.0430 C.3   162  PHE162      0.0574
    199  CG         4.0860   -1.6280  -11.4510 C.ar  162  PHE162     -0.0200
    200  CD1        3.3720   -0.7360  -12.2190 C.ar  162  PHE162     -0.0042
    201  CD2        3.6870   -1.8650  -10.1360 C.ar  162  PHE162     -0.0042
    202  CE1        2.3260   -0.0830  -11.7010 C.ar  162  PHE162     -0.0003
    203  CE2        2.6200   -1.2010   -9.5970 C.ar  162  PHE162     -0.0003
    204  CZ         1.9240   -0.2920  -10.4070 C.ar  162  PHE162     -0.0000
    205  N          4.6370   -5.7830  -10.7930 N.am  163  GLY163     -0.1954
    206  CA         4.9350   -6.3100   -9.4610 C.3   163  GLY163      0.1869
    207  C          4.4090   -7.7100   -9.3120 C.2   163  GLY163      0.2309
    208  O          3.5910   -8.1290  -10.1330 O.2   163  GLY163     -0.2863
@<TRIPOS>BOND
     1   162   161    2
     2   161   160    1
     3   160   163    1
     4   160   159    1
     5   165   164    2
     6   163   164    1
     7   164   166   am
     8     4     3    2
     9   145   144    2
    10     3     2    1
    11     2     1    1
    12     2     5    1
    13   150   147    1
    14    41    40    1
    15   154   153    2
    16   158   156   ar
    17   144   146   am
    18   144   143    1
    19     5     7    1
    20     5     6    1
    21   147   146    1
    22   147   148    1
    23    40    42    1
    24    40    39    2
    25   157   156   ar
    26   156   155    1
    27   143   142    1
    28   151   148   am
    29   151   152    1
    30   153   152    1
    31    31    28    1
    32    39    38    1
    33    38    37    1
    34   148   149    2
    35   152   155    1
    36    30    29    2
    37    23    22    2
    38    27    28    1
    39    28    29    1
    40   133   131    1
    41   142   136   am
    42    37    36    1
    43   171   168    1
    44   171   172    1
    45   137   136    2
    46   136   135    1
    47   168   167    1
    48   168   169    1
    49    22    21    1
    50   132   131    1
    51   131   130    1
    52    36    33    1
    53    20    21    1
    54    21    24    1
    55   169   170    2
    56   135   134    1
    57   135   138    1
    58    24    25    1
    59    24    26    1
    60   130   127    1
    61    33    32    1
    62    33    34    1
    63   134   128   am
    64   138   139    1
    65   129   128    2
    66   128   127    1
    67   175   174    1
    68   175   176    2
    69   174   173    1
    70   174   177    1
    71   127   126    1
    72   139   140    1
    73    34    35    2
    74    44    47    1
    75    44    43    1
    76    44    45    1
    77   126   118   am
    78   184   183    1
    79   140   141    1
    80     8     9    1
    81    45    46    2
    82   119   118    2
    83   118   117    1
    84   183   185    1
    85   183   182    1
    86    10     9    1
    87    10    11    2
    88    49    48    1
    89    49    52    1
    90    49    50    1
    91     9    12    1
    92   193   191   ar
    93    53    52    1
    94    53    54    1
    95    50    51    2
    96   117   120    1
    97   117   116    1
    98   112   111    2
    99   182   179    1
   100    54    55    1
   101   120   121    1
   102   191   192   ar
   103   191   190    1
   104    12    13    1
   105   114   113    1
   106    55    56    1
   107    13    15   ar
   108    13    14   ar
   109   111   116   am
   110   111   110    1
   111    15    17   ar
   112    14    16   ar
   113   178   179    1
   114    17    18   ar
   115   190   187    1
   116   179   180    1
   117    16    18   ar
   118   104   103    2
   119   122   121   ar
   120   122   124   ar
   121    18    19    1
   122   121   123   ar
   123   181   180    2
   124   109   110    1
   125   180   186   am
   126   113   110    1
   127   113   115    1
   128   100    98    1
   129   186   187    1
   130   187   188    1
   131   103   102    1
   132   124   125   ar
   133    98    97    1
   134   123   125   ar
   135   101   102    1
   136    97    94    1
   137    97    99    1
   138   189   188    2
   139   188   194   am
   140   102   105    1
   141    75    74   ar
   142    94    93    1
   143    94    95    1
   144   105   106    1
   145    76    74   ar
   146    74    73    1
   147   194   195    1
   148   107   106    1
   149   106   108    1
   150    95    96    2
   151   195   198    1
   152   195   196    1
   153   200   202   ar
   154   200   199   ar
   155   198   199    1
   156    73    72    1
   157    91    90    1
   158    92    90    1
   159   202   204   ar
   160   199   201   ar
   161    90    89    1
   162    72    69    1
   163   196   205   am
   164   196   197    2
   165   205   206    1
   166   204   203   ar
   167   201   203   ar
   168   208   207    2
   169    89    86    1
   170    69    70    1
   171    69    68    1
   172   206   207    1
   173    71    70    2
   174    66    65    1
   175    68    59   am
   176    86    85    1
   177    86    87    1
   178    84    82    1
   179    63    62    1
   180    63    64    1
   181    85    79   am
   182    88    87    2
   183    81    82    1
   184    81    78    1
   185    65    64    2
   186    65    67    1
   187    82    83    1
   188    59    60    2
   189    59    58    1
   190    62    61    1
   191    79    80    2
   192    79    78    1
   193    61    58    1
   194    78    77    1
   195    58    57    1
