@<TRIPOS>MOLECULE
tmp/3uvvA00.pdb
 216 203 0 0 0
SMALL
GASTEIGER

@<TRIPOS>ATOM
      1  N        -21.4420  -15.6710   28.5840 N.3    31  ASN31      -0.1225
      2  CA       -22.6820  -15.1820   27.9700 C.3    31  ASN31       0.1785
      3  C        -23.2070  -13.8580   28.5610 C.2    31  ASN31       0.2597
      4  O        -24.4210  -13.6400   28.6210 O.2    31  ASN31      -0.2718
      5  CB       -23.7680  -16.2850   27.9530 C.3    31  ASN31       0.1169
      6  CG       -24.8360  -16.1400   26.8840 C.2    31  ASN31       0.2627
      7  OD1      -24.7790  -15.2700   26.0000 O.2    31  ASN31      -0.2716
      8  ND2      -25.8420  -17.0010   26.9410 N.am   31  ASN31      -0.0877
      9  N        -22.2910  -12.9540   28.9490 N.am   32  ALA32      -0.1979
     10  CA       -22.5920  -11.6320   29.5200 C.3    32  ALA32       0.1597
     11  C        -23.7570  -11.6550   30.5400 C.2    32  ALA32       0.2287
     12  O        -23.5450  -12.1160   31.6710 O.2    32  ALA32      -0.2864
     13  CB       -22.8300  -10.6070   28.4110 C.3    32  ALA32       0.0319
     14  N        -23.7890    3.3030   14.7920 N.3    58  PHE58      -0.1241
     15  CA       -22.4780    2.6600   14.6710 C.3    58  PHE58       0.1605
     16  C        -21.6750    2.8590   15.9370 C.2    58  PHE58       0.2264
     17  O        -20.9210    1.9580   16.3130 O.2    58  PHE58      -0.2867
     18  CB       -21.6990    3.2240   13.4670 C.3    58  PHE58       0.0534
     19  CG       -20.2670    2.7480   13.3060 C.ar   58  PHE58      -0.0203
     20  CD1      -19.2150    3.4410   13.8950 C.ar   58  PHE58      -0.0042
     21  CD2      -19.9670    1.6340   12.5280 C.ar   58  PHE58      -0.0042
     22  CE1      -17.8930    3.0050   13.7420 C.ar   58  PHE58      -0.0003
     23  CE2      -18.6400    1.2040   12.3670 C.ar   58  PHE58      -0.0003
     24  CZ       -17.6160    1.8930   12.9750 C.ar   58  PHE58      -0.0000
     25  N        -22.6580    0.5260   18.8440 N.3    61  PHE61      -0.1227
     26  CA       -22.1390   -0.8040   18.5510 C.3    61  PHE61       0.1736
     27  C        -20.6640   -0.8500   18.9380 C.2    61  PHE61       0.2596
     28  O        -20.2910   -1.6620   19.7780 O.2    61  PHE61      -0.2718
     29  CB       -22.3230   -1.1620   17.0600 C.3    61  PHE61       0.0547
     30  CG       -23.7250   -1.2090   16.4900 C.ar   61  PHE61      -0.0202
     31  CD1      -23.9320   -1.2370   15.1170 C.ar   61  PHE61      -0.0042
     32  CD2      -24.8350   -1.2640   17.3240 C.ar   61  PHE61      -0.0042
     33  CE1      -25.2210   -1.3000   14.5900 C.ar   61  PHE61      -0.0003
     34  CE2      -26.1230   -1.3150   16.7980 C.ar   61  PHE61      -0.0003
     35  CZ       -26.3080   -1.3220   15.4350 C.ar   61  PHE61      -0.0000
     36  N        -19.8390    0.0670   18.3890 N.am   62  THR62      -0.1953
     37  CA       -18.3930    0.1440   18.6850 C.3    62  THR62       0.1897
     38  C        -18.0490    0.2170   20.1870 C.2    62  THR62       0.2313
     39  O        -16.9650   -0.2320   20.6100 O.2    62  THR62      -0.2863
     40  CB       -17.6680    1.1700   17.8030 C.3    62  THR62       0.1794
     41  OG1      -18.3940    2.4100   17.7840 O.3    62  THR62      -0.2208
     42  CG2      -17.4300    0.6450   16.3960 C.3    62  THR62       0.0378
     43  N        -19.9700   -1.3080   22.8430 N.3    64  ILE64      -0.1231
     44  CA       -20.2070   -2.6650   23.3310 C.3    64  ILE64       0.1692
     45  C        -19.4190   -3.8060   22.6550 C.2    64  ILE64       0.2591
     46  O        -19.3300   -4.8910   23.2270 O.2    64  ILE64      -0.2718
     47  CB       -21.7350   -2.9310   23.3650 C.3    64  ILE64       0.0266
     48  CG1      -22.3220   -3.0810   21.9630 C.3    64  ILE64       0.0019
     49  CG2      -22.4770   -1.8410   24.1410 C.3    64  ILE64       0.0020
     50  CD1      -22.8230   -4.4210   21.6900 C.3    64  ILE64       0.0001
     51  N        -18.8970   -3.5870   21.4420 N.am   65  ILE65      -0.1980
     52  CA       -18.1770   -4.6170   20.6870 C.3    65  ILE65       0.1595
     53  C        -16.8180   -4.9980   21.2770 C.2    65  ILE65       0.2287
     54  O        -16.3560   -6.1100   21.0340 O.2    65  ILE65      -0.2864
     55  CB       -18.1630   -4.3540   19.1450 C.3    65  ILE65       0.0276
     56  CG1      -17.9160   -5.6310   18.3300 C.3    65  ILE65       0.0022
     57  CG2      -17.1930   -3.2450   18.7430 C.3    65  ILE65       0.0022
     58  CD1      -19.0830   -6.2610   17.8880 C.3    65  ILE65       0.0001
     59  N        -17.5950   -7.7240   23.8830 N.3    68  ALA68      -0.1245
     60  CA       -18.1740   -8.8380   23.1210 C.3    68  ALA68       0.1562
     61  C        -17.1120   -9.7790   22.5170 C.2    68  ALA68       0.2260
     62  O        -17.1430  -10.9890   22.7800 O.2    68  ALA68      -0.2867
     63  CB       -19.1330   -8.3240   22.0520 C.3    68  ALA68       0.0290
     64  N        -15.2780  -11.7150   25.3790 N.3    71  ARG71      -0.1231
     65  CA       -16.0330  -12.8720   25.8500 C.3    71  ARG71       0.1694
     66  C        -15.7640  -14.0630   24.8590 C.2    71  ARG71       0.2591
     67  O        -15.2030  -15.0760   25.2720 O.2    71  ARG71      -0.2718
     68  CB       -17.5330  -12.5350   25.9750 C.3    71  ARG71       0.0321
     69  CG       -17.8360  -11.4080   26.9470 C.3    71  ARG71       0.0489
     70  CD       -19.3150  -11.1030   27.0150 C.3    71  ARG71       0.2205
     71  NE       -19.5340   -9.6600   27.0770 N.pl3  71  ARG71      -0.0865
     72  CZ       -20.2340   -8.9690   26.1840 C.cat  71  ARG71       0.5346
     73  NH1      -20.8400   -9.5910   25.1770 N.pl3  71  ARG71       0.1354
     74  NH2      -20.3500   -7.6510   26.3000 N.pl3  71  ARG71       0.1354
     75  N        -16.0220  -13.8920   23.5480 N.am   72  VAL72      -0.1980
     76  CA       -15.7180  -14.9300   22.5400 C.3    72  VAL72       0.1595
     77  C        -14.2670  -15.4730   22.6940 C.2    72  VAL72       0.2287
     78  O        -14.0000  -16.6210   22.3350 O.2    72  VAL72      -0.2864
     79  CB       -16.0290  -14.4430   21.0980 C.3    72  VAL72       0.0276
     80  CG1      -15.8420  -15.5560   20.0750 C.3    72  VAL72       0.0022
     81  CG2      -17.4370  -13.8790   21.0140 C.3    72  VAL72       0.0022
     82  N        -16.9820  -13.7470   14.5770 N.3    99  MET99      -0.1245
     83  CA       -18.2560  -13.2130   14.1060 C.3    99  MET99       0.1570
     84  C        -19.3960  -14.2520   14.1120 C.2    99  MET99       0.2261
     85  O        -20.5210  -13.8940   14.4680 O.2    99  MET99      -0.2867
     86  CB       -18.0860  -12.4890   12.7630 C.3    99  MET99       0.0387
     87  CG       -19.3460  -11.7570   12.2870 C.3    99  MET99       0.0595
     88  SD       -20.0040  -10.4470   13.3720 S.3    99  MET99      -0.1393
     89  CE       -21.6470  -10.3230   12.7440 C.3    99  MET99       0.0692
     90  N        -20.4560  -14.5480   17.6870 N.3   102  MET102     -0.1230
     91  CA       -21.1260  -13.2900   18.0300 C.3   102  MET102      0.1702
     92  C        -22.5630  -13.2060   17.4510 C.2   102  MET102      0.2593
     93  O        -23.4940  -12.8500   18.1850 O.2   102  MET102     -0.2718
     94  CB       -20.2870  -12.0950   17.5990 C.3   102  MET102      0.0401
     95  CG       -18.9740  -11.9750   18.3370 C.3   102  MET102      0.0596
     96  SD       -18.4450  -10.2450   18.4240 S.3   102  MET102     -0.1393
     97  CE       -17.8230   -9.9680   16.6820 C.3   102  MET102      0.0692
     98  N        -22.7360  -13.5740   16.1470 N.am  103  SER103     -0.1952
     99  CA       -24.0230  -13.6480   15.4410 C.3   103  SER103      0.1924
    100  C        -24.9240  -14.6870   16.1170 C.2   103  SER103      0.2314
    101  O        -26.0900  -14.4010   16.3720 O.2   103  SER103     -0.2863
    102  CB       -23.8070  -14.0610   13.9950 C.3   103  SER103      0.2116
    103  OG       -22.8600  -13.1900   13.4100 O.3   103  SER103     -0.2180
    104  N        -24.6290  -15.7790   19.2060 N.3   105  ARG105     -0.1231
    105  CA       -24.9280  -15.2220   20.5060 C.3   105  ARG105      0.1694
    106  C        -26.0190  -14.1570   20.3810 C.2   105  ARG105      0.2591
    107  O        -26.9190  -14.1030   21.2130 O.2   105  ARG105     -0.2718
    108  CB       -23.6650  -14.6810   21.1700 C.3   105  ARG105      0.0321
    109  CG       -22.8960  -15.7330   21.9580 C.3   105  ARG105      0.0489
    110  CD       -22.1750  -15.0750   23.1200 C.3   105  ARG105      0.2205
    111  NE       -21.6960  -16.0560   24.0910 N.pl3 105  ARG105     -0.0865
    112  CZ       -20.4320  -16.4510   24.2020 C.cat 105  ARG105      0.5346
    113  NH1      -19.4950  -15.9280   23.4220 N.pl3 105  ARG105      0.1354
    114  NH2      -20.0950  -17.3760   25.0950 N.pl3 105  ARG105      0.1354
    115  N        -25.9850  -13.3680   19.2960 N.am  106  ALA106     -0.1980
    116  CA       -26.9890  -12.3430   19.0400 C.3   106  ALA106      0.1597
    117  C        -28.3430  -12.9580   18.6240 C.2   106  ALA106      0.2287
    118  O        -29.3600  -12.5900   19.2060 O.2   106  ALA106     -0.2864
    119  CB       -26.4850  -11.3810   17.9880 C.3   106  ALA106      0.0319
    120  N        -30.9090  -14.5030   21.1960 N.3   109  ARG109     -0.1245
    121  CA       -31.5970  -13.5120   22.0150 C.3   109  ARG109      0.1563
    122  C        -32.6600  -12.7230   21.2000 C.2   109  ARG109      0.2260
    123  O        -32.9670  -11.5660   21.5030 O.2   109  ARG109     -0.2867
    124  CB       -30.5800  -12.5950   22.7250 C.3   109  ARG109      0.0307
    125  CG       -29.3660  -13.3190   23.3120 C.3   109  ARG109      0.0489
    126  CD       -29.6150  -14.0690   24.6140 C.3   109  ARG109      0.2205
    127  NE       -29.2700  -13.2780   25.8020 N.pl3 109  ARG109     -0.0865
    128  CZ       -28.0350  -13.1190   26.2780 C.cat 109  ARG109      0.5346
    129  NH1      -26.9980  -13.6640   25.6530 N.pl3 109  ARG109      0.1354
    130  NH2      -27.8270  -12.3950   27.3690 N.pl3 109  ARG109      0.1354
    131  N        -30.7510   -8.9090   20.9210 N.3   118  THR118     -0.1203
    132  CA       -30.1830   -8.2020   22.0610 C.3   118  THR118      0.1994
    133  C        -28.6720   -8.3000   22.0450 C.2   118  THR118      0.2618
    134  O        -28.1260   -9.3530   22.3860 O.2   118  THR118     -0.2717
    135  CB       -30.8690   -8.6510   23.3680 C.3   118  THR118      0.1784
    136  OG1      -32.2830   -8.4870   23.2380 O.3   118  THR118     -0.2211
    137  CG2      -30.3970   -7.8710   24.5750 C.3   118  THR118      0.0376
    138  N        -27.9950   -7.2170   21.6160 N.am  119  LEU119     -0.1965
    139  CA       -26.5230   -7.1800   21.5430 C.3   119  LEU119      0.1728
    140  C        -25.9170   -7.1980   22.9430 C.2   119  LEU119      0.2617
    141  O        -26.4140   -6.4790   23.8080 O.2   119  LEU119     -0.2715
    142  CB       -25.9980   -5.9400   20.7730 C.3   119  LEU119      0.0311
    143  CG       -26.3830   -5.6990   19.3150 C.3   119  LEU119      0.0022
    144  CD1      -25.5680   -4.5660   18.7480 C.3   119  LEU119      0.0001
    145  CD2      -26.1730   -6.9340   18.4620 C.3   119  LEU119      0.0001
    146  N        -24.8730   -8.0390   23.1770 N.am  120  SER120     -0.1936
    147  CA       -24.1620   -8.2070   24.4640 C.3   120  SER120      0.2055
    148  C        -25.0710   -8.4540   25.7110 C.2   120  SER120      0.2643
    149  O        -24.6100   -8.3150   26.8490 O.2   120  SER120     -0.2714
    150  CB       -23.2110   -7.0380   24.7040 C.3   120  SER120      0.2130
    151  OG       -22.0490   -7.1370   23.8990 O.3   120  SER120     -0.2179
    152  N        -26.3470   -8.8000   25.4720 N.am  121  GLY121     -0.1954
    153  CA       -27.3670   -9.0280   26.4950 C.3   121  GLY121      0.1869
    154  C        -27.9680   -7.7650   27.1020 C.2   121  GLY121      0.2309
    155  O        -28.9840   -7.8410   27.8080 O.2   121  GLY121     -0.2863
    156  N        -29.6840   -2.3810   13.1910 N.3   130  LEU130     -0.1245
    157  CA       -28.4170   -3.1090   13.0520 C.3   130  LEU130      0.1561
    158  C        -27.8120   -2.8980   11.6490 C.2   130  LEU130      0.2260
    159  O        -26.5910   -2.7320   11.5190 O.2   130  LEU130     -0.2867
    160  CB       -28.5930   -4.5940   13.4050 C.3   130  LEU130      0.0270
    161  CG       -27.3300   -5.4220   13.6050 C.3   130  LEU130      0.0019
    162  CD1      -26.5130   -4.9390   14.7950 C.3   130  LEU130      0.0001
    163  CD2      -27.6760   -6.8750   13.7840 C.3   130  LEU130      0.0001
    164  N        -26.4370    0.8440   11.0540 N.3   133  GLY133     -0.1210
    165  CA       -25.2740    1.0720   11.8980 C.3   133  GLY133      0.1956
    166  C        -23.9840    0.4440   11.4040 C.2   133  GLY133      0.2612
    167  O        -23.0130    0.3770   12.1610 O.2   133  GLY133     -0.2717
    168  N        -23.9690   -0.0370   10.1580 N.am  134  GLY134     -0.1942
    169  CA       -22.7720   -0.6430    9.5800 C.3   134  GLY134      0.2014
    170  C        -22.8820   -2.0640    9.0630 C.2   134  GLY134      0.2638
    171  O        -22.1330   -2.4230    8.1580 O.2   134  GLY134     -0.2714
    172  N        -23.7740   -2.9020    9.6420 N.am  135  LEU135     -0.1977
    173  CA       -23.9130   -4.3080    9.2180 C.3   135  LEU135      0.1596
    174  C        -24.6250   -4.5160    7.8860 C.2   135  LEU135      0.2287
    175  O        -24.4170   -5.5430    7.2460 O.2   135  LEU135     -0.2864
    176  CB       -24.4830   -5.2420   10.3210 C.3   135  LEU135      0.0297
    177  CG       -23.4990   -5.7850   11.3740 C.3   135  LEU135      0.0022
    178  CD1      -24.1870   -6.7500   12.2820 C.3   135  LEU135      0.0001
    179  CD2      -22.3270   -6.5060   10.7370 C.3   135  LEU135      0.0001
    180  N        -28.7510  -12.1800   10.2220 N.3   142  ILE142     -0.1245
    181  CA       -28.7250  -12.5350   11.6420 C.3   142  ILE142      0.1561
    182  C        -30.1540  -12.6460   12.1670 C.2   142  ILE142      0.2260
    183  O        -30.4930  -13.6520   12.7960 O.2   142  ILE142     -0.2867
    184  CB       -27.7780  -11.6480   12.5100 C.3   142  ILE142      0.0252
    185  CG1      -26.3580  -11.6460   11.9220 C.3   142  ILE142      0.0019
    186  CG2      -27.7240  -12.1550   13.9730 C.3   142  ILE142      0.0019
    187  CD1      -25.4750  -10.5260   12.3290 C.3   142  ILE142      0.0001
    188  N        -19.8010  -10.3500    6.6630 N.3   224  HIS224     -0.1241
    189  CA       -19.2810   -9.3800    7.6150 C.3   224  HIS224      0.1621
    190  C        -17.9380   -8.7960    7.1520 C.2   224  HIS224      0.2264
    191  O        -17.7740   -7.5890    7.2030 O.2   224  HIS224     -0.2867
    192  CB       -19.1400   -9.9790    9.0220 C.3   224  HIS224      0.0745
    193  CG       -18.5890   -8.9930   10.0050 C.ar  224  HIS224      0.0817
    194  ND1      -17.2750   -9.0600   10.4330 N.ar  224  HIS224     -0.2268
    195  CD2      -19.1670   -7.8830   10.5300 C.ar  224  HIS224      0.1154
    196  CE1      -17.1100   -8.0110   11.2320 C.ar  224  HIS224      0.1986
    197  NE2      -18.2190   -7.2780   11.3240 N.ar  224  HIS224     -0.2212
    198  N        -17.1030   -0.5260    5.3110 N.3   231  MET231     -0.1245
    199  CA       -17.1140    0.3730    6.4690 C.3   231  MET231      0.1570
    200  C        -15.8130    1.2070    6.4550 C.2   231  MET231      0.2261
    201  O        -15.8880    2.4340    6.5300 O.2   231  MET231     -0.2867
    202  CB       -17.2990   -0.3890    7.7970 C.3   231  MET231      0.0387
    203  CG       -18.7360   -0.7680    8.0790 C.3   231  MET231      0.0595
    204  SD       -19.0400   -1.5320    9.7130 S.3   231  MET231     -0.1393
    205  CE       -17.9020   -2.9450    9.6970 C.3   231  MET231      0.0692
    206  N        -11.3160   -4.8490   17.5900 N.3   244  PHE244     -0.1241
    207  CA       -12.1160   -5.0400   16.3730 C.3   244  PHE244      0.1605
    208  C        -11.2020   -5.0960   15.1520 C.2   244  PHE244      0.2264
    209  O        -11.3860   -5.9490   14.2890 O.2   244  PHE244     -0.2867
    210  CB       -13.1610   -3.9230   16.2290 C.3   244  PHE244      0.0534
    211  CG       -14.1000   -4.1060   15.0670 C.ar  244  PHE244     -0.0203
    212  CD1      -13.9240   -3.3910   13.8950 C.ar  244  PHE244     -0.0042
    213  CD2      -15.1610   -4.9950   15.1450 C.ar  244  PHE244     -0.0042
    214  CE1      -14.7910   -3.5600   12.8250 C.ar  244  PHE244     -0.0003
    215  CE2      -16.0270   -5.1640   14.0690 C.ar  244  PHE244     -0.0003
    216  CZ       -15.8300   -4.4500   12.9140 C.ar  244  PHE244     -0.0000
@<TRIPOS>BOND
     1   198   199    1
     2   200   199    1
     3   200   201    2
     4   199   202    1
     5   188   189    1
     6   190   191    2
     7   190   189    1
     8   175   174    2
     9   189   192    1
    10   202   203    1
    11   174   173    1
    12   203   204    1
    13   171   170    2
    14   192   193    1
    15   170   169    1
    16   170   172   am
    17   173   172    1
    18   173   176    1
    19   169   168    1
    20   205   204    1
    21   193   194   ar
    22   193   195   ar
    23   168   166   am
    24   180   181    1
    25   176   177    1
    26   194   196   ar
    27   195   197   ar
    28   179   177    1
    29   164   165    1
    30   196   197   ar
    31   177   178    1
    32   166   165    1
    33   166   167    2
    34   159   158    2
    35   181   182    1
    36   181   184    1
    37   158   157    1
    38   185   187    1
    39   185   184    1
    40   182   183    2
    41    87    86    1
    42    87    88    1
    43    23    21   ar
    44    23    24   ar
    45   184   186    1
    46    21    19   ar
    47    89    88    1
    48    86    83    1
    49   214   216   ar
    50   214   212   ar
    51   216   215   ar
    52    24    22   ar
    53   157   156    1
    54   157   160    1
    55    19    18    1
    56    19    20   ar
    57   160   161    1
    58   103   102    1
    59    18    15    1
    60   161   163    1
    61   161   162    1
    62    22    20   ar
    63   212   211   ar
    64   102    99    1
    65   215   213   ar
    66    83    84    1
    67    83    82    1
    68    84    85    2
    69   209   208    2
    70    33    31   ar
    71    33    35   ar
    72    15    14    1
    73    15    16    1
    74   211   213   ar
    75   211   210    1
    76    31    30   ar
    77   208   207    1
    78    35    34   ar
    79    99   100    1
    80    99    98    1
    81    16    17    2
    82   100   101    2
    83    98    92   am
    84   210   207    1
    85   207   206    1
    86    42    40    1
    87    30    29    1
    88    30    32   ar
    89    97    96    1
    90    34    32   ar
    91    29    26    1
    92    92    91    1
    93    92    93    2
    94    94    91    1
    95    94    95    1
    96    90    91    1
    97    41    40    1
    98    40    37    1
    99    58    56    1
   100   119   116    1
   101    56    55    1
   102    95    96    1
   103    36    37    1
   104    36    27   am
   105   145   143    1
   106    26    25    1
   107    26    27    1
   108   117   116    1
   109   117   118    2
   110    37    38    1
   111    57    55    1
   112   144   143    1
   113    27    28    2
   114   116   115    1
   115    55    52    1
   116   104   105    1
   117   115   106   am
   118   143   142    1
   119    80    79    1
   120    38    39    2
   121   106   105    1
   122   106   107    2
   123   105   108    1
   124    52    53    1
   125    52    51    1
   126   142   139    1
   127   131   132    1
   128    81    79    1
   129    54    53    2
   130    79    76    1
   131   108   109    1
   132   120   121    1
   133   122   123    2
   134   122   121    1
   135    51    45   am
   136   139   138    1
   137   139   140    1
   138   138   133   am
   139    50    48    1
   140   109   110    1
   141    48    47    1
   142   121   124    1
   143   133   132    1
   144   133   134    2
   145    63    60    1
   146   132   135    1
   147    78    77    2
   148    61    62    2
   149    61    60    1
   150    76    77    1
   151    76    75    1
   152    45    46    2
   153    45    44    1
   154   124   125    1
   155    43    44    1
   156   140   146   am
   157   140   141    2
   158   110   111    1
   159    60    59    1
   160   146   147    1
   161   136   135    1
   162   125   126    1
   163    44    47    1
   164    47    49    1
   165   135   137    1
   166   113   112    1
   167    75    66   am
   168   151   150    1
   169   111   112    2
   170   112   114    1
   171   147   150    1
   172   147   148    1
   173   126   127    1
   174    66    67    2
   175    66    65    1
   176    73    72    1
   177    64    65    1
   178   152   148   am
   179   152   153    1
   180   129   128    1
   181   148   149    2
   182   127   128    2
   183    65    68    1
   184    68    69    1
   185     7     6    2
   186    72    74    1
   187    72    71    2
   188   128   130    1
   189   153   154    1
   190     6     8   am
   191     6     5    1
   192    69    70    1
   193    70    71    1
   194   154   155    2
   195     5     2    1
   196     2     3    1
   197     2     1    1
   198    13    10    1
   199     3     4    2
   200     3     9   am
   201     9    10    1
   202    10    11    1
   203    11    12    2
