@<TRIPOS>MOLECULE
tmp/3uvwA00.pdb
 217 215 0 0 0
SMALL
GASTEIGER

@<TRIPOS>ATOM
      1  N         39.8150   22.6140   23.6490 N.3    37  GLN37      -0.1231
      2  CA        38.7220   22.5470   24.6040 C.3    37  GLN37       0.1698
      3  C         37.7510   23.7450   24.5090 C.2    37  GLN37       0.2592
      4  O         36.5590   23.6110   24.8150 O.2    37  GLN37      -0.2718
      5  CB        39.3560   22.4330   25.9960 C.3    37  GLN37       0.0381
      6  CG        38.5590   22.7980   27.1700 C.3    37  GLN37       0.0905
      7  CD        39.3740   22.7120   28.4670 C.2    37  GLN37       0.2608
      8  OE1       38.8420   22.3410   29.5090 O.2    37  GLN37      -0.2717
      9  NE2       40.6700   23.0580   28.4020 N.am   37  GLN37      -0.0878
     10  N         38.2430   24.8870   24.0460 N.am   38  PHE38      -0.1976
     11  CA        37.4510   26.0980   23.9490 C.3    38  PHE38       0.1639
     12  C         36.8770   26.3920   22.5510 C.2    38  PHE38       0.2290
     13  O         36.3190   27.4650   22.3280 O.2    38  PHE38      -0.2864
     14  CB        38.2790   27.3150   24.3820 C.3    38  PHE38       0.0560
     15  CG        38.6500   27.3640   25.8470 C.ar   38  PHE38      -0.0200
     16  CD1       38.0210   26.5770   26.8120 C.ar   38  PHE38      -0.0042
     17  CD2       39.6560   28.2490   26.2670 C.ar   38  PHE38      -0.0042
     18  CE1       38.3880   26.6570   28.1730 C.ar   38  PHE38      -0.0003
     19  CE2       40.0160   28.3250   27.5920 C.ar   38  PHE38      -0.0003
     20  CZ        39.3740   27.5260   28.5500 C.ar   38  PHE38      -0.0000
     21  N         34.2990   25.0490   20.8070 N.3    40  TRP40      -0.1228
     22  CA        32.9480   24.7720   20.4080 C.3    40  TRP40       0.1722
     23  C         32.0240   25.9930   20.1600 C.2    40  TRP40       0.2437
     24  O         31.1890   25.9230   19.2550 O.2    40  TRP40      -0.2733
     25  CB        32.2870   23.7620   21.3470 C.3    40  TRP40       0.0563
     26  CG        32.0000   24.2570   22.7260 C.ar   40  TRP40       0.0003
     27  CD1       32.7690   24.1040   23.8440 C.ar   40  TRP40       0.0946
     28  CD2       30.8570   25.0090   23.1170 C.ar   40  TRP40       0.0152
     29  NE1       32.1740   24.7070   24.9030 N.ar   40  TRP40      -0.2442
     30  CE2       30.9950   25.2840   24.4890 C.ar   40  TRP40       0.0810
     31  CE3       29.7440   25.4930   22.4400 C.ar   40  TRP40       0.0012
     32  CZ2       30.0440   26.0010   25.1950 C.ar   40  TRP40       0.0191
     33  CZ3       28.8120   26.2110   23.1460 C.ar   40  TRP40       0.0001
     34  CH2       28.9720   26.4680   24.5020 C.ar   40  TRP40       0.0015
     35  N         32.1910   27.1270   20.8880 N.am   41  PRO41      -0.2718
     36  CA        31.2830   28.2390   20.5710 C.3    41  PRO41       0.1535
     37  C         31.4930   28.8090   19.1920 C.2    41  PRO41       0.2598
     38  O         30.6450   29.5760   18.7170 O.2    41  PRO41      -0.2715
     39  CB        31.6330   29.3020   21.6270 C.3    41  PRO41       0.0310
     40  CG        32.1850   28.4700   22.7960 C.3    41  PRO41       0.0237
     41  CD        32.9920   27.4140   22.0930 C.3    41  PRO41       0.0939
     42  N         32.6350   28.4680   18.5990 N.am   42  PHE42      -0.1974
     43  CA        33.0990   28.9970   17.3370 C.3    42  PHE42       0.1639
     44  C         33.0450   27.9920   16.2190 C.2    42  PHE42       0.2290
     45  O         33.4930   28.2990   15.1300 O.2    42  PHE42      -0.2864
     46  CB        34.5110   29.5510   17.4810 C.3    42  PHE42       0.0560
     47  CG        34.6530   30.4730   18.6630 C.ar   42  PHE42      -0.0200
     48  CD1       34.2090   31.7800   18.5740 C.ar   42  PHE42      -0.0042
     49  CD2       35.1620   30.0220   19.8740 C.ar   42  PHE42      -0.0042
     50  CE1       34.3000   32.6410   19.6690 C.ar   42  PHE42      -0.0003
     51  CE2       35.2350   30.8710   20.9740 C.ar   42  PHE42      -0.0003
     52  CZ        34.8320   32.1720   20.8680 C.ar   42  PHE42      -0.0000
     53  N         26.4480   31.3360   14.6680 N.3    46  VAL46      -0.1245
     54  CA        25.5720   31.5870   15.7990 C.3    46  VAL46       0.1561
     55  C         24.1090   31.3770   15.4140 C.2    46  VAL46       0.2260
     56  O         23.5940   32.0440   14.5090 O.2    46  VAL46      -0.2867
     57  CB        25.7770   32.9890   16.3780 C.3    46  VAL46       0.0252
     58  CG1       24.7850   33.2770   17.5070 C.3    46  VAL46       0.0019
     59  CG2       27.2430   33.1400   16.8450 C.3    46  VAL46       0.0019
     60  N         19.4280   29.9350   20.4200 N.3    51  LEU51      -0.1231
     61  CA        20.0730   30.5230   21.5880 C.3    51  LEU51       0.1693
     62  C         19.2810   31.7080   22.1630 C.2    51  LEU51       0.2592
     63  O         19.6960   32.2870   23.1590 O.2    51  LEU51      -0.2718
     64  CB        21.5160   30.9580   21.2410 C.3    51  LEU51       0.0284
     65  CG        22.5160   29.8330   20.9420 C.3    51  LEU51       0.0019
     66  CD1       23.8520   30.4570   20.4660 C.3    51  LEU51       0.0001
     67  CD2       22.7110   28.9130   22.1440 C.3    51  LEU51       0.0001
     68  N         18.1610   32.0750   21.5370 N.am   52  ASN52      -0.1960
     69  CA        17.3570   33.2290   21.9630 C.3    52  ASN52       0.1819
     70  C         18.1880   34.5020   22.1130 C.2    52  ASN52       0.2621
     71  O         18.2350   35.1380   23.1740 O.2    52  ASN52      -0.2715
     72  CB        16.6190   32.9090   23.2700 C.3    52  ASN52       0.1195
     73  CG        15.5480   33.9430   23.6210 C.2    52  ASN52       0.2630
     74  OD1       14.9800   34.6000   22.7540 O.2    52  ASN52      -0.2716
     75  ND2       15.2440   34.0530   24.9210 N.am   52  ASN52      -0.0877
     76  N         18.8800   34.8580   21.0280 N.am   53  LEU53      -0.1964
     77  CA        19.6860   36.0660   20.9460 C.3    53  LEU53       0.1713
     78  C         19.1020   36.9970   19.8730 C.2    53  LEU53       0.2458
     79  O         19.6530   37.1260   18.7620 O.2    53  LEU53      -0.2730
     80  CB        21.1370   35.7120   20.6280 C.3    53  LEU53       0.0310
     81  CG        21.8650   34.6720   21.4860 C.3    53  LEU53       0.0022
     82  CD1       23.2960   34.3440   20.9430 C.3    53  LEU53       0.0001
     83  CD2       21.9330   35.1600   22.9750 C.3    53  LEU53       0.0001
     84  N         17.9480   37.6110   20.1650 N.am   54  PRO54      -0.2716
     85  CA        17.2780   38.4190   19.1340 C.3    54  PRO54       0.1536
     86  C         18.0910   39.6020   18.6220 C.2    54  PRO54       0.2599
     87  O         17.8030   40.1370   17.5490 O.2    54  PRO54      -0.2715
     88  CB        15.9950   38.9010   19.8390 C.3    54  PRO54       0.0310
     89  CG        16.2650   38.7410   21.2980 C.3    54  PRO54       0.0237
     90  CD        17.1460   37.5440   21.3990 C.3    54  PRO54       0.0939
     91  N         19.0880   39.9950   19.3960 N.am   55  ASP55      -0.1958
     92  CA        19.9730   41.1240   19.0740 C.3    55  ASP55       0.1840
     93  C         21.2440   40.7470   18.3100 C.2    55  ASP55       0.2622
     94  O         21.9540   41.6540   17.8330 O.2    55  ASP55      -0.2715
     95  CB        20.3380   41.9120   20.3390 C.3    55  ASP55       0.1450
     96  CG        21.0530   41.0600   21.3810 C.2    55  ASP55       0.3671
     97  OD1       21.0770   39.8050   21.2730 O.co2  55  ASP55      -0.2456
     98  OD2       21.6020   41.6320   22.3390 O.co2  55  ASP55      -0.2456
     99  N         21.5400   39.4570   18.1850 N.am   56  TYR56      -0.1974
    100  CA        22.8550   39.0570   17.6580 C.3    56  TYR56       0.1639
    101  C         23.1080   39.6290   16.2550 C.2    56  TYR56       0.2290
    102  O         24.1240   40.2710   16.0120 O.2    56  TYR56      -0.2864
    103  CB        23.0650   37.5190   17.6440 C.3    56  TYR56       0.0560
    104  CG        24.5030   37.1930   17.3000 C.ar   56  TYR56      -0.0198
    105  CD1       24.8640   36.9850   15.9900 C.ar   56  TYR56      -0.0009
    106  CD2       25.5060   37.2140   18.2510 C.ar   56  TYR56      -0.0009
    107  CE1       26.1780   36.7620   15.6380 C.ar   56  TYR56       0.0417
    108  CE2       26.8570   36.9840   17.8960 C.ar   56  TYR56       0.0417
    109  CZ        27.1810   36.7680   16.5860 C.ar   56  TYR56       0.1957
    110  OH        28.4880   36.5600   16.1900 O.3    56  TYR56      -0.2866
    111  N         23.4630   43.4260   15.7640 N.3    59  ILE59      -0.1245
    112  CA        24.7900   43.9180   16.1390 C.3    59  ILE59       0.1561
    113  C         25.9180   43.4200   15.2200 C.2    59  ILE59       0.2260
    114  O         26.8330   44.1820   14.8690 O.2    59  ILE59      -0.2867
    115  CB        25.0850   43.5320   17.6390 C.3    59  ILE59       0.0252
    116  CG1       24.1170   44.2780   18.5530 C.3    59  ILE59       0.0019
    117  CG2       26.5450   43.8250   18.0480 C.3    59  ILE59       0.0019
    118  CD1       24.0640   43.7180   19.9850 C.3    59  ILE59       0.0001
    119  N         35.9630   36.7130   13.0690 N.3    91  MET91      -0.1245
    120  CA        35.3360   35.8790   14.0710 C.3    91  MET91       0.1570
    121  C         35.6890   36.3620   15.4790 C.2    91  MET91       0.2261
    122  O         34.8100   36.5000   16.3540 O.2    91  MET91      -0.2867
    123  CB        35.7830   34.4440   13.8710 C.3    91  MET91       0.0387
    124  CG        35.1980   33.4530   14.8850 C.3    91  MET91       0.0595
    125  SD        35.8360   31.7940   14.6670 S.3    91  MET91      -0.1393
    126  CE        37.4180   31.9250   15.5350 C.3    91  MET91       0.0692
    127  N         34.0570   39.8440   16.2800 N.3    94  ASN94      -0.1225
    128  CA        32.6400   39.7550   16.5100 C.3    94  ASN94       0.1785
    129  C         32.3520   39.3440   17.9460 C.2    94  ASN94       0.2597
    130  O         31.4720   39.8600   18.6010 O.2    94  ASN94      -0.2718
    131  CB        32.0110   38.7000   15.6080 C.3    94  ASN94       0.1169
    132  CG        31.9340   39.1030   14.1400 C.2    94  ASN94       0.2627
    133  OD1       32.0650   40.2710   13.7800 O.2    94  ASN94      -0.2716
    134  ND2       31.6910   38.1150   13.2820 N.am   94  ASN94      -0.0877
    135  N         33.1340   38.3950   18.4420 N.am   95  CYS95      -0.1970
    136  CA        32.9630   37.9060   19.8030 C.3    95  CYS95       0.1712
    137  C         33.1410   39.0460   20.8220 C.2    95  CYS95       0.2296
    138  O         32.3600   39.1830   21.7590 O.2    95  CYS95      -0.2864
    139  CB        33.9310   36.7560   20.0790 C.3    95  CYS95       0.0983
    140  SG        33.7240   35.9890   21.7150 S.3    95  CYS95      -0.0798
    141  N         32.8340   42.2420   20.2080 N.3    97  ILE97      -0.1231
    142  CA        31.7650   43.2380   20.0250 C.3    97  ILE97       0.1692
    143  C         30.5020   42.8170   20.7970 C.2    97  ILE97       0.2592
    144  O         29.9120   43.6120   21.5420 O.2    97  ILE97      -0.2718
    145  CB        31.4020   43.4670   18.5670 C.3    97  ILE97       0.0266
    146  CG1       32.5450   44.1640   17.8220 C.3    97  ILE97       0.0019
    147  CG2       30.0830   44.3320   18.4540 C.3    97  ILE97       0.0020
    148  CD1       32.5310   44.1180   16.3020 C.3    97  ILE97       0.0001
    149  N         30.1010   41.5590   20.6350 N.am   98  TYR98      -0.1962
    150  CA        28.7830   41.1340   21.1010 C.3    98  TYR98       0.1771
    151  C         28.7420   40.8400   22.5910 C.2    98  TYR98       0.2620
    152  O         27.7500   41.1290   23.2590 O.2    98  TYR98      -0.2715
    153  CB        28.2580   39.9250   20.3130 C.3    98  TYR98       0.0574
    154  CG        26.8950   39.5000   20.7810 C.ar   98  TYR98      -0.0198
    155  CD1       25.7670   40.2370   20.4290 C.ar   98  TYR98      -0.0009
    156  CD2       26.7450   38.4100   21.6290 C.ar   98  TYR98      -0.0009
    157  CE1       24.5070   39.8950   20.8970 C.ar   98  TYR98       0.0417
    158  CE2       25.4820   38.0580   22.1100 C.ar   98  TYR98       0.0417
    159  CZ        24.3620   38.8000   21.7320 C.ar   98  TYR98       0.1957
    160  OH        23.1350   38.4460   22.2740 O.3    98  TYR98      -0.2866
    161  N         29.7840   40.1830   23.0710 N.am   99  ASN99      -0.1958
    162  CA        29.8270   39.6690   24.4370 C.3    99  ASN99       0.1819
    163  C         30.4970   40.6240   25.4120 C.2    99  ASN99       0.2621
    164  O         31.3840   41.3770   25.0400 O.2    99  ASN99      -0.2715
    165  CB        30.5110   38.3130   24.4340 C.3    99  ASN99       0.1195
    166  CG        29.7890   37.3310   23.5520 C.2    99  ASN99       0.2630
    167  OD1       28.7170   36.8000   23.9420 O.2    99  ASN99      -0.2716
    168  ND2       30.3100   37.1110   22.3410 N.am   99  ASN99      -0.0877
    169  N         30.0800   40.6030   26.6740 N.am  100  LYS100     -0.1977
    170  CA        30.6120   41.5630   27.6480 C.3   100  LYS100      0.1596
    171  C         31.9860   41.1580   28.1590 C.2   100  LYS100      0.2287
    172  O         32.2860   39.9700   28.2810 O.2   100  LYS100     -0.2864
    173  CB        29.6650   41.7150   28.8470 C.3   100  LYS100      0.0298
    174  CG        28.3980   42.4560   28.3410 C.3   100  LYS100      0.0038
    175  CD        27.5650   42.7820   29.5770 C.3   100  LYS100      0.0206
    176  CE        26.1160   42.4010   29.2610 C.3   100  LYS100      0.1093
    177  NZ        26.1640   40.9820   28.7450 N.3   100  LYS100     -0.1314
    178  N         32.9190   37.7740   30.3320 N.3   103  ASP103     -0.1225
    179  CA        32.1050   36.5940   30.0190 C.3   103  ASP103      0.1805
    180  C         32.9960   35.4220   29.6350 C.2   103  ASP103      0.2598
    181  O         34.0860   35.5950   29.0380 O.2   103  ASP103     -0.2718
    182  CB        31.1380   36.8470   28.8680 C.3   103  ASP103      0.1424
    183  CG        29.9240   37.6570   29.2550 C.2   103  ASP103      0.3668
    184  OD1       29.7620   38.0480   30.4320 O.co2 103  ASP103     -0.2456
    185  OD2       29.1140   37.9320   28.3390 O.co2 103  ASP103     -0.2456
    186  N         32.5110   34.2200   29.9230 N.am  104  ASP104     -0.1960
    187  CA        33.2490   33.0330   29.6110 C.3   104  ASP104      0.1840
    188  C         33.6820   32.9680   28.1490 C.2   104  ASP104      0.2621
    189  O         34.8070   32.6040   27.8560 O.2   104  ASP104     -0.2715
    190  CB        32.4550   31.7800   29.9700 C.3   104  ASP104      0.1450
    191  CG        32.4580   31.4650   31.4520 C.2   104  ASP104      0.3671
    192  OD1       33.1360   32.1820   32.2570 O.co2 104  ASP104     -0.2456
    193  OD2       31.7660   30.4780   31.7860 O.co2 104  ASP104     -0.2456
    194  N         32.8010   33.3120   27.2260 N.am  105  ILE105     -0.1977
    195  CA        33.1500   33.1690   25.7970 C.3   105  ILE105      0.1596
    196  C         34.3010   34.1190   25.4080 C.2   105  ILE105      0.2287
    197  O         35.0740   33.8020   24.5040 O.2   105  ILE105     -0.2864
    198  CB        31.9320   33.3590   24.8640 C.3   105  ILE105      0.0276
    199  CG1       32.2790   32.8620   23.4420 C.3   105  ILE105      0.0022
    200  CG2       31.4230   34.8130   24.8110 C.3   105  ILE105      0.0022
    201  CD1       31.1590   32.9800   22.4440 C.3   105  ILE105      0.0001
    202  N         36.8540   34.9400   27.4330 N.3   107  LEU107     -0.1231
    203  CA        38.0450   34.1940   27.8520 C.3   107  LEU107      0.1693
    204  C         38.4400   33.1280   26.8470 C.2   107  LEU107      0.2591
    205  O         39.6170   32.9510   26.5350 O.2   107  LEU107     -0.2718
    206  CB        37.8800   33.5860   29.2630 C.3   107  LEU107      0.0284
    207  CG        39.1590   32.9920   29.9090 C.3   107  LEU107      0.0019
    208  CD1       40.0920   34.0850   30.4860 C.3   107  LEU107      0.0001
    209  CD2       38.8140   32.0300   31.0280 C.3   107  LEU107      0.0001
    210  N         37.4470   32.4000   26.3630 N.am  108  MET108     -0.1979
    211  CA        37.6640   31.3510   25.3850 C.3   108  MET108      0.1605
    212  C         38.2340   31.9070   24.0780 C.2   108  MET108      0.2287
    213  O         39.2020   31.3680   23.5570 O.2   108  MET108     -0.2864
    214  CB        36.3770   30.5830   25.1660 C.3   108  MET108      0.0413
    215  CG        35.8900   29.8470   26.4330 C.3   108  MET108      0.0598
    216  SD        34.1730   29.3100   26.3870 S.3   108  MET108     -0.1393
    217  CE        34.3710   27.7250   25.5430 C.3   108  MET108      0.0692
@<TRIPOS>BOND
     1   119   120    1
     2   134   132   am
     3   133   132    2
     4   123   120    1
     5   123   124    1
     6   120   121    1
     7   132   131    1
     8    56    55    2
     9   125   124    1
    10   125   126    1
    11    53    54    1
    12   114   113    2
    13    45    44    2
    14   113   112    1
    15    55    54    1
    16   121   122    2
    17   131   128    1
    18   107   105   ar
    19   107   109   ar
    20   111   112    1
    21    54    57    1
    22   105   104   ar
    23   102   101    2
    24   112   115    1
    25   110   109    1
    26    44    43    1
    27   101   100    1
    28   127   128    1
    29   148   146    1
    30    57    59    1
    31    57    58    1
    32   128   129    1
    33   109   108   ar
    34   104   103    1
    35   104   106   ar
    36    43    46    1
    37    43    42    1
    38    46    47    1
    39    87    86    2
    40   115   117    1
    41   115   116    1
    42   103   100    1
    43   100    99    1
    44   146   145    1
    45    94    93    2
    46   108   106   ar
    47   129   135   am
    48   129   130    2
    49    99    93   am
    50    93    92    1
    51   135   136    1
    52   147   145    1
    53   116   118    1
    54   145   142    1
    55    48    47   ar
    56    48    50   ar
    57    42    37   am
    58    86    85    1
    59    86    91   am
    60    47    49   ar
    61    38    37    2
    62    79    78    2
    63    92    91    1
    64    92    95    1
    65    85    88    1
    66    85    84    1
    67    37    36    1
    68    24    23    2
    69    50    52   ar
    70   136   139    1
    71   136   137    1
    72    88    89    1
    73    78    84   am
    74    78    77    1
    75    49    51   ar
    76   142   141    1
    77   142   143    1
    78   139   140    1
    79    23    22    1
    80    23    35   am
    81    84    90    1
    82   153   154    1
    83   153   150    1
    84    95    96    1
    85    22    21    1
    86    22    25    1
    87    60    61    1
    88   155   154   ar
    89   155   157   ar
    90    66    65    1
    91    36    35    1
    92    36    39    1
    93    80    77    1
    94    80    81    1
    95   149   143   am
    96   149   150    1
    97   154   156   ar
    98   143   144    2
    99   137   138    2
   100    52    51   ar
   101    35    41    1
   102   157   159   ar
   103    65    64    1
   104    65    67    1
   105    82    81    1
   106    77    76    1
   107    76    70   am
   108   150   151    1
   109    64    61    1
   110    97    96   ar
   111    89    90    1
   112    25    26    1
   113    96    98   ar
   114    81    83    1
   115    68    69    1
   116    68    62   am
   117    61    62    1
   118    39    40    1
   119   156   158   ar
   120   159   158   ar
   121   159   160    1
   122    69    70    1
   123    69    72    1
   124    41    40    1
   125    70    71    2
   126    62    63    2
   127    13    12    2
   128   168   166   am
   129    31    28   ar
   130    31    33   ar
   131   201   199    1
   132    12    11    1
   133   151   161   am
   134   151   152    2
   135    26    28   ar
   136    26    27   ar
   137    74    73    2
   138   161   162    1
   139    28    30   ar
   140    33    34   ar
   141    72    73    1
   142   199   198    1
   143   166   167    2
   144   166   165    1
   145   213   212    2
   146    73    75   am
   147     1     2    1
   148    27    29   ar
   149    11    10    1
   150    11    14    1
   151    10     3   am
   152   212   211    1
   153    14    15    1
   154   165   162    1
   155   162   163    1
   156    30    29   ar
   157    30    32   ar
   158    34    32   ar
   159   197   196    2
   160     3     2    1
   161     3     4    2
   162     2     5    1
   163   200   198    1
   164   198   195    1
   165   164   163    2
   166   214   211    1
   167   214   215    1
   168   211   210    1
   169   196   195    1
   170   163   169   am
   171   217   216    1
   172   195   194    1
   173    15    17   ar
   174    15    16   ar
   175     5     6    1
   176    17    19   ar
   177   210   204   am
   178   216   215    1
   179   205   204    2
   180   169   170    1
   181    16    18   ar
   182   204   203    1
   183     6     7    1
   184   194   188   am
   185   202   203    1
   186    19    20   ar
   187   170   171    1
   188   170   173    1
   189   203   206    1
   190   189   188    2
   191   188   187    1
   192   171   172    2
   193    18    20   ar
   194   185   183   ar
   195   174   173    1
   196   174   175    1
   197     9     7   am
   198     7     8    2
   199   177   176    1
   200   182   183    1
   201   182   179    1
   202   181   180    2
   203   183   184   ar
   204   176   175    1
   205   206   207    1
   206   187   186    1
   207   187   190    1
   208   180   186   am
   209   180   179    1
   210   207   208    1
   211   207   209    1
   212   190   191    1
   213   179   178    1
   214   191   193   ar
   215   191   192   ar
