@<TRIPOS>MOLECULE
tmp/3uvxA00.pdb
 187 183 0 0 0
SMALL
GASTEIGER

@<TRIPOS>ATOM
      1  N         39.4720   30.5190   26.0620 N.3    37  GLN37      -0.1231
      2  CA        38.2110   30.6130   26.8340 C.3    37  GLN37       0.1698
      3  C         37.3010   31.8160   26.4490 C.2    37  GLN37       0.2592
      4  O         36.1100   31.7880   26.6550 O.2    37  GLN37      -0.2718
      5  CB        38.5070   30.6520   28.3430 C.3    37  GLN37       0.0381
      6  CG        39.3030   31.8680   28.7990 C.3    37  GLN37       0.0905
      7  CD        39.2560   32.0960   30.3060 C.2    37  GLN37       0.2608
      8  OE1       38.2980   31.7000   30.9850 O.2    37  GLN37      -0.2717
      9  NE2       40.2820   32.7670   30.8350 N.am   37  GLN37      -0.0878
     10  N         37.8890   32.8710   25.9000 N.am   38  PHE38      -0.1976
     11  CA        37.1600   34.0520   25.4490 C.3    38  PHE38       0.1639
     12  C         36.7580   34.0070   23.9620 C.2    38  PHE38       0.2290
     13  O         36.2150   34.9680   23.4410 O.2    38  PHE38      -0.2864
     14  CB        38.0170   35.3090   25.6750 C.3    38  PHE38       0.0560
     15  CG        38.3320   35.6190   27.1340 C.ar   38  PHE38      -0.0200
     16  CD1       37.4950   35.2100   28.1750 C.ar   38  PHE38      -0.0042
     17  CD2       39.4570   36.3720   27.4480 C.ar   38  PHE38      -0.0042
     18  CE1       37.7940   35.5280   29.4960 C.ar   38  PHE38      -0.0003
     19  CE2       39.7620   36.6900   28.7670 C.ar   38  PHE38      -0.0003
     20  CZ        38.9270   36.2700   29.7840 C.ar   38  PHE38      -0.0000
     21  N         34.4080   32.2780   22.3380 N.3    40  TRP40      -0.1228
     22  CA        33.0050   32.0030   21.9710 C.3    40  TRP40       0.1722
     23  C         32.1690   33.1580   21.4110 C.2    40  TRP40       0.2437
     24  O         31.3810   32.9260   20.4770 O.2    40  TRP40      -0.2733
     25  CB        32.2650   31.1860   23.0730 C.3    40  TRP40       0.0563
     26  CG        32.0680   31.9510   24.3630 C.ar   40  TRP40       0.0003
     27  CD1       32.9120   32.0010   25.4650 C.ar   40  TRP40       0.0946
     28  CD2       30.9810   32.8770   24.6730 C.ar   40  TRP40       0.0152
     29  NE1       32.4180   32.8560   26.4240 N.ar   40  TRP40      -0.2442
     30  CE2       31.2620   33.4080   26.0140 C.ar   40  TRP40       0.0810
     31  CE3       29.8360   33.2930   24.0100 C.ar   40  TRP40       0.0012
     32  CZ2       30.4080   34.2870   26.6420 C.ar   40  TRP40       0.0191
     33  CZ3       28.9960   34.2010   24.6530 C.ar   40  TRP40       0.0001
     34  CH2       29.2860   34.6850   25.9380 C.ar   40  TRP40       0.0015
     35  N         32.3490   34.4240   21.8820 N.am   41  PRO41      -0.2718
     36  CA        31.5040   35.4840   21.2520 C.3    41  PRO41       0.1535
     37  C         31.8750   35.8120   19.7980 C.2    41  PRO41       0.2598
     38  O         31.1140   36.5060   19.1030 O.2    41  PRO41      -0.2715
     39  CB        31.7620   36.7200   22.1430 C.3    41  PRO41       0.0310
     40  CG        32.2670   36.1500   23.4360 C.3    41  PRO41       0.0237
     41  CD        33.1000   34.9660   23.0250 C.3    41  PRO41       0.0939
     42  N         33.0450   35.3120   19.3740 N.am   42  PHE42      -0.1974
     43  CA        33.6580   35.6280   18.0940 C.3    42  PHE42       0.1639
     44  C         33.7020   34.4340   17.1210 C.2    42  PHE42       0.2290
     45  O         34.2220   34.5740   16.0140 O.2    42  PHE42      -0.2864
     46  CB        35.0830   36.1430   18.3210 C.3    42  PHE42       0.0560
     47  CG        35.1620   37.3130   19.2790 C.ar   42  PHE42      -0.0200
     48  CD1       34.9270   38.5920   18.8400 C.ar   42  PHE42      -0.0042
     49  CD2       35.4810   37.1120   20.6180 C.ar   42  PHE42      -0.0042
     50  CE1       34.9750   39.6680   19.7300 C.ar   42  PHE42      -0.0003
     51  CE2       35.5320   38.1700   21.5100 C.ar   42  PHE42      -0.0003
     52  CZ        35.2730   39.4420   21.0620 C.ar   42  PHE42      -0.0000
     53  N         27.8350   37.8590   14.4910 N.3    46  VAL46      -0.1245
     54  CA        26.9550   38.3970   15.5150 C.3    46  VAL46       0.1561
     55  C         25.5100   38.1870   15.0500 C.2    46  VAL46       0.2260
     56  O         25.1180   38.5980   13.9360 O.2    46  VAL46      -0.2867
     57  CB        27.2110   39.8980   15.7780 C.3    46  VAL46       0.0252
     58  CG1       26.1590   40.4350   16.7460 C.3    46  VAL46       0.0019
     59  CG2       28.6240   40.1160   16.3090 C.3    46  VAL46       0.0019
     60  N         19.0150   37.2120   17.7690 N.3    50  LYS50      -0.1231
     61  CA        19.0550   36.4620   19.0240 C.3    50  LYS50       0.1693
     62  C         19.5480   37.3210   20.2090 C.2    50  LYS50       0.2591
     63  O         18.9780   37.2610   21.3100 O.2    50  LYS50      -0.2718
     64  CB        19.9070   35.1960   18.8260 C.3    50  LYS50       0.0285
     65  CG        19.8280   34.1580   19.9380 C.3    50  LYS50       0.0035
     66  CD        20.6760   34.5330   21.1460 C.3    50  LYS50       0.0206
     67  CE        21.4790   33.3570   21.6840 C.3    50  LYS50       0.1093
     68  NZ        22.6790   33.0830   20.8420 N.3    50  LYS50      -0.1314
     69  N         20.5650   38.1520   19.9830 N.am   51  LEU51      -0.1980
     70  CA        21.1030   39.0540   21.0320 C.3    51  LEU51       0.1596
     71  C         20.3090   40.3720   21.1520 C.2    51  LEU51       0.2287
     72  O         20.6670   41.2790   21.9390 O.2    51  LEU51      -0.2864
     73  CB        22.5990   39.3650   20.7520 C.3    51  LEU51       0.0297
     74  CG        23.6530   38.2330   20.7030 C.3    51  LEU51       0.0022
     75  CD1       23.3030   37.0650   19.7970 C.3    51  LEU51       0.0001
     76  CD2       25.0380   38.7450   20.2860 C.3    51  LEU51       0.0001
     77  N         20.0790   43.0440   19.1670 N.3    53  LEU53      -0.1245
     78  CA        20.9210   44.1950   18.8690 C.3    53  LEU53       0.1561
     79  C         20.4610   44.8470   17.5620 C.2    53  LEU53       0.2260
     80  O         21.1460   44.7370   16.5430 O.2    53  LEU53      -0.2867
     81  CB        22.3850   43.7260   18.7170 C.3    53  LEU53       0.0270
     82  CG        23.0180   42.9830   19.9030 C.3    53  LEU53       0.0019
     83  CD1       24.4350   42.5610   19.5250 C.3    53  LEU53       0.0001
     84  CD2       22.9960   43.8180   21.1910 C.3    53  LEU53       0.0001
     85  N         20.4640   47.7480   16.3700 N.3    55  ASP55      -0.1225
     86  CA        21.3430   48.7190   15.7620 C.3    55  ASP55       0.1805
     87  C         22.6660   48.1210   15.2830 C.2    55  ASP55       0.2597
     88  O         23.4320   48.8560   14.6270 O.2    55  ASP55      -0.2718
     89  CB        21.6140   49.8890   16.7220 C.3    55  ASP55       0.1424
     90  CG        22.3480   49.4610   18.0010 C.2    55  ASP55       0.3668
     91  OD1       22.3690   48.2570   18.3350 O.co2  55  ASP55      -0.2456
     92  OD2       22.8760   50.3520   18.6800 O.co2  55  ASP55      -0.2456
     93  N         22.9440   46.8370   15.5960 N.am   56  TYR56      -0.1976
     94  CA        24.2940   46.2660   15.3500 C.3    56  TYR56       0.1639
     95  C         24.7210   46.4810   13.8780 C.2    56  TYR56       0.2290
     96  O         25.7600   47.0850   13.5970 O.2    56  TYR56      -0.2864
     97  CB        24.4420   44.7800   15.7620 C.3    56  TYR56       0.0560
     98  CG        25.8760   44.3220   15.5840 C.ar   56  TYR56      -0.0198
     99  CD1       26.3350   43.8220   14.3500 C.ar   56  TYR56      -0.0009
    100  CD2       26.8240   44.4990   16.6130 C.ar   56  TYR56      -0.0009
    101  CE1       27.6620   43.4740   14.1750 C.ar   56  TYR56       0.0417
    102  CE2       28.1560   44.1370   16.4380 C.ar   56  TYR56       0.0417
    103  CZ        28.5820   43.6260   15.2310 C.ar   56  TYR56       0.1957
    104  OH        29.9410   43.2650   15.0690 O.3    56  TYR56      -0.2866
    105  N         37.3820   42.3250   12.5940 N.3    91  MET91      -0.1245
    106  CA        36.6350   41.7350   13.7000 C.3    91  MET91       0.1570
    107  C         36.8700   42.4970   15.0020 C.2    91  MET91       0.2261
    108  O         35.9160   42.8700   15.6930 O.2    91  MET91      -0.2867
    109  CB        37.0100   40.2720   13.8820 C.3    91  MET91       0.0387
    110  CG        36.2970   39.5560   15.0170 C.3    91  MET91       0.0595
    111  SD        36.9410   37.8780   15.2140 S.3    91  MET91      -0.1393
    112  CE        38.4620   38.2300   16.0670 C.3    91  MET91       0.0692
    113  N         34.2440   45.2380   17.1320 N.3    95  CYS95      -0.1235
    114  CA        33.9360   45.0540   18.5330 C.3    95  CYS95       0.1677
    115  C         34.2050   46.3410   19.3280 C.2    95  CYS95       0.2270
    116  O         33.4050   46.7530   20.2090 O.2    95  CYS95      -0.2867
    117  CB        34.7670   43.8900   19.0910 C.3    95  CYS95       0.0956
    118  SG        34.3400   43.4480   20.7890 S.3    95  CYS95      -0.0801
    119  N         31.5340   49.0390   18.2810 N.3    98  TYR98      -0.1227
    120  CA        30.1510   48.8300   18.7040 C.3    98  TYR98       0.1736
    121  C         30.0120   48.9220   20.2490 C.2    98  TYR98       0.2595
    122  O         29.0440   49.4930   20.7690 O.2    98  TYR98      -0.2718
    123  CB        29.5820   47.5140   18.1590 C.3    98  TYR98       0.0548
    124  CG        28.1480   47.2940   18.5830 C.ar   98  TYR98      -0.0200
    125  CD1       27.8080   46.3560   19.5780 C.ar   98  TYR98      -0.0009
    126  CD2       27.1200   48.0400   17.9930 C.ar   98  TYR98      -0.0009
    127  CE1       26.4680   46.2020   19.9770 C.ar   98  TYR98       0.0417
    128  CE2       25.8010   47.9090   18.3980 C.ar   98  TYR98       0.0417
    129  CZ        25.4730   47.0000   19.3790 C.ar   98  TYR98       0.1957
    130  OH        24.1480   46.8790   19.7120 O.3    98  TYR98      -0.2866
    131  N         30.9770   48.3750   20.9680 N.am   99  ASN99      -0.1960
    132  CA        30.8850   48.2350   22.4320 C.3    99  ASN99       0.1819
    133  C         31.6930   49.2910   23.1570 C.2    99  ASN99       0.2621
    134  O         32.2810   50.1220   22.5090 O.2    99  ASN99      -0.2715
    135  CB        31.3450   46.8400   22.8100 C.3    99  ASN99       0.1195
    136  CG        30.5130   45.7690   22.1160 C.2    99  ASN99       0.2630
    137  OD1       29.3530   45.5390   22.4650 O.2    99  ASN99      -0.2716
    138  ND2       31.0960   45.1390   21.1080 N.am   99  ASN99      -0.0877
    139  N         31.7280   49.2470   24.4880 N.am  100  LYS100     -0.1977
    140  CA        32.3530   50.3010   25.3080 C.3   100  LYS100      0.1596
    141  C         33.4860   49.7600   26.1650 C.2   100  LYS100      0.2287
    142  O         33.4670   48.5840   26.5450 O.2   100  LYS100     -0.2864
    143  CB        31.3150   50.9460   26.2590 C.3   100  LYS100      0.0298
    144  CG        30.4170   51.9650   25.5880 C.3   100  LYS100      0.0038
    145  CD        29.2110   51.3030   24.9660 C.3   100  LYS100      0.0206
    146  CE        28.5440   52.1380   23.8890 C.3   100  LYS100      0.1093
    147  NZ        28.2020   51.2520   22.7420 N.3   100  LYS100     -0.1314
    148  N         33.3100   46.9190   29.1130 N.3   103  ASP103     -0.1225
    149  CA        32.3960   45.8270   28.7550 C.3   103  ASP103      0.1805
    150  C         33.2600   44.5790   28.6870 C.2   103  ASP103      0.2598
    151  O         34.3490   44.6240   28.1240 O.2   103  ASP103     -0.2718
    152  CB        31.7650   45.9830   27.3670 C.3   103  ASP103      0.1424
    153  CG        30.7070   47.0200   27.2850 C.2   103  ASP103      0.3668
    154  OD1       30.1980   47.5090   28.3260 O.co2 103  ASP103     -0.2456
    155  OD2       30.3610   47.3280   26.1080 O.co2 103  ASP103     -0.2456
    156  N         32.7710   43.4800   29.2560 N.am  104  ASP104     -0.1960
    157  CA        33.4460   42.1800   29.1630 C.3   104  ASP104      0.1840
    158  C         33.8860   41.8200   27.7130 C.2   104  ASP104      0.2621
    159  O         34.9870   41.3190   27.5070 O.2   104  ASP104     -0.2715
    160  CB        32.5450   41.0840   29.7020 C.3   104  ASP104      0.1450
    161  CG        32.6480   40.9050   31.2270 C.2   104  ASP104      0.3671
    162  OD1       33.4440   41.5630   31.9360 O.co2 104  ASP104     -0.2456
    163  OD2       31.9190   40.0470   31.7160 O.co2 104  ASP104     -0.2456
    164  N         33.0170   42.0920   26.7390 N.am  105  ILE105     -0.1977
    165  CA        33.2520   41.7190   25.3450 C.3   105  ILE105      0.1596
    166  C         34.5300   42.3950   24.8520 C.2   105  ILE105      0.2287
    167  O         35.3140   41.7870   24.1370 O.2   105  ILE105     -0.2864
    168  CB        32.0120   42.0450   24.4630 C.3   105  ILE105      0.0276
    169  CG1       32.1280   41.3940   23.0730 C.3   105  ILE105      0.0022
    170  CG2       31.7910   43.5490   24.3690 C.3   105  ILE105      0.0022
    171  CD1       32.3430   39.9010   23.1050 C.3   105  ILE105      0.0001
    172  N         37.0670   43.5530   26.8910 N.3   107  LEU107     -0.1231
    173  CA        38.1340   42.8740   27.6310 C.3   107  LEU107      0.1693
    174  C         38.4800   41.5410   26.9260 C.2   107  LEU107      0.2591
    175  O         39.6550   41.1810   26.7400 O.2   107  LEU107     -0.2718
    176  CB        37.6920   42.6310   29.0900 C.3   107  LEU107      0.0284
    177  CG        37.4970   43.8950   29.9690 C.3   107  LEU107      0.0019
    178  CD1       36.7720   43.5990   31.2880 C.3   107  LEU107      0.0001
    179  CD2       38.8290   44.6210   30.2170 C.3   107  LEU107      0.0001
    180  N         37.4450   40.8220   26.5160 N.am  108  MET108     -0.1979
    181  CA        37.6440   39.6070   25.7430 C.3   108  MET108      0.1605
    182  C         38.3690   39.8170   24.4150 C.2   108  MET108      0.2287
    183  O         39.3220   39.0770   24.0970 O.2   108  MET108     -0.2864
    184  CB        36.3190   38.8810   25.5750 C.3   108  MET108      0.0413
    185  CG        35.8260   38.3190   26.9190 C.3   108  MET108      0.0598
    186  SD        34.1120   37.8710   26.9130 S.3   108  MET108     -0.1393
    187  CE        34.2160   36.1570   26.3740 C.3   108  MET108      0.0692
@<TRIPOS>BOND
     1   105   106    1
     2    96    95    2
     3   106   109    1
     4   106   107    1
     5    95    94    1
     6   109   110    1
     7    56    55    2
     8   101    99   ar
     9   101   103   ar
    10    99    98   ar
    11    53    54    1
    12    88    87    2
    13   107   108    2
    14   110   111    1
    15    55    54    1
    16   104   103    1
    17   111   112    1
    18   103   102   ar
    19    87    93   am
    20    87    86    1
    21    94    93    1
    22    94    97    1
    23    54    57    1
    24    98    97    1
    25    98   100   ar
    26    86    85    1
    27    86    89    1
    28    57    59    1
    29    57    58    1
    30    45    44    2
    31   102   100   ar
    32    80    79    2
    33    89    90    1
    34    44    43    1
    35   113   114    1
    36    79    78    1
    37    60    61    1
    38   126   128   ar
    39   126   124   ar
    40    90    91   ar
    41    90    92   ar
    42    43    46    1
    43    43    42    1
    44   123   124    1
    45   123   120    1
    46   119   120    1
    47    46    47    1
    48   128   129   ar
    49   114   117    1
    50   114   115    1
    51   124   125   ar
    52   120   121    1
    53    81    78    1
    54    81    82    1
    55    64    61    1
    56    64    65    1
    57    48    47   ar
    58    48    50   ar
    59    78    77    1
    60    61    62    1
    61   117   118    1
    62    38    37    2
    63    47    49   ar
    64   115   116    2
    65    42    37   am
    66   129   130    1
    67   129   127   ar
    68    83    82    1
    69   125   127   ar
    70    50    52   ar
    71    75    74    1
    72    37    36    1
    73    82    84    1
    74    65    66    1
    75    69    62   am
    76    69    70    1
    77    62    63    2
    78   121   122    2
    79   121   131   am
    80    76    74    1
    81    24    23    2
    82    49    51   ar
    83    74    73    1
    84    73    70    1
    85    68    67    1
    86   131   132    1
    87    70    71    1
    88    52    51   ar
    89   138   136   am
    90    66    67    1
    91    71    72    2
    92    36    35    1
    93    36    39    1
    94    23    35   am
    95    23    22    1
    96    35    41    1
    97    22    21    1
    98    22    25    1
    99   136   137    2
   100   136   135    1
   101    39    40    1
   102   132   135    1
   103   132   133    1
   104   134   133    2
   105   147   146    1
   106    41    40    1
   107    25    26    1
   108   169   171    1
   109   169   168    1
   110   133   139   am
   111    13    12    2
   112   146   145    1
   113    12    11    1
   114    31    33   ar
   115    31    28   ar
   116   183   182    2
   117   167   166    2
   118    26    28   ar
   119    26    27   ar
   120   170   168    1
   121   182   181    1
   122   168   165    1
   123   139   140    1
   124    33    34   ar
   125    28    30   ar
   126   166   165    1
   127   145   144    1
   128   140   141    1
   129   140   143    1
   130   165   164    1
   131    11    14    1
   132    11    10    1
   133    27    29   ar
   134   184   181    1
   135   184   185    1
   136   144   143    1
   137    14    15    1
   138   181   180    1
   139    10     3   am
   140    34    32   ar
   141    30    29   ar
   142    30    32   ar
   143     1     2    1
   144   155   153   ar
   145   141   142    2
   146   187   186    1
   147     3     4    2
   148     3     2    1
   149   180   174   am
   150   164   158   am
   151   175   174    2
   152     2     5    1
   153   172   173    1
   154   186   185    1
   155   174   173    1
   156    15    17   ar
   157    15    16   ar
   158   153   152    1
   159   153   154   ar
   160   152   149    1
   161    17    19   ar
   162   159   158    2
   163   173   176    1
   164   158   157    1
   165   151   150    2
   166    16    18   ar
   167     5     6    1
   168   150   149    1
   169   150   156   am
   170   149   148    1
   171    19    20   ar
   172     6     7    1
   173   176   177    1
   174   157   156    1
   175   157   160    1
   176    18    20   ar
   177   160   161    1
   178   177   179    1
   179   177   178    1
   180     7     9   am
   181     7     8    2
   182   161   163   ar
   183   161   162   ar
