@<TRIPOS>MOLECULE
tmp/3uvyA00.pdb
 202 199 0 0 0
SMALL
GASTEIGER

@<TRIPOS>ATOM
      1  N         67.3790   31.2190    4.4770 N.3    21  PHE21      -0.1241
      2  CA        67.6140   30.6800    5.8040 C.3    21  PHE21       0.1605
      3  C         67.1090   29.2550    5.9790 C.2    21  PHE21       0.2264
      4  O         67.2980   28.6990    7.0530 O.2    21  PHE21      -0.2867
      5  CB        66.9630   31.5980    6.8590 C.3    21  PHE21       0.0534
      6  CG        67.6450   32.9540    7.0340 C.ar   21  PHE21      -0.0203
      7  CD1       68.9470   33.1940    6.5640 C.ar   21  PHE21      -0.0042
      8  CD2       66.9870   33.9670    7.7280 C.ar   21  PHE21      -0.0042
      9  CE1       69.5610   34.4420    6.7570 C.ar   21  PHE21      -0.0003
     10  CE2       67.5650   35.2060    7.9090 C.ar   21  PHE21      -0.0003
     11  CZ        68.8710   35.4480    7.4420 C.ar   21  PHE21      -0.0000
     12  N         68.1750   26.2940    4.8320 N.3    23  TRP23      -0.1228
     13  CA        69.0800   25.1600    4.6800 C.3    23  TRP23       0.1722
     14  C         69.4110   24.3760    5.9870 C.2    23  TRP23       0.2437
     15  O         69.4200   23.1480    5.9510 O.2    23  TRP23      -0.2733
     16  CB        70.3540   25.5490    3.8750 C.3    23  TRP23       0.0563
     17  CG        71.1790   26.6030    4.5180 C.ar   23  TRP23       0.0003
     18  CD1       71.0640   27.9590    4.3260 C.ar   23  TRP23       0.0946
     19  CD2       72.2880   26.4190    5.4270 C.ar   23  TRP23       0.0152
     20  NE1       72.0040   28.6140    5.0810 N.ar   23  TRP23      -0.2442
     21  CE2       72.7570   27.7020    5.7740 C.ar   23  TRP23       0.0810
     22  CE3       72.8840   25.3070    6.0220 C.ar   23  TRP23       0.0012
     23  CZ2       73.7950   27.8960    6.6850 C.ar   23  TRP23       0.0191
     24  CZ3       73.9310   25.5060    6.9100 C.ar   23  TRP23       0.0001
     25  CH2       74.3690   26.7870    7.2310 C.ar   23  TRP23       0.0015
     26  N         69.6270   25.0630    7.1370 N.am   24  PRO24      -0.2718
     27  CA        69.7930   24.2490    8.3640 C.3    24  PRO24       0.1535
     28  C         68.5540   23.4160    8.7810 C.2    24  PRO24       0.2598
     29  O         68.6640   22.5450    9.6770 O.2    24  PRO24      -0.2715
     30  CB        70.0850   25.3080    9.4480 C.3    24  PRO24       0.0310
     31  CG        70.3260   26.6390    8.6970 C.3    24  PRO24       0.0237
     32  CD        69.5170   26.5050    7.4580 C.3    24  PRO24       0.0939
     33  N         67.3960   23.7150    8.1670 N.am   25  PHE25      -0.1974
     34  CA        66.1240   23.0720    8.4830 C.3    25  PHE25       0.1639
     35  C         65.6160   22.1040    7.4300 C.2    25  PHE25       0.2290
     36  O         64.4910   21.6140    7.5380 O.2    25  PHE25      -0.2864
     37  CB        65.0600   24.1360    8.7340 C.3    25  PHE25       0.0560
     38  CG        65.4370   25.0990    9.8250 C.ar   25  PHE25      -0.0200
     39  CD1       65.2920   24.7510   11.1680 C.ar   25  PHE25      -0.0042
     40  CD2       65.9960   26.3330    9.5090 C.ar   25  PHE25      -0.0042
     41  CE1       65.6700   25.6560   12.2000 C.ar   25  PHE25      -0.0003
     42  CE2       66.3960   27.2290   10.5200 C.ar   25  PHE25      -0.0003
     43  CZ        66.2250   26.8910   11.8660 C.ar   25  PHE25      -0.0000
     44  N         66.9690   19.2260    6.5310 N.3    27  GLN27      -0.1245
     45  CA        67.2680   17.8420    6.8450 C.3    27  GLN27       0.1566
     46  C         67.3110   17.7520    8.3590 C.2    27  GLN27       0.2260
     47  O         67.3250   18.7680    9.0330 O.2    27  GLN27      -0.2867
     48  CB        68.6000   17.3730    6.1950 C.3    27  GLN27       0.0367
     49  CG        69.8830   18.0630    6.6850 C.3    27  GLN27       0.0905
     50  CD        69.9220   19.5460    6.3700 C.2    27  GLN27       0.2608
     51  OE1       69.6660   19.9660    5.2340 O.2    27  GLN27      -0.2717
     52  NE2       70.2390   20.3490    7.3770 N.am   27  GLN27      -0.0878
     53  N         68.6200   17.4290   12.1260 N.3    29  VAL29      -0.1245
     54  CA        69.7960   18.0150   12.7460 C.3    29  VAL29       0.1561
     55  C         70.8850   16.9690   12.7600 C.2    29  VAL29       0.2260
     56  O         70.7140   15.8800   13.3190 O.2    29  VAL29      -0.2867
     57  CB        69.5230   18.5190   14.1800 C.3    29  VAL29       0.0252
     58  CG1       70.8160   18.9170   14.8420 C.3    29  VAL29       0.0019
     59  CG2       68.5460   19.7000   14.1280 C.3    29  VAL29       0.0019
     60  N         77.9490   15.6930   12.9750 N.3    33  LYS33      -0.1231
     61  CA        78.6390   16.7370   12.2190 C.3    33  LYS33       0.1693
     62  C         78.7790   18.0240   13.0230 C.2    33  LYS33       0.2592
     63  O         79.8270   18.6640   12.9730 O.2    33  LYS33      -0.2718
     64  CB        77.9170   17.0290   10.9020 C.3    33  LYS33       0.0285
     65  CG        78.6240   18.0280    9.9800 C.3    33  LYS33       0.0035
     66  CD        77.8590   18.2120    8.6640 C.3    33  LYS33       0.0206
     67  CE        78.7930   18.4920    7.4900 C.3    33  LYS33       0.1093
     68  NZ        78.1280   18.1730    6.1900 N.3    33  LYS33      -0.1314
     69  N         77.7410   18.3710   13.7850 N.am   34  LEU34      -0.1966
     70  CA        77.6650   19.6650   14.4710 C.3    34  LEU34       0.1728
     71  C         78.1590   19.6280   15.9230 C.2    34  LEU34       0.2616
     72  O         78.0990   20.6410   16.6120 O.2    34  LEU34      -0.2715
     73  CB        76.2160   20.2000   14.4220 C.3    34  LEU34       0.0311
     74  CG        75.5770   20.6400   13.0940 C.3    34  LEU34       0.0022
     75  CD1       74.1550   21.1390   13.3460 C.3    34  LEU34       0.0001
     76  CD2       76.3940   21.7050   12.3880 C.3    34  LEU34       0.0001
     77  N         78.6680   18.4750   16.3710 N.am   35  ASN35      -0.1958
     78  CA        79.1590   18.3230   17.7350 C.3    35  ASN35       0.1819
     79  C         78.1220   18.7780   18.7950 C.2    35  ASN35       0.2621
     80  O         78.3990   19.6620   19.5970 O.2    35  ASN35      -0.2715
     81  CB        80.5130   19.0460   17.8550 C.3    35  ASN35       0.1195
     82  CG        81.5230   18.5850   16.7660 C.2    35  ASN35       0.2630
     83  OD1       82.3980   19.3440   16.3210 O.2    35  ASN35      -0.2716
     84  ND2       81.3820   17.3380   16.3350 N.am   35  ASN35      -0.0877
     85  N         76.9520   18.1560   18.7690 N.am   36  LEU36      -0.1977
     86  CA        75.8770   18.4000   19.7080 C.3    36  LEU36       0.1596
     87  C         75.6010   17.0820   20.4640 C.2    36  LEU36       0.2287
     88  O         74.5870   16.4090   20.2230 O.2    36  LEU36      -0.2864
     89  CB        74.6210   18.8700   18.9460 C.3    36  LEU36       0.0297
     90  CG        74.8480   20.0000   17.9300 C.3    36  LEU36       0.0022
     91  CD1       73.5240   20.3490   17.2410 C.3    36  LEU36       0.0001
     92  CD2       75.5090   21.2210   18.6040 C.3    36  LEU36       0.0001
     93  N         74.4520   16.3350   23.3750 N.3    38  ASP38      -0.1225
     94  CA        73.1570   16.3420   24.0840 C.3    38  ASP38       0.1805
     95  C         71.8850   16.4430   23.2330 C.2    38  ASP38       0.2597
     96  O         70.8010   16.1950   23.7650 O.2    38  ASP38      -0.2718
     97  CB        73.1060   17.4820   25.0980 C.3    38  ASP38       0.1424
     98  CG        73.5290   18.8300   24.5100 C.2    38  ASP38       0.3668
     99  OD1       73.6160   18.9750   23.2660 O.co2  38  ASP38      -0.2456
    100  OD2       73.7910   19.7480   25.3100 O.co2  38  ASP38      -0.2456
    101  N         71.9920   16.8030   21.9510 N.am   39  TYR39      -0.1976
    102  CA        70.7940   17.1550   21.1510 C.3    39  TYR39       0.1639
    103  C         69.7560   16.0640   21.2460 C.2    39  TYR39       0.2290
    104  O         68.5770   16.3530   21.4860 O.2    39  TYR39      -0.2864
    105  CB        71.1020   17.4040   19.6640 C.3    39  TYR39       0.0560
    106  CG        69.9300   18.0190   18.9160 C.ar   39  TYR39      -0.0198
    107  CD1       69.0410   17.2360   18.1990 C.ar   39  TYR39      -0.0009
    108  CD2       69.7020   19.4040   18.9520 C.ar   39  TYR39      -0.0009
    109  CE1       67.9420   17.7960   17.5150 C.ar   39  TYR39       0.0417
    110  CE2       68.6030   19.9740   18.2750 C.ar   39  TYR39       0.0417
    111  CZ        67.7390   19.1500   17.5670 C.ar   39  TYR39       0.1957
    112  OH        66.6590   19.6710   16.9110 O.3    39  TYR39      -0.2866
    113  N         59.3540   21.6930   15.0000 N.3    74  MET74      -0.1245
    114  CA        60.6520   22.0460   14.4300 C.3    74  MET74       0.1570
    115  C         61.1620   23.3810   15.0210 C.2    74  MET74       0.2261
    116  O         62.3140   23.4630   15.4760 O.2    74  MET74      -0.2867
    117  CB        60.5410   22.1790   12.9080 C.3    74  MET74       0.0387
    118  CG        61.8420   22.5120   12.2050 C.3    74  MET74       0.0595
    119  SD        61.6420   22.8990   10.4430 S.3    74  MET74      -0.1393
    120  CE        60.8990   24.5600   10.5610 C.3    74  MET74       0.0692
    121  N         64.2040   24.2150   18.0330 N.3    78  CYS78      -0.1235
    122  CA        65.2310   25.2230   17.8290 C.3    78  CYS78       0.1677
    123  C         65.2700   26.1980   18.9980 C.2    78  CYS78       0.2270
    124  O         66.3330   26.4560   19.5290 O.2    78  CYS78      -0.2867
    125  CB        65.0020   25.9830   16.5430 C.3    78  CYS78       0.0956
    126  SG        66.4540   26.8710   16.0430 S.3    78  CYS78      -0.0801
    127  N         66.4870   24.5070   22.4550 N.3    81  TYR81      -0.1227
    128  CA        67.8400   23.9500   22.4630 C.3    81  TYR81       0.1736
    129  C         68.9260   25.0090   22.2260 C.2    81  TYR81       0.2595
    130  O         70.0560   24.8520   22.6910 O.2    81  TYR81      -0.2718
    131  CB        67.9940   22.8510   21.3930 C.3    81  TYR81       0.0548
    132  CG        69.4130   22.2970   21.4030 C.ar   81  TYR81      -0.0200
    133  CD1       70.3330   22.6760   20.4280 C.ar   81  TYR81      -0.0009
    134  CD2       69.8520   21.4270   22.4410 C.ar   81  TYR81      -0.0009
    135  CE1       71.6640   22.2110   20.4630 C.ar   81  TYR81       0.0417
    136  CE2       71.1870   20.9570   22.4820 C.ar   81  TYR81       0.0417
    137  CZ        72.0790   21.3490   21.4780 C.ar   81  TYR81       0.1957
    138  OH        73.3870   20.9040   21.4630 O.3    81  TYR81      -0.2866
    139  N         68.6040   26.0740   21.4980 N.am   82  ASN82      -0.1960
    140  CA        69.6430   27.0290   21.0900 C.3    82  ASN82       0.1819
    141  C         69.7160   28.3180   21.9090 C.2    82  ASN82       0.2621
    142  O         68.8430   28.5950   22.7350 O.2    82  ASN82      -0.2715
    143  CB        69.5350   27.2670   19.5900 C.3    82  ASN82       0.1195
    144  CG        69.9560   26.0560   18.8160 C.2    82  ASN82       0.2630
    145  OD1       71.1170   25.6620   18.8650 O.2    82  ASN82      -0.2716
    146  ND2       69.0230   25.4250   18.1500 N.am   82  ASN82      -0.0877
    147  N         70.8130   29.0600   21.7160 N.am   83  LYS83      -0.1964
    148  CA        71.1180   30.2430   22.5370 C.3    83  LYS83       0.1713
    149  C         70.5650   31.4910   21.8630 C.2    83  LYS83       0.2458
    150  O         70.8230   31.7140   20.6650 O.2    83  LYS83      -0.2730
    151  CB        72.6270   30.4000   22.7520 C.3    83  LYS83       0.0311
    152  CG        73.0040   30.8620   24.1760 C.3    83  LYS83       0.0038
    153  CD        74.4980   30.6720   24.4990 C.3    83  LYS83       0.0206
    154  CE        74.7290   30.2510   25.9630 C.3    83  LYS83       0.1093
    155  NZ        74.4500   28.8010   26.1940 N.3    83  LYS83      -0.1314
    156  N         69.7840   32.2910   22.6200 N.am   84  PRO84      -0.2727
    157  CA        69.2570   33.5380   22.1170 C.3    84  PRO84       0.1402
    158  C         70.3470   34.3900   21.4480 C.2    84  PRO84       0.2269
    159  O         71.4610   34.5090   21.9860 O.2    84  PRO84      -0.2865
    160  CB        68.7050   34.2030   23.3770 C.3    84  PRO84       0.0296
    161  CG        68.3090   33.0520   24.2550 C.3    84  PRO84       0.0237
    162  CD        69.4030   32.0710   24.0310 C.3    84  PRO84       0.0939
    163  N         71.8630   33.6050   18.6080 N.3    86  ASP86      -0.1225
    164  CA        72.7370   32.8580   17.7260 C.3    86  ASP86       0.1805
    165  C         72.0920   32.8080   16.3400 C.2    86  ASP86       0.2598
    166  O         70.8820   32.9890   16.2120 O.2    86  ASP86      -0.2718
    167  CB        73.0640   31.4740   18.2680 C.3    86  ASP86       0.1424
    168  CG        74.1630   31.5110   19.2940 C.2    86  ASP86       0.3668
    169  OD1       74.7810   32.5730   19.4860 O.co2  86  ASP86      -0.2456
    170  OD2       74.4330   30.4660   19.9090 O.co2  86  ASP86      -0.2456
    171  N         72.9180   32.6190   15.3080 N.am   87  ASP87      -0.1960
    172  CA        72.4470   32.6830   13.9120 C.3    87  ASP87       0.1840
    173  C         71.2600   31.7110   13.6710 C.2    87  ASP87       0.2621
    174  O         70.3260   32.0710   12.9410 O.2    87  ASP87      -0.2715
    175  CB        73.5800   32.3800   12.8890 C.3    87  ASP87       0.1450
    176  CG        74.6250   33.5300   12.7170 C.2    87  ASP87       0.3671
    177  OD1       74.5390   34.5990   13.3560 O.co2  87  ASP87      -0.2456
    178  OD2       75.5550   33.3540   11.9000 O.co2  87  ASP87      -0.2456
    179  N         71.2860   30.5180   14.3020 N.am   88  ILE88      -0.1977
    180  CA        70.3020   29.4750   14.0300 C.3    88  ILE88       0.1596
    181  C         68.9220   29.9330   14.5050 C.2    88  ILE88       0.2287
    182  O         67.9210   29.6880   13.8440 O.2    88  ILE88      -0.2864
    183  CB        70.7290   28.0960   14.6380 C.3    88  ILE88       0.0276
    184  CG1       69.8340   26.9500   14.1290 C.3    88  ILE88       0.0022
    185  CG2       70.7710   28.1330   16.1950 C.3    88  ILE88       0.0022
    186  CD1       69.9140   26.6810   12.6100 C.3    88  ILE88       0.0001
    187  N         68.0870   33.2290   14.9750 N.3    90  LEU90      -0.1231
    188  CA        67.6580   34.3170   14.0940 C.3    90  LEU90       0.1693
    189  C         67.0940   33.7560   12.7810 C.2    90  LEU90       0.2591
    190  O         66.1230   34.2570   12.2220 O.2    90  LEU90      -0.2718
    191  CB        68.8100   35.2920   13.8250 C.3    90  LEU90       0.0284
    192  CG        68.4920   36.4800   12.9010 C.3    90  LEU90       0.0019
    193  CD1       69.1630   37.7650   13.3620 C.3    90  LEU90       0.0001
    194  CD2       68.8390   36.1820   11.4320 C.3    90  LEU90       0.0001
    195  N         67.6860   32.6850   12.2900 N.am   91  MET91      -0.1979
    196  CA        67.1470   32.0470   11.0930 C.3    91  MET91       0.1605
    197  C         65.7830   31.4270   11.3790 C.2    91  MET91       0.2287
    198  O         64.8470   31.6520   10.6010 O.2    91  MET91      -0.2864
    199  CB        68.1350   31.0170   10.5460 C.3    91  MET91       0.0413
    200  CG        69.4250   31.6420   10.0660 C.3    91  MET91       0.0598
    201  SD        70.7660   30.4620    9.8800 S.3    91  MET91      -0.1393
    202  CE        70.5910   30.1420    8.0960 C.3    91  MET91       0.0692
@<TRIPOS>BOND
     1    16    17    1
     2    16    13    1
     3    18    17   ar
     4    18    20   ar
     5     1     2    1
     6    17    19   ar
     7    13    12    1
     8    13    14    1
     9    20    21   ar
    10    51    50    2
    11    19    21   ar
    12    19    22   ar
    13    21    23   ar
    14     2     3    1
    15     2     5    1
    16    15    14    2
    17     3     4    2
    18    14    26   am
    19    22    24   ar
    20    68    67    1
    21    48    49    1
    22    48    45    1
    23    50    49    1
    24    50    52   am
    25    44    45    1
    26     7     9   ar
    27     7     6   ar
    28    23    25   ar
    29     9    11   ar
    30    45    46    1
    31     5     6    1
    32    24    25   ar
    33     6     8   ar
    34    26    32    1
    35    26    27    1
    36    35    36    2
    37    35    34    1
    38    11    10   ar
    39    32    31    1
    40    67    66    1
    41     8    10   ar
    42   202   201    1
    43    33    34    1
    44    33    28   am
    45    46    47    2
    46    27    28    1
    47    27    30    1
    48    34    37    1
    49    66    65    1
    50    31    30    1
    51    37    38    1
    52    28    29    2
    53    40    38   ar
    54    40    42   ar
    55    38    39   ar
    56   201   200    1
    57    65    64    1
    58   200   199    1
    59   119   120    1
    60   119   118    1
    61    42    43   ar
    62   199   196    1
    63   198   197    2
    64    64    61    1
    65   196   197    1
    66   196   195    1
    67    39    41   ar
    68   194   192    1
    69    43    41   ar
    70   178   176   ar
    71    53    54    1
    72   118   117    1
    73    61    60    1
    74    61    62    1
    75   190   189    2
    76   195   189   am
    77    76    74    1
    78   186   184    1
    79   176   175    1
    80   176   177   ar
    81    54    55    1
    82    54    57    1
    83    55    56    2
    84   189   188    1
    85   175   172    1
    86   192   193    1
    87   192   191    1
    88   117   114    1
    89   174   173    2
    90    63    62    2
    91    62    69   am
    92    74    75    1
    93    74    73    1
    94   173   172    1
    95   173   179   am
    96    69    70    1
    97   191   188    1
    98   182   181    2
    99   172   171    1
   100   180   179    1
   101   180   181    1
   102   180   183    1
   103   188   187    1
   104    59    57    1
   105   184   183    1
   106    57    58    1
   107    73    70    1
   108   114   113    1
   109   114   115    1
   110    70    71    1
   111   183   185    1
   112   115   116    2
   113   171   165   am
   114    71    77   am
   115    71    72    2
   116   126   125    1
   117   166   165    2
   118    83    82    2
   119    84    82   am
   120   165   164    1
   121    77    78    1
   122   125   122    1
   123    82    81    1
   124   112   111    1
   125    91    90    1
   126   109   111   ar
   127   109   107   ar
   128   111   110   ar
   129   164   167    1
   130   164   163    1
   131    78    81    1
   132    78    79    1
   133   122   121    1
   134   122   123    1
   135    90    92    1
   136    90    89    1
   137   146   144   am
   138   107   106   ar
   139   167   168    1
   140   110   108   ar
   141    85    79   am
   142    85    86    1
   143    79    80    2
   144   144   145    2
   145   144   143    1
   146   106   108   ar
   147   106   105    1
   148    89    86    1
   149   123   124    2
   150   168   169   ar
   151   168   170   ar
   152   143   140    1
   153   105   102    1
   154    86    87    1
   155    88    87    2
   156   133   135   ar
   157   133   132   ar
   158   135   137   ar
   159   150   149    2
   160   140   139    1
   161   140   141    1
   162   102   103    1
   163   102   101    1
   164   103   104    2
   165   131   132    1
   166   131   128    1
   167   132   134   ar
   168   158   159    2
   169   158   157    1
   170   138   137    1
   171   137   136   ar
   172   139   129   am
   173   147   141   am
   174   147   148    1
   175   149   148    1
   176   149   156   am
   177   141   142    2
   178   101    95   am
   179   157   156    1
   180   157   160    1
   181   129   128    1
   182   129   130    2
   183   134   136   ar
   184   127   128    1
   185   148   151    1
   186   156   162    1
   187   151   152    1
   188    95    96    2
   189    95    94    1
   190    99    98   ar
   191    93    94    1
   192   160   161    1
   193   162   161    1
   194    94    97    1
   195   152   153    1
   196   153   154    1
   197    98    97    1
   198    98   100   ar
   199   154   155    1
