@<TRIPOS>MOLECULE
tmp/3uw1A00.pdb
 102 95 0 0 0
SMALL
GASTEIGER

@<TRIPOS>ATOM
      1  N         45.0460   61.7150   73.1910 N.3     9  LYS9       -0.1245
      2  CA        45.9440   62.2000   72.1280 C.3     9  LYS9        0.1561
      3  C         47.2690   62.7040   72.7370 C.2     9  LYS9        0.2260
      4  O         48.3330   62.4460   72.1920 O.2     9  LYS9       -0.2867
      5  CB        45.2710   63.3050   71.3040 C.3     9  LYS9        0.0271
      6  CG        44.1630   62.7770   70.4020 C.3     9  LYS9        0.0035
      7  CD        43.4090   63.8800   69.7160 C.3     9  LYS9        0.0206
      8  CE        42.3780   63.3220   68.7290 C.3     9  LYS9        0.1093
      9  NZ        41.4760   64.3850   68.2470 N.3     9  LYS9       -0.1314
     10  N         50.5000   65.0840   60.4090 N.3    34  THR34      -0.1203
     11  CA        49.5500   66.1920   60.4000 C.3    34  THR34       0.1994
     12  C         48.2890   65.8220   61.1620 C.2    34  THR34       0.2618
     13  O         47.8530   64.6660   61.1370 O.2    34  THR34      -0.2717
     14  CB        49.1750   66.6080   58.9380 C.3    34  THR34       0.1784
     15  OG1       50.3430   67.1010   58.2950 O.3    34  THR34      -0.2211
     16  CG2       48.0960   67.6870   58.9210 C.3    34  THR34       0.0376
     17  N         47.7130   66.8140   61.8560 N.am   35  GLY35      -0.1942
     18  CA        46.4540   66.6350   62.5540 C.3    35  GLY35       0.2014
     19  C         46.5780   66.8680   64.0420 C.2    35  GLY35       0.2640
     20  O         47.6570   67.2260   64.5380 O.2    35  GLY35      -0.2714
     21  N         45.4740   66.6640   64.7590 N.am   36  SER36      -0.1935
     22  CA        45.4330   67.0100   66.1750 C.3    36  SER36       0.2055
     23  C         46.3180   66.1030   67.0150 C.2    36  SER36       0.2644
     24  O         46.9880   66.5530   67.9520 O.2    36  SER36      -0.2714
     25  CB        44.0020   67.0300   66.7140 C.3    36  SER36       0.2130
     26  OG        43.4100   65.7660   66.6570 O.3    36  SER36      -0.2179
     27  N         46.3620   64.8250   66.6700 N.am   37  THR37      -0.1936
     28  CA        47.1890   63.9100   67.4280 C.3    37  THR37       0.2028
     29  C         48.6730   64.1950   67.1140 C.2    37  THR37       0.2642
     30  O         49.5210   64.2330   68.0280 O.2    37  THR37      -0.2714
     31  CB        46.8250   62.4350   67.1550 C.3    37  THR37       0.1808
     32  OG1       45.3990   62.2510   67.2170 O.3    37  THR37      -0.2208
     33  CG2       47.4750   61.5380   68.1730 C.3    37  THR37       0.0379
     34  N         48.9890   64.3930   65.8380 N.am   38  ALA38      -0.1977
     35  CA        50.3330   64.7630   65.4420 C.3    38  ALA38       0.1597
     36  C         50.7680   66.0440   66.1410 C.2    38  ALA38       0.2287
     37  O         51.9280   66.1850   66.4990 O.2    38  ALA38      -0.2864
     38  CB        50.4050   64.9360   63.9260 C.3    38  ALA38       0.0319
     39  N         52.6950   59.8590   62.6900 N.3    87  ASP87      -0.1225
     40  CA        51.5050   60.5080   62.1630 C.3    87  ASP87       0.1805
     41  C         50.2530   59.8480   62.7350 C.2    87  ASP87       0.2598
     42  O         50.2890   58.6950   63.2120 O.2    87  ASP87      -0.2718
     43  CB        51.5400   60.4310   60.6370 C.3    87  ASP87       0.1424
     44  CG        50.5640   61.3850   59.9340 C.2    87  ASP87       0.3668
     45  OD1       49.8970   62.2210   60.5800 O.co2  87  ASP87      -0.2456
     46  OD2       50.5360   61.3260   58.6770 O.co2  87  ASP87      -0.2456
     47  N         49.1550   60.5790   62.6800 N.am   88  GLY88      -0.1942
     48  CA        47.8650   60.0530   63.0630 C.3    88  GLY88       0.2014
     49  C         47.1890   59.2870   61.9360 C.2    88  GLY88       0.2639
     50  O         47.7680   59.0550   60.8710 O.2    88  GLY88      -0.2714
     51  N         45.9510   58.8870   62.1750 N.am   89  ALA89      -0.1963
     52  CA        45.1290   58.2340   61.1490 C.3    89  ALA89       0.1728
     53  C         43.6900   58.4780   61.4810 C.2    89  ALA89       0.2616
     54  O         43.3280   58.6330   62.6390 O.2    89  ALA89      -0.2715
     55  CB        45.3890   56.7340   61.1030 C.3    89  ALA89       0.0334
     56  N         42.8560   58.5370   60.4590 N.am   90  ASP90      -0.1971
     57  CA        41.4330   58.6590   60.6680 C.3    90  ASP90       0.1709
     58  C         40.8730   57.3240   61.1140 C.2    90  ASP90       0.2293
     59  O         39.9770   57.3010   61.9390 O.2    90  ASP90      -0.2864
     60  CB        40.7320   59.1690   59.4040 C.3    90  ASP90       0.1436
     61  CG        41.2300   60.5400   58.9890 C.2    90  ASP90       0.3671
     62  OD1       41.1290   61.5060   59.7960 O.co2  90  ASP90      -0.2456
     63  OD2       41.7510   60.6580   57.8550 O.co2  90  ASP90      -0.2456
     64  N         43.5770   57.8470   55.8370 N.3   100  LYS100     -0.1231
     65  CA        44.1020   59.1610   56.1500 C.3   100  LYS100      0.1693
     66  C         43.6430   60.1740   55.0880 C.2   100  LYS100      0.2592
     67  O         43.0300   59.8150   54.0620 O.2   100  LYS100     -0.2718
     68  CB        45.6270   59.1130   56.2030 C.3   100  LYS100      0.0285
     69  CG        46.1540   58.3900   57.4530 C.3   100  LYS100      0.0035
     70  CD        47.6840   58.1880   57.4480 C.3   100  LYS100      0.0206
     71  CE        48.4390   59.4980   57.3470 C.3   100  LYS100      0.1093
     72  NZ        47.9910   60.4590   58.3840 N.3   100  LYS100     -0.1314
     73  N         43.8980   61.4520   55.3550 N.am  101  GLY101     -0.1957
     74  CA        43.4870   62.5080   54.4780 C.3   101  GLY101      0.1869
     75  C         42.2140   63.2570   54.9080 C.2   101  GLY101      0.2309
     76  O         41.7690   64.1450   54.1880 O.2   101  GLY101     -0.2863
     77  N         41.8390   65.4140   57.1150 N.3   103  GLY103     -0.1210
     78  CA        42.1930   66.8140   57.2650 C.3   103  GLY103      0.1956
     79  C         43.0340   67.2730   56.0850 C.2   103  GLY103      0.2612
     80  O         42.7570   66.9130   54.9460 O.2   103  GLY103     -0.2717
     81  N         44.0780   68.0470   56.3350 N.am  104  GLY104     -0.1956
     82  CA        44.9280   68.4930   55.2360 C.3   104  GLY104      0.1869
     83  C         45.8870   67.4590   54.6530 C.2   104  GLY104      0.2309
     84  O         46.0220   66.3610   55.1640 O.2   104  GLY104     -0.2863
     85  N         51.5460   63.6010   53.1500 N.3   109  GLU109     -0.1245
     86  CA        51.6870   62.5940   54.1840 C.3   109  GLU109      0.1567
     87  C         52.1140   61.2780   53.5700 C.2   109  GLU109      0.2260
     88  O         52.9710   60.6110   54.0820 O.2   109  GLU109     -0.2867
     89  CB        50.3690   62.3730   54.9380 C.3   109  GLU109      0.0388
     90  CG        49.9580   63.5390   55.8070 C.3   109  GLU109      0.1160
     91  CD        48.6010   63.2940   56.4210 C.2   109  GLU109      0.3649
     92  OE1       47.7570   62.7110   55.7240 O.co2 109  GLU109     -0.2457
     93  OE2       48.3960   63.6580   57.6030 O.co2 109  GLU109     -0.2457
     94  N         40.0330   55.1590   66.8900 N.3   127  LYS127     -0.1245
     95  CA        40.4930   55.0400   65.5080 C.3   127  LYS127      0.1561
     96  C         40.6170   53.5640   65.0510 C.2   127  LYS127      0.2260
     97  O         40.6220   53.3010   63.8450 O.2   127  LYS127     -0.2867
     98  CB        41.8480   55.7340   65.2930 C.3   127  LYS127      0.0271
     99  CG        41.9490   57.2240   65.7130 C.3   127  LYS127      0.0035
    100  CD        40.8020   58.0810   65.2230 C.3   127  LYS127      0.0206
    101  CE        41.0540   59.5690   65.4250 C.3   127  LYS127      0.1093
    102  NZ        42.4030   60.0340   64.9790 N.3   127  LYS127     -0.1314
@<TRIPOS>BOND
     1    85    86    1
     2    87    88    2
     3    87    86    1
     4    67    66    2
     5    86    89    1
     6    76    75    2
     7    74    75    1
     8    74    73    1
     9    83    84    2
    10    83    82    1
    11    89    90    1
    12    80    79    2
    13    66    73   am
    14    66    65    1
    15    82    81    1
    16    92    91   ar
    17    90    91    1
    18    64    65    1
    19    79    81   am
    20    79    78    1
    21    65    68    1
    22    68    69    1
    23    91    93   ar
    24    77    78    1
    25    71    70    1
    26    71    72    1
    27    70    69    1
    28    63    61   ar
    29    15    14    1
    30    46    44   ar
    31    16    14    1
    32    14    11    1
    33    61    60    1
    34    61    62   ar
    35    60    57    1
    36    44    45   ar
    37    44    43    1
    38    11    10    1
    39    11    12    1
    40    56    57    1
    41    56    53   am
    42    43    40    1
    43    57    58    1
    44    50    49    2
    45    55    52    1
    46    58    59    2
    47    13    12    2
    48    52    53    1
    49    52    51    1
    50    12    17   am
    51    53    54    2
    52    17    18    1
    53    49    51   am
    54    49    48    1
    55    40    39    1
    56    40    41    1
    57    18    19    1
    58    47    41   am
    59    47    48    1
    60    41    42    2
    61    97    96    2
    62    38    35    1
    63    19    20    2
    64    19    21   am
    65    21    22    1
    66   102   101    1
    67    96    95    1
    68   100   101    1
    69   100    99    1
    70    98    95    1
    71    98    99    1
    72    35    34    1
    73    35    36    1
    74    95    94    1
    75    34    29   am
    76    36    37    2
    77    22    25    1
    78    22    23    1
    79    26    25    1
    80    27    23   am
    81    27    28    1
    82    23    24    2
    83    29    28    1
    84    29    30    2
    85    31    32    1
    86    31    28    1
    87    31    33    1
    88     9     8    1
    89     8     7    1
    90     7     6    1
    91     6     5    1
    92     5     2    1
    93     2     3    1
    94     2     1    1
    95     4     3    2
