@<TRIPOS>MOLECULE
tmp/3uw4A00.pdb
 125 124 0 0 0
SMALL
GASTEIGER

@<TRIPOS>ATOM
      1  N        -12.8530    3.9760  -13.1470 N.3    33  VAL33      -0.1245
      2  CA       -13.0450    3.4180  -14.4940 C.3    33  VAL33       0.1561
      3  C        -14.4490    3.7170  -15.0500 C.2    33  VAL33       0.2260
      4  O        -14.7380    3.4050  -16.2030 O.2    33  VAL33      -0.2867
      5  CB       -12.6830    1.9070  -14.6020 C.3    33  VAL33       0.0252
      6  CG1      -11.2530    1.6560  -14.1470 C.3    33  VAL33       0.0019
      7  CG2      -13.6420    1.0160  -13.8330 C.3    33  VAL33       0.0019
      8  N        -15.9730    0.9460   -9.1540 N.3    38  ASP38      -0.1225
      9  CA       -14.7900    0.2190   -9.6130 C.3    38  ASP38       0.1805
     10  C        -13.6320    1.1890   -9.8450 C.2    38  ASP38       0.2598
     11  O        -13.7730    2.1760  -10.5840 O.2    38  ASP38      -0.2718
     12  CB       -15.0480   -0.5070  -10.9510 C.3    38  ASP38       0.1424
     13  CG       -16.1130   -1.6100  -10.8690 C.2    38  ASP38       0.3668
     14  OD1      -16.7750   -1.7890   -9.8230 O.co2  38  ASP38      -0.2456
     15  OD2      -16.3150   -2.3020  -11.9050 O.co2  38  ASP38      -0.2456
     16  N        -12.4940    0.8800   -9.2400 N.am   39  VAL39      -0.1966
     17  CA       -11.2760    1.6670   -9.4350 C.3    39  VAL39       0.1727
     18  C        -10.0860    0.7700   -9.7640 C.2    39  VAL39       0.2616
     19  O        -10.0910   -0.4210   -9.4290 O.2    39  VAL39      -0.2715
     20  CB       -10.9460    2.5050   -8.1880 C.3    39  VAL39       0.0290
     21  CG1      -12.0750    3.4740   -7.8790 C.3    39  VAL39       0.0023
     22  CG2      -10.6130    1.6300   -6.9910 C.3    39  VAL39       0.0023
     23  N         -9.0680    1.3520  -10.3850 N.am   40  LYS40      -0.1977
     24  CA        -7.8600    0.6080  -10.7520 C.3    40  LYS40       0.1596
     25  C         -6.6280    1.3700  -10.3260 C.2    40  LYS40       0.2287
     26  O         -6.6270    2.6040  -10.3500 O.2    40  LYS40      -0.2864
     27  CB        -7.8150    0.3640  -12.2740 C.3    40  LYS40       0.0298
     28  CG        -8.7070   -0.7720  -12.7370 C.3    40  LYS40       0.0038
     29  CD        -8.1410   -1.4920  -13.9610 C.3    40  LYS40       0.0206
     30  CE        -8.0520   -0.5940  -15.1860 C.3    40  LYS40       0.1093
     31  NZ        -7.2510   -1.2280  -16.2730 N.3    40  LYS40      -0.1314
     32  N         -7.5850   -3.9270   -9.5950 N.3    47  GLY47      -0.1210
     33  CA        -8.8650   -3.2190   -9.4810 C.3    47  GLY47       0.1956
     34  C         -9.5570   -3.6360   -8.2040 C.2    47  GLY47       0.2612
     35  O         -9.4520   -4.7980   -7.8060 O.2    47  GLY47      -0.2717
     36  N        -10.2350   -2.6750   -7.5690 N.am   48  LEU48      -0.1965
     37  CA       -11.0350   -2.8890   -6.3660 C.3    48  LEU48       0.1728
     38  C        -12.4590   -2.3610   -6.5670 C.2    48  LEU48       0.2616
     39  O        -12.6720   -1.4030   -7.3120 O.2    48  LEU48      -0.2715
     40  CB       -10.3820   -2.1790   -5.1730 C.3    48  LEU48       0.0311
     41  CG        -9.0260   -2.7280   -4.7260 C.3    48  LEU48       0.0022
     42  CD1       -8.5340   -1.9510   -3.5210 C.3    48  LEU48       0.0001
     43  CD2       -9.1220   -4.2120   -4.3960 C.3    48  LEU48       0.0001
     44  N        -13.4260   -2.9880   -5.8970 N.am   49  ARG49      -0.1963
     45  CA       -14.8370   -2.5900   -5.9800 C.3    49  ARG49       0.1729
     46  C        -15.5190   -3.0190   -4.6630 C.2    49  ARG49       0.2616
     47  O        -14.8690   -3.5990   -3.7810 O.2    49  ARG49      -0.2715
     48  CB       -15.5180   -3.2790   -7.1620 C.3    49  ARG49       0.0348
     49  CG       -15.5880   -4.8050   -7.0310 C.3    49  ARG49       0.0492
     50  CD       -16.6080   -5.4150   -7.9780 C.3    49  ARG49       0.2205
     51  NE       -16.3700   -4.9740   -9.3470 N.pl3  49  ARG49      -0.0865
     52  CZ       -15.6900   -5.6590  -10.2660 C.cat  49  ARG49       0.5346
     53  NH1      -15.1630   -6.8550   -9.9900 N.pl3  49  ARG49       0.1354
     54  NH2      -15.5390   -5.1430  -11.4820 N.pl3  49  ARG49       0.1354
     55  N        -16.8070   -2.7090   -4.5240 N.am   50  CYS50      -0.1954
     56  CA       -17.5830   -3.1030   -3.3430 C.3    50  CYS50       0.1843
     57  C        -16.9600   -2.5590   -2.0590 C.2    50  CYS50       0.2625
     58  O        -16.8170   -3.2540   -1.0530 O.2    50  CYS50      -0.2714
     59  CB       -17.8060   -4.6300   -3.3110 C.3    50  CYS50       0.0997
     60  SG       -18.6280   -5.2250   -4.8180 S.3    50  CYS50      -0.0797
     61  N        -16.6160   -1.2760   -2.1140 N.am   51  TRP51      -0.1960
     62  CA       -16.1000   -0.5190   -0.9800 C.3    51  TRP51       0.1771
     63  C        -17.1070   -0.4890    0.1440 C.2    51  TRP51       0.2619
     64  O        -18.3060   -0.3690   -0.1030 O.2    51  TRP51      -0.2715
     65  CB       -15.7380    0.8820   -1.4650 C.3    51  TRP51       0.0590
     66  CG       -14.5720    0.8560   -2.4380 C.ar   51  TRP51       0.0006
     67  CD1      -14.6130    0.7550   -3.8270 C.ar   51  TRP51       0.0946
     68  CD2      -13.1560    0.8950   -2.1000 C.ar   51  TRP51       0.0152
     69  NE1      -13.3460    0.7400   -4.3600 N.ar   51  TRP51      -0.2442
     70  CE2      -12.4220    0.8160   -3.3690 C.ar   51  TRP51       0.0810
     71  CE3      -12.4380    0.9850   -0.9090 C.ar   51  TRP51       0.0012
     72  CZ2      -11.0330    0.8380   -3.4130 C.ar   51  TRP51       0.0191
     73  CZ3      -11.0410    0.9980   -0.9670 C.ar   51  TRP51       0.0001
     74  CH2      -10.3550    0.9440   -2.1960 C.ar   51  TRP51       0.0015
     75  N        -16.6340   -0.6220    1.3830 N.am   52  GLU52      -0.1977
     76  CA       -17.4900   -0.7060    2.5720 C.3    52  GLU52       0.1602
     77  C        -17.1850    0.4260    3.5540 C.2    52  GLU52       0.2287
     78  O        -16.0760    0.9590    3.5600 O.2    52  GLU52      -0.2864
     79  CB       -17.2590   -2.0360    3.3030 C.3    52  GLU52       0.0415
     80  CG       -17.7610   -3.2930    2.6040 C.3    52  GLU52       0.1163
     81  CD       -17.3820   -4.5700    3.3580 C.2    52  GLU52       0.3649
     82  OE1      -17.1270   -4.5080    4.5820 O.co2  52  GLU52      -0.2457
     83  OE2      -17.3280   -5.6510    2.7290 O.co2  52  GLU52      -0.2457
     84  N        -13.5280    1.2290    5.1490 N.3    55  ASP55      -0.1239
     85  CA       -12.4200    0.8690    4.2620 C.3    55  ASP55       0.1674
     86  C        -11.4270    2.0230    4.1270 C.2    55  ASP55       0.2266
     87  O        -11.8340    3.1800    4.0170 O.2    55  ASP55      -0.2867
     88  CB       -12.9240    0.5180    2.8540 C.3    55  ASP55       0.1410
     89  CG       -13.4110   -0.9280    2.7210 C.2    55  ASP55       0.3668
     90  OD1      -13.3530   -1.7200    3.6850 O.co2  55  ASP55      -0.2456
     91  OD2      -13.8690   -1.2710    1.6110 O.co2  55  ASP55      -0.2456
     92  N         -6.5420   -1.4790    1.8190 N.3    60  GLU60      -0.1245
     93  CA        -7.0700   -2.3810    0.8120 C.3    60  GLU60       0.1567
     94  C         -6.0260   -2.6300   -0.2770 C.2    60  GLU60       0.2260
     95  O         -5.8910   -3.7550   -0.7590 O.2    60  GLU60      -0.2867
     96  CB        -8.3880   -1.8550    0.2220 C.3    60  GLU60       0.0388
     97  CG        -9.5550   -1.8160    1.2060 C.3    60  GLU60       0.1160
     98  CD        -9.8460   -3.1640    1.8670 C.2    60  GLU60       0.3649
     99  OE1      -10.3500   -4.0990    1.1980 O.co2  60  GLU60      -0.2457
    100  OE2       -9.5700   -3.2980    3.0830 O.co2  60  GLU60      -0.2457
    101  N         -4.6550   -6.6070   -0.9040 N.3    64  TRP64      -0.1227
    102  CA        -4.9290   -7.3340   -2.1360 C.3    64  TRP64       0.1737
    103  C         -3.8020   -7.3190   -3.1150 C.2    64  TRP64       0.2595
    104  O         -3.6380   -8.2770   -3.8850 O.2    64  TRP64      -0.2718
    105  CB        -6.1860   -6.7850   -2.7980 C.3    64  TRP64       0.0564
    106  CG        -7.4090   -6.9080   -1.9260 C.ar   64  TRP64       0.0003
    107  CD1       -8.1890   -5.8780   -1.4080 C.ar   64  TRP64       0.0946
    108  CD2       -8.0160   -8.1430   -1.3970 C.ar   64  TRP64       0.0152
    109  NE1       -9.2120   -6.3760   -0.6420 N.ar   64  TRP64      -0.2442
    110  CE2       -9.1750   -7.7180   -0.5990 C.ar   64  TRP64       0.0810
    111  CE3       -7.7440   -9.5020   -1.5190 C.ar   64  TRP64       0.0012
    112  CZ2      -10.0110   -8.6340    0.0410 C.ar   64  TRP64       0.0191
    113  CZ3       -8.5950  -10.4170   -0.8620 C.ar   64  TRP64       0.0001
    114  CH2       -9.6960   -9.9850   -0.1040 C.ar   64  TRP64       0.0015
    115  N         -3.0050   -6.2470   -3.0980 N.am   65  PHE65      -0.1976
    116  CA        -1.9290   -6.1040   -4.0960 C.3    65  PHE65       0.1639
    117  C         -0.5930   -5.7250   -3.4420 C.2    65  PHE65       0.2290
    118  O          0.0010   -4.7080   -3.8090 O.2    65  PHE65      -0.2864
    119  CB        -2.3380   -5.0760   -5.1750 C.3    65  PHE65       0.0560
    120  CG        -3.7200   -5.3100   -5.7400 C.ar   65  PHE65      -0.0200
    121  CD1       -4.0130   -6.4790   -6.4540 C.ar   65  PHE65      -0.0042
    122  CD2       -4.7220   -4.3700   -5.5560 C.ar   65  PHE65      -0.0042
    123  CE1       -5.2910   -6.7130   -6.9560 C.ar   65  PHE65      -0.0003
    124  CE2       -5.9970   -4.6010   -6.0530 C.ar   65  PHE65      -0.0003
    125  CZ        -6.2790   -5.7740   -6.7470 C.ar   65  PHE65      -0.0000
@<TRIPOS>BOND
     1    31    30    1
     2     4     3    2
     3    30    29    1
     4     3     2    1
     5     5     2    1
     6     5     6    1
     7     5     7    1
     8     2     1    1
     9    29    28    1
    10    28    27    1
    11    27    24    1
    12    15    13   ar
    13    54    52    1
    14    12    13    1
    15    12     9    1
    16    13    14   ar
    17    24    23    1
    18    24    25    1
    19    11    10    2
    20    23    18   am
    21    26    25    2
    22    52    53    1
    23    52    51    2
    24    10     9    1
    25    10    16   am
    26    18    17    1
    27    18    19    2
    28     9     8    1
    29    32    33    1
    30    33    34    1
    31    17    16    1
    32    17    20    1
    33    51    50    1
    34    34    35    2
    35    34    36   am
    36    20    21    1
    37    20    22    1
    38    50    49    1
    39    36    37    1
    40    39    38    2
    41    48    49    1
    42    48    45    1
    43   123   125   ar
    44   123   121   ar
    45   125   124   ar
    46    38    37    1
    47    38    44   am
    48   121   120   ar
    49    37    40    1
    50   124   122   ar
    51    45    44    1
    52    45    46    1
    53   120   122   ar
    54   120   119    1
    55   119   116    1
    56    40    41    1
    57    60    59    1
    58    41    43    1
    59    41    42    1
    60    46    55   am
    61    46    47    2
    62    55    56    1
    63    69    67   ar
    64    69    70   ar
    65   116   117    1
    66   116   115    1
    67   104   103    2
    68    67    66   ar
    69   118   117    2
    70    72    70   ar
    71    72    74   ar
    72    70    68   ar
    73    56    59    1
    74    56    57    1
    75   103   115   am
    76   103   102    1
    77   105   102    1
    78   105   106    1
    79    66    68   ar
    80    66    65    1
    81    74    73   ar
    82   102   101    1
    83    61    57   am
    84    61    62    1
    85    68    71   ar
    86    57    58    2
    87   106   107   ar
    88   106   108   ar
    89   111   108   ar
    90   111   113   ar
    91    65    62    1
    92   107   109   ar
    93   108   110   ar
    94    62    63    1
    95    73    71   ar
    96   113   114   ar
    97    95    94    2
    98   109   110   ar
    99   110   112   ar
   100    94    93    1
   101   114   112   ar
   102    64    63    2
   103    63    75   am
   104    96    93    1
   105    96    97    1
   106    93    92    1
   107    99    98   ar
   108    97    98    1
   109    75    76    1
   110    91    89   ar
   111    98   100   ar
   112    76    79    1
   113    76    77    1
   114    80    79    1
   115    80    81    1
   116    89    88    1
   117    89    90   ar
   118    83    81   ar
   119    88    85    1
   120    81    82   ar
   121    77    78    2
   122    87    86    2
   123    86    85    1
   124    85    84    1
