@<TRIPOS>MOLECULE
tmp/3uw5A00.pdb
 135 134 0 0 0
SMALL
GASTEIGER

@<TRIPOS>ATOM
      1  N         77.1610   63.3740   26.4100 N.3    39  THR39      -0.1218
      2  CA        75.7040   63.3560   26.2200 C.3    39  THR39       0.1862
      3  C         75.2240   61.9150   26.1670 C.2    39  THR39       0.2287
      4  O         75.3800   61.2470   25.1450 O.2    39  THR39      -0.2866
      5  CB        75.2830   64.0690   24.9150 C.3    39  THR39       0.1770
      6  OG1       75.7610   63.3460   23.7710 O.3    39  THR39      -0.2211
      7  CG2       75.8350   65.4750   24.8700 C.3    39  THR39       0.0375
      8  N         78.8270   59.5850   22.8250 N.3    44  LYS44      -0.1231
      9  CA        78.3880   60.8330   22.2060 C.3    44  LYS44       0.1693
     10  C         78.8070   62.0250   23.0570 C.2    44  LYS44       0.2592
     11  O         78.6880   61.9900   24.2800 O.2    44  LYS44      -0.2718
     12  CB        76.8680   60.8450   22.0250 C.3    44  LYS44       0.0285
     13  CG        76.3430   59.8330   21.0210 C.3    44  LYS44       0.0035
     14  CD        74.8190   59.8510   20.9870 C.3    44  LYS44       0.0206
     15  CE        74.2520   58.9900   19.8710 C.3    44  LYS44       0.1093
     16  NZ        74.7640   57.5940   19.9180 N.3    44  LYS44      -0.1314
     17  N         79.3050   63.0750   22.4090 N.am   45  VAL45      -0.1966
     18  CA        79.6020   64.3400   23.0830 C.3    45  VAL45       0.1727
     19  C         79.0980   65.5120   22.2500 C.2    45  VAL45       0.2616
     20  O         78.8910   65.3760   21.0440 O.2    45  VAL45      -0.2715
     21  CB        81.1140   64.5320   23.3210 C.3    45  VAL45       0.0290
     22  CG1       81.6920   63.3450   24.0770 C.3    45  VAL45       0.0023
     23  CG2       81.8480   64.7430   22.0010 C.3    45  VAL45       0.0023
     24  N         78.9110   66.6570   22.9010 N.am   46  ARG46      -0.1977
     25  CA        78.6060   67.9090   22.2150 C.3    46  ARG46       0.1597
     26  C         79.4930   69.0320   22.7290 C.2    46  ARG46       0.2287
     27  O         79.8710   69.0510   23.8970 O.2    46  ARG46      -0.2864
     28  CB        77.1500   68.3180   22.4360 C.3    46  ARG46       0.0334
     29  CG        76.1380   67.6130   21.5580 C.3    46  ARG46       0.0492
     30  CD        74.7820   68.2710   21.7400 C.3    46  ARG46       0.2205
     31  NE        73.6930   67.5050   21.1510 N.pl3  46  ARG46      -0.0865
     32  CZ        73.3340   67.5500   19.8720 C.cat  46  ARG46       0.5346
     33  NH1       73.9860   68.3170   19.0000 N.pl3  46  ARG46       0.1354
     34  NH2       72.3070   66.8140   19.4580 N.pl3  46  ARG46       0.1354
     35  N         77.8250   67.8230   17.6260 N.3    53  GLY53      -0.1210
     36  CA        77.8170   66.5130   18.2650 C.3    53  GLY53       0.1956
     37  C         78.7180   65.5240   17.5490 C.2    53  GLY53       0.2612
     38  O         78.6280   65.3840   16.3340 O.2    53  GLY53      -0.2717
     39  N         79.5800   64.8420   18.3020 N.am   54  LEU54      -0.1965
     40  CA        80.4830   63.8350   17.7430 C.3    54  LEU54       0.1728
     41  C         80.3050   62.4840   18.4330 C.2    54  LEU54       0.2616
     42  O         80.1640   62.4100   19.6540 O.2    54  LEU54      -0.2715
     43  CB        81.9360   64.2830   17.8800 C.3    54  LEU54       0.0311
     44  CG        82.3590   65.4720   17.0130 C.3    54  LEU54       0.0022
     45  CD1       83.7690   65.9120   17.3820 C.3    54  LEU54       0.0001
     46  CD2       82.2630   65.1530   15.5240 C.3    54  LEU54       0.0001
     47  N         80.3230   61.4240   17.6300 N.am   55  GLN55      -0.1963
     48  CA        80.2020   60.0560   18.1170 C.3    55  GLN55       0.1733
     49  C         81.1900   59.1690   17.3550 C.2    55  GLN55       0.2617
     50  O         81.9830   59.6660   16.5610 O.2    55  GLN55      -0.2715
     51  CB        78.7670   59.5590   17.9200 C.3    55  GLN55       0.0408
     52  CG        78.3230   59.5200   16.4640 C.3    55  GLN55       0.0908
     53  CD        76.9470   58.9070   16.2840 C.2    55  GLN55       0.2608
     54  OE1       76.1060   58.9640   17.1780 O.2    55  GLN55      -0.2717
     55  NE2       76.7160   58.3130   15.1230 N.am   55  GLN55      -0.0878
     56  N         81.1350   57.8620   17.6060 N.am   56  SER56      -0.1936
     57  CA        81.9730   56.8850   16.9000 C.3    56  SER56       0.2055
     58  C         83.4580   57.2330   17.0220 C.2    56  SER56       0.2643
     59  O         84.2000   57.2260   16.0360 O.2    56  SER56      -0.2714
     60  CB        81.5580   56.7750   15.4260 C.3    56  SER56       0.2130
     61  OG        80.1800   56.4630   15.3100 O.3    56  SER56      -0.2179
     62  N         83.8760   57.5300   18.2490 N.am   57  TRP57      -0.1959
     63  CA        85.2640   57.8670   18.5320 C.3    57  TRP57       0.1771
     64  C         86.1540   56.6750   18.3510 C.2    57  TRP57       0.2619
     65  O         85.8350   55.5800   18.8120 O.2    57  TRP57      -0.2715
     66  CB        85.3950   58.4050   19.9500 C.3    57  TRP57       0.0590
     67  CG        84.7800   59.7670   20.0950 C.ar   57  TRP57       0.0006
     68  CD1       83.4510   60.0720   20.3470 C.ar   57  TRP57       0.0946
     69  CD2       85.4560   61.0600   19.9690 C.ar   57  TRP57       0.0152
     70  NE1       83.2600   61.4290   20.3960 N.ar   57  TRP57      -0.2442
     71  CE2       84.4290   62.0800   20.1720 C.ar   57  TRP57       0.0810
     72  CE3       86.7580   61.4580   19.7160 C.ar   57  TRP57       0.0012
     73  CZ2       84.7210   63.4310   20.1210 C.ar   57  TRP57       0.0191
     74  CZ3       87.0430   62.8230   19.6760 C.ar   57  TRP57       0.0001
     75  CH2       86.0470   63.7850   19.8740 C.ar   57  TRP57       0.0015
     76  N         87.2710   56.8800   17.6630 N.am   58  LYS58      -0.1977
     77  CA        88.2740   55.8370   17.4620 C.3    58  LYS58       0.1596
     78  C         89.4230   56.0830   18.4290 C.2    58  LYS58       0.2287
     79  O         89.6800   57.2280   18.8040 O.2    58  LYS58      -0.2864
     80  CB        88.7780   55.8610   16.0230 C.3    58  LYS58       0.0298
     81  CG        87.7010   55.5860   14.9830 C.3    58  LYS58       0.0038
     82  CD        87.1070   54.1940   15.1450 C.3    58  LYS58       0.0206
     83  CE        86.2810   53.7860   13.9350 C.3    58  LYS58       0.1093
     84  NZ        85.9310   52.3380   13.9630 N.3    58  LYS58      -0.1314
     85  N         91.8940   59.2950   18.7250 N.3    61  ASP61      -0.1239
     86  CA        91.2980   60.5050   18.1450 C.3    61  ASP61       0.1674
     87  C         91.6500   61.6760   19.0440 C.2    61  ASP61       0.2266
     88  O         91.6060   61.5500   20.2660 O.2    61  ASP61      -0.2867
     89  CB        89.7700   60.4190   18.0910 C.3    61  ASP61       0.1410
     90  CG        89.2360   59.7900   16.8220 C.2    61  ASP61       0.3668
     91  OD1       89.9920   59.5260   15.8670 O.co2  61  ASP61      -0.2456
     92  OD2       88.0110   59.5600   16.7960 O.co2  61  ASP61      -0.2456
     93  N         89.4120   66.8620   15.9330 N.3    66  GLU66      -0.1245
     94  CA        88.0550   66.5130   15.5170 C.3    66  GLU66       0.1567
     95  C         87.1320   67.7400   15.5490 C.2    66  GLU66       0.2260
     96  O         86.3020   67.9170   14.6580 O.2    66  GLU66      -0.2867
     97  CB        87.4880   65.3840   16.3920 C.3    66  GLU66       0.0388
     98  CG        88.2490   64.0650   16.2950 C.3    66  GLU66       0.1160
     99  CD        88.2810   63.4860   14.8890 C.2    66  GLU66       0.3649
    100  OE1       87.2080   63.3410   14.2680 O.co2  66  GLU66      -0.2457
    101  OE2       89.3860   63.1750   14.3960 O.co2  66  GLU66      -0.2457
    102  N         88.0660   69.7540   12.5060 N.3    69  LYS69      -0.1231
    103  CA        87.7010   69.0340   11.2920 C.3    69  LYS69       0.1693
    104  C         86.2210   69.2050   10.9540 C.2    69  LYS69       0.2592
    105  O         85.8730   69.5000    9.8080 O.2    69  LYS69      -0.2718
    106  CB        88.0270   67.5430   11.4500 C.3    69  LYS69       0.0285
    107  CG        87.7360   66.6960   10.2200 C.3    69  LYS69       0.0035
    108  CD        88.2170   65.2610   10.3940 C.3    69  LYS69       0.0206
    109  CE        87.9450   64.4380    9.1420 C.3    69  LYS69       0.1093
    110  NZ        88.3930   63.0230    9.2780 N.3    69  LYS69      -0.1314
    111  N         85.3630   69.0370   11.9560 N.am   70  TRP70      -0.1962
    112  CA        83.9190   68.9620   11.7380 C.3    70  TRP70       0.1771
    113  C         83.1890   70.2590   11.9650 C.2    70  TRP70       0.2619
    114  O         82.1750   70.5160   11.3110 O.2    70  TRP70      -0.2715
    115  CB        83.3200   67.8700   12.6110 C.3    70  TRP70       0.0590
    116  CG        83.8320   66.4910   12.2670 C.ar   70  TRP70       0.0006
    117  CD1       84.6410   65.6640   13.0450 C.ar   70  TRP70       0.0946
    118  CD2       83.5940   65.7340   11.0290 C.ar   70  TRP70       0.0152
    119  NE1       84.9040   64.4860   12.3940 N.ar   70  TRP70      -0.2442
    120  CE2       84.3040   64.4630   11.1830 C.ar   70  TRP70       0.0810
    121  CE3       82.8840   65.9720    9.8580 C.ar   70  TRP70       0.0012
    122  CZ2       84.2890   63.4900   10.1950 C.ar   70  TRP70       0.0191
    123  CZ3       82.8780   64.9820    8.8690 C.ar   70  TRP70       0.0001
    124  CH2       83.5660   63.7710    9.0360 C.ar   70  TRP70       0.0015
    125  N         83.6830   71.0860   12.8860 N.am   71  PHE71      -0.1974
    126  CA        83.0140   72.3440   13.2370 C.3    71  PHE71       0.1639
    127  C         83.9830   73.5280   13.1940 C.2    71  PHE71       0.2290
    128  O         84.1570   74.2370   14.1840 O.2    71  PHE71      -0.2864
    129  CB        82.3510   72.2300   14.6130 C.3    71  PHE71       0.0560
    130  CG        81.6270   70.9320   14.8300 C.ar   71  PHE71      -0.0200
    131  CD1       80.5020   70.6100   14.0820 C.ar   71  PHE71      -0.0042
    132  CD2       82.0740   70.0280   15.7810 C.ar   71  PHE71      -0.0042
    133  CE1       79.8390   69.4070   14.2820 C.ar   71  PHE71      -0.0003
    134  CE2       81.4150   68.8290   15.9860 C.ar   71  PHE71      -0.0003
    135  CZ        80.2980   68.5160   15.2360 C.ar   71  PHE71      -0.0000
@<TRIPOS>BOND
     1   123   124   ar
     2   123   121   ar
     3   124   122   ar
     4   109   110    1
     5   109   108    1
     6   105   104    2
     7   121   118   ar
     8   122   120   ar
     9   107   108    1
    10   107   106    1
    11   104   103    1
    12   104   111   am
    13   118   120   ar
    14   118   116   ar
    15   120   119   ar
    16   103   106    1
    17   103   102    1
    18   114   113    2
    19   112   111    1
    20   112   113    1
    21   112   115    1
    22   113   125   am
    23   116   115    1
    24   116   117   ar
    25   119   117   ar
    26   125   126    1
    27   127   126    1
    28   127   128    2
    29   126   129    1
    30    83    84    1
    31    83    82    1
    32   131   133   ar
    33   131   130   ar
    34   100    99   ar
    35   133   135   ar
    36   101    99   ar
    37   129   130    1
    38    96    95    2
    39   130   132   ar
    40    99    98    1
    41    81    82    1
    42    81    80    1
    43    55    53   am
    44   135   134   ar
    45    61    60    1
    46    60    57    1
    47    94    95    1
    48    94    93    1
    49    94    97    1
    50    46    44    1
    51   132   134   ar
    52    91    90   ar
    53    80    77    1
    54    59    58    2
    55    53    52    1
    56    53    54    2
    57    98    97    1
    58    38    37    2
    59    52    51    1
    60    50    49    2
    61    92    90   ar
    62    90    89    1
    63    57    58    1
    64    57    56    1
    65    44    45    1
    66    44    43    1
    67    58    62   am
    68    49    56   am
    69    49    48    1
    70    77    76    1
    71    77    78    1
    72    37    36    1
    73    37    39   am
    74    35    36    1
    75    47    48    1
    76    47    41   am
    77    76    64   am
    78    40    43    1
    79    40    39    1
    80    40    41    1
    81    51    48    1
    82    89    86    1
    83    86    85    1
    84    86    87    1
    85    62    63    1
    86    64    63    1
    87    64    65    2
    88    78    79    2
    89    41    42    2
    90    63    66    1
    91    33    32    1
    92    87    88    2
    93    34    32    1
    94    74    72   ar
    95    74    75   ar
    96    72    69   ar
    97    15    16    1
    98    15    14    1
    99    32    31    2
   100    75    73   ar
   101    66    67    1
   102    69    67   ar
   103    69    71   ar
   104    67    68   ar
   105    73    71   ar
   106    71    70   ar
   107    68    70   ar
   108    14    13    1
   109    13    12    1
   110    20    19    2
   111    31    30    1
   112    29    30    1
   113    29    28    1
   114    23    21    1
   115    12     9    1
   116     9     8    1
   117     9    10    1
   118    25    28    1
   119    25    26    1
   120    25    24    1
   121    19    24   am
   122    19    18    1
   123    17    10   am
   124    17    18    1
   125    26    27    2
   126    10    11    2
   127    18    21    1
   128    21    22    1
   129     6     5    1
   130     7     5    1
   131     5     2    1
   132     4     3    2
   133     3     2    1
   134     2     1    1
