@<TRIPOS>MOLECULE
tmp/3uw9A00.pdb
 137 134 0 0 0
SMALL
GASTEIGER

@<TRIPOS>ATOM
      1  N         26.1080    5.5450   48.0180 N.3    36  GLN36      -0.1231
      2  CA        26.6730    4.2440   47.7430 C.3    36  GLN36       0.1698
      3  C         28.1910    4.2600   47.5750 C.2    36  GLN36       0.2592
      4  O         28.8390    3.2440   47.7420 O.2    36  GLN36      -0.2718
      5  CB        26.0660    3.7600   46.4440 C.3    36  GLN36       0.0381
      6  CG        26.6440    2.4810   45.9130 C.3    36  GLN36       0.0905
      7  CD        26.2710    2.2450   44.4690 C.2    36  GLN36       0.2608
      8  OE1       25.2240    2.7030   43.9870 O.2    36  GLN36      -0.2717
      9  NE2       27.1280    1.5150   43.7640 N.am   36  GLN36      -0.0878
     10  N         28.7320    5.4030   47.1770 N.am   37  PHE37      -0.1976
     11  CA        30.1730    5.5890   46.9580 C.3    37  PHE37       0.1639
     12  C         30.9980    6.1090   48.1540 C.2    37  PHE37       0.2290
     13  O         32.1950    6.2950   48.0230 O.2    37  PHE37      -0.2864
     14  CB        30.3880    6.5780   45.7840 C.3    37  PHE37       0.0560
     15  CG        29.9430    6.0560   44.4520 C.ar   37  PHE37      -0.0200
     16  CD1       29.7930    4.6920   44.2210 C.ar   37  PHE37      -0.0042
     17  CD2       29.7430    6.9260   43.3940 C.ar   37  PHE37      -0.0042
     18  CE1       29.4170    4.2060   42.9840 C.ar   37  PHE37      -0.0003
     19  CE2       29.3400    6.4450   42.1480 C.ar   37  PHE37      -0.0003
     20  CZ        29.1740    5.0750   41.9380 C.ar   37  PHE37      -0.0000
     21  N         32.1190    4.7290   50.8120 N.3    39  TRP39      -0.1228
     22  CA        32.8950    3.8070   51.6320 C.3    39  TRP39       0.1722
     23  C         34.4210    3.9810   51.4700 C.2    39  TRP39       0.2437
     24  O         35.1400    3.8770   52.4020 O.2    39  TRP39      -0.2733
     25  CB        32.3900    2.3440   51.4320 C.3    39  TRP39       0.0563
     26  CG        32.6440    1.7830   50.0570 C.ar   39  TRP39       0.0003
     27  CD1       31.7490    1.7350   48.9710 C.ar   39  TRP39       0.0946
     28  CD2       33.9170    1.2420   49.5280 C.ar   39  TRP39       0.0152
     29  NE1       32.3480    1.1840   47.8560 N.ar   39  TRP39      -0.2442
     30  CE2       33.6590    0.8770   48.1200 C.ar   39  TRP39       0.0810
     31  CE3       35.1930    1.0270   50.0600 C.ar   39  TRP39       0.0012
     32  CZ2       34.6500    0.3050   47.3180 C.ar   39  TRP39       0.0191
     33  CZ3       36.1840    0.4590   49.2390 C.ar   39  TRP39       0.0001
     34  CH2       35.9250    0.1000   47.9020 C.ar   39  TRP39       0.0015
     35  N         34.9290    4.3010   50.2750 N.am   40  PRO40      -0.2718
     36  CA        36.4070    4.4750   50.2400 C.3    40  PRO40       0.1535
     37  C         36.8700    5.7720   50.8640 C.2    40  PRO40       0.2598
     38  O         38.0790    5.9900   50.9570 O.2    40  PRO40      -0.2715
     39  CB        36.7340    4.5080   48.7480 C.3    40  PRO40       0.0310
     40  CG        35.5110    3.9560   48.0720 C.3    40  PRO40       0.0237
     41  CD        34.3410    4.3510   48.9260 C.3    40  PRO40       0.0939
     42  N         35.9220    6.6110   51.2990 N.am   41  PHE41      -0.1974
     43  CA        36.2660    7.9150   51.8300 C.3    41  PHE41       0.1639
     44  C         35.9350    8.0120   53.3120 C.2    41  PHE41       0.2290
     45  O         36.1750    9.0570   53.9310 O.2    41  PHE41      -0.2864
     46  CB        35.5630    9.0600   51.0260 C.3    41  PHE41       0.0560
     47  CG        35.8880    9.0580   49.5500 C.ar   41  PHE41      -0.0200
     48  CD1       37.0420    9.6550   49.0680 C.ar   41  PHE41      -0.0042
     49  CD2       35.0740    8.3970   48.6610 C.ar   41  PHE41      -0.0042
     50  CE1       37.3790    9.5940   47.7270 C.ar   41  PHE41      -0.0003
     51  CE2       35.4030    8.3370   47.3110 C.ar   41  PHE41      -0.0003
     52  CZ        36.5390    8.9410   46.8400 C.ar   41  PHE41      -0.0000
     53  N         43.0020    6.9190   53.7840 N.3    45  VAL45      -0.1245
     54  CA        43.5690    5.9620   52.8620 C.3    45  VAL45       0.1561
     55  C         44.5920    5.0990   53.5530 C.2    45  VAL45       0.2260
     56  O         45.5180    5.5680   54.2010 O.2    45  VAL45      -0.2867
     57  CB        44.1500    6.6770   51.6340 C.3    45  VAL45       0.0252
     58  CG1       45.0610    5.7820   50.8130 C.3    45  VAL45       0.0019
     59  CG2       42.9930    7.1830   50.7880 C.3    45  VAL45       0.0019
     60  N         46.1140   -1.1460   50.7500 N.3    50  LEU50      -0.1245
     61  CA        45.9960   -1.0410   49.2970 C.3    50  LEU50       0.1561
     62  C         47.3470   -1.0430   48.5860 C.2    50  LEU50       0.2260
     63  O         47.3850   -1.0060   47.3630 O.2    50  LEU50      -0.2867
     64  CB        45.2270    0.2140   48.9170 C.3    50  LEU50       0.0270
     65  CG        43.8200    0.2720   49.5130 C.3    50  LEU50       0.0019
     66  CD1       43.4200    1.7370   49.5440 C.3    50  LEU50       0.0001
     67  CD2       42.8420   -0.6050   48.7150 C.3    50  LEU50       0.0001
     68  N         49.9790    1.1210   48.2800 N.3    52  LEU52      -0.1245
     69  CA        50.3000    2.2960   47.4860 C.3    52  LEU52       0.1561
     70  C         51.3910    3.0510   48.2280 C.2    52  LEU52       0.2260
     71  O         51.1400    4.0680   48.8530 O.2    52  LEU52      -0.2867
     72  CB        49.0580    3.1630   47.2970 C.3    52  LEU52       0.0270
     73  CG        47.7850    2.4210   46.8590 C.3    52  LEU52       0.0019
     74  CD1       46.6250    3.3900   46.9390 C.3    52  LEU52       0.0001
     75  CD2       47.8990    1.8080   45.4730 C.3    52  LEU52       0.0001
     76  N         51.8110    7.0890   48.2770 N.3    55  TYR55      -0.1241
     77  CA        50.6810    7.9210   48.6120 C.3    55  TYR55       0.1605
     78  C         51.0150    9.0460   49.5600 C.2    55  TYR55       0.2264
     79  O         50.6540   10.1890   49.2980 O.2    55  TYR55      -0.2867
     80  CB        49.5730    7.1040   49.2640 C.3    55  TYR55       0.0534
     81  CG        48.3160    7.9320   49.4420 C.ar   55  TYR55      -0.0201
     82  CD1       47.4060    8.0280   48.4030 C.ar   55  TYR55      -0.0009
     83  CD2       48.0780    8.6780   50.5990 C.ar   55  TYR55      -0.0009
     84  CE1       46.2630    8.7910   48.5130 C.ar   55  TYR55       0.0417
     85  CE2       46.9290    9.4570   50.7130 C.ar   55  TYR55       0.0417
     86  CZ        46.0160    9.4850   49.6560 C.ar   55  TYR55       0.1957
     87  OH        44.8580   10.2280   49.6790 O.3    55  TYR55      -0.2866
     88  N         42.3400   12.9820   45.9220 N.3    94  CYS94      -0.1235
     89  CA        41.9530   11.8550   45.0680 C.3    94  CYS94       0.1677
     90  C         42.2480   12.1120   43.5900 C.2    94  CYS94       0.2270
     91  O         42.7420   11.2030   42.9090 O.2    94  CYS94      -0.2867
     92  CB        40.4840   11.5270   45.2600 C.3    94  CYS94       0.0956
     93  SG        39.8240   10.0940   44.3510 S.3    94  CYS94      -0.0801
     94  N         46.2220   12.1210   43.1070 N.3    97  TYR97      -0.1227
     95  CA        46.9010   10.8280   43.2040 C.3    97  TYR97       0.1736
     96  C         46.5000    9.9030   42.0900 C.2    97  TYR97       0.2595
     97  O         47.3320    9.2280   41.5550 O.2    97  TYR97      -0.2718
     98  CB        46.6590   10.1120   44.5780 C.3    97  TYR97       0.0548
     99  CG        47.4880    8.8440   44.6850 C.ar   97  TYR97      -0.0200
    100  CD1       48.8400    8.8960   44.9370 C.ar   97  TYR97      -0.0009
    101  CD2       46.9140    7.5810   44.4310 C.ar   97  TYR97      -0.0009
    102  CE1       49.6100    7.7290   44.9700 C.ar   97  TYR97       0.0417
    103  CE2       47.6720    6.4280   44.4780 C.ar   97  TYR97       0.0417
    104  CZ        49.0190    6.5110   44.7490 C.ar   97  TYR97       0.1957
    105  OH        49.7590    5.3650   44.7570 O.3    97  TYR97      -0.2866
    106  N         45.2180    9.8290   41.7770 N.am   98  ASN98      -0.1974
    107  CA        44.7300    8.8060   40.8470 C.3    98  ASN98       0.1688
    108  C         44.6390    9.2600   39.3740 C.2    98  ASN98       0.2292
    109  O         44.5750   10.4410   39.0460 O.2    98  ASN98      -0.2864
    110  CB        43.3510    8.3100   41.3330 C.3    98  ASN98       0.1181
    111  CG        43.4110    7.6940   42.7220 C.2    98  ASN98       0.2629
    112  OD1       43.6980    6.5070   42.8600 O.2    98  ASN98      -0.2716
    113  ND2       43.1500    8.4970   43.7540 N.am   98  ASN98      -0.0877
    114  N         38.0740    4.2640   38.5760 N.3   103  ASP103     -0.1225
    115  CA        36.8040    4.1710   39.2990 C.3   103  ASP103      0.1805
    116  C         36.7180    5.1570   40.4700 C.2   103  ASP103      0.2597
    117  O         35.6940    5.7950   40.6750 O.2   103  ASP103     -0.2718
    118  CB        36.6060    2.7830   39.8980 C.3   103  ASP103      0.1424
    119  CG        36.2750    1.7140   38.8700 C.2   103  ASP103      0.3668
    120  OD1       36.2250    1.9620   37.6380 O.co2 103  ASP103     -0.2456
    121  OD2       36.0020    0.5890   39.3390 O.co2 103  ASP103     -0.2456
    122  N         37.7870    5.2620   41.2430 N.am  104  ILE104     -0.1980
    123  CA        37.7900    6.0560   42.4680 C.3   104  ILE104      0.1595
    124  C         37.5990    7.5270   42.1600 C.2   104  ILE104      0.2287
    125  O         36.9530    8.2290   42.9410 O.2   104  ILE104     -0.2864
    126  CB        39.0970    5.8190   43.2910 C.3   104  ILE104      0.0276
    127  CG1       39.0510    6.4960   44.6580 C.3   104  ILE104      0.0022
    128  CG2       40.3140    6.3010   42.5400 C.3   104  ILE104      0.0022
    129  CD1       38.0820    5.8510   45.6160 C.3   104  ILE104      0.0001
    130  N         34.1020    8.1000   41.2820 N.3   107  MET107     -0.1245
    131  CA        33.2990    8.0600   42.5330 C.3   107  MET107      0.1570
    132  C         33.4490    9.3750   43.3230 C.2   107  MET107      0.2261
    133  O         32.4590    9.9430   43.7770 O.2   107  MET107     -0.2867
    134  CB        33.7090    6.8540   43.4050 C.3   107  MET107      0.0387
    135  CG        33.4480    5.4960   42.7430 C.3   107  MET107      0.0595
    136  SD        34.3620    4.1810   43.5620 S.3   107  MET107     -0.1393
    137  CE        33.2050    3.8890   44.9240 C.3   107  MET107      0.0692
@<TRIPOS>BOND
     1   120   119   ar
     2   114   115    1
     3   119   121   ar
     4   119   118    1
     5   109   108    2
     6   115   118    1
     7   115   116    1
     8   108   107    1
     9   116   117    2
    10   116   122   am
    11   107   110    1
    12   107   106    1
    13   122   123    1
    14   130   131    1
    15   110   111    1
    16    97    96    2
    17   106    96   am
    18    20    19   ar
    19    20    18   ar
    20    96    95    1
    21    19    17   ar
    22   124   123    1
    23   124   125    2
    24   123   126    1
    25   131   132    1
    26   131   134    1
    27   128   126    1
    28   111   112    2
    29   111   113   am
    30   135   134    1
    31   135   136    1
    32    91    90    2
    33    18    16   ar
    34    94    95    1
    35    95    98    1
    36   126   127    1
    37   132   133    2
    38    17    15   ar
    39   136   137    1
    40    90    89    1
    41     9     7   am
    42     8     7    2
    43    16    15   ar
    44    93    92    1
    45   101   103   ar
    46   101    99   ar
    47    15    14    1
    48     7     6    1
    49   103   104   ar
    50    98    99    1
    51   127   129    1
    52    99   100   ar
    53   104   105    1
    54   104   102   ar
    55   100   102   ar
    56    89    92    1
    57    89    88    1
    58    75    73    1
    59    14    11    1
    60     6     5    1
    61     5     2    1
    62    52    51   ar
    63    52    50   ar
    64    73    74    1
    65    73    72    1
    66    11    10    1
    67    11    12    1
    68    10     3   am
    69    72    69    1
    70    51    49   ar
    71    32    34   ar
    72    32    30   ar
    73    63    62    2
    74    69    70    1
    75    69    68    1
    76     3     4    2
    77     3     2    1
    78    50    48   ar
    79     2     1    1
    80    29    30   ar
    81    29    27   ar
    82    34    33   ar
    83    13    12    2
    84    40    39    1
    85    40    41    1
    86    30    28   ar
    87    70    71    2
    88    76    77    1
    89    82    84   ar
    90    82    81   ar
    91    84    86   ar
    92    62    61    1
    93    77    80    1
    94    77    78    1
    95    49    47   ar
    96    67    65    1
    97    39    36    1
    98    64    61    1
    99    64    65    1
   100    41    35    1
   101    27    26   ar
   102    48    47   ar
   103    33    31   ar
   104    80    81    1
   105    61    60    1
   106    79    78    2
   107    81    83   ar
   108    65    66    1
   109    28    26   ar
   110    28    31   ar
   111    47    46    1
   112    86    87    1
   113    86    85   ar
   114    26    25    1
   115    36    35    1
   116    36    37    1
   117    35    23   am
   118    83    85   ar
   119    59    57    1
   120    21    22    1
   121    58    57    1
   122    37    38    2
   123    37    42   am
   124    46    43    1
   125    42    43    1
   126    25    22    1
   127    23    22    1
   128    23    24    2
   129    57    54    1
   130    43    44    1
   131    54    55    1
   132    54    53    1
   133    44    45    2
   134    55    56    2
