@<TRIPOS>MOLECULE
tmp/3uw9C01.pdb
 103 99 0 0 0
SMALL
GASTEIGER

@<TRIPOS>ATOM
      1  N         30.8850    2.3600   33.9590 N.3    27  PRO27      -0.2102
      2  CA        31.2830    0.9380   33.8180 C.3    27  PRO27       0.1504
      3  C         30.5740    0.2410   32.6770 C.2    27  PRO27       0.2575
      4  O         30.9550   -0.8290   32.2530 O.2    27  PRO27      -0.2718
      5  CB        30.8290    0.3140   35.1330 C.3    27  PRO27       0.0282
      6  CG        30.7070    1.4670   36.0810 C.3    27  PRO27       0.0208
      7  CD        30.1960    2.5980   35.2360 C.3    27  PRO27       0.0893
      8  N         29.5350    0.8770   32.1790 N.am   28  PHE28      -0.1977
      9  CA        28.7120    0.3230   31.1550 C.3    28  PHE28       0.1639
     10  C         28.8420    0.9490   29.7790 C.2    28  PHE28       0.2290
     11  O         28.0350    0.6160   28.8950 O.2    28  PHE28      -0.2864
     12  CB        27.2670    0.4630   31.6130 C.3    28  PHE28       0.0560
     13  CG        27.0180   -0.1860   32.9320 C.ar   28  PHE28      -0.0200
     14  CD1       26.7810   -1.5740   33.0100 C.ar   28  PHE28      -0.0042
     15  CD2       27.0730    0.5760   34.1070 C.ar   28  PHE28      -0.0042
     16  CE1       26.5750   -2.1770   34.2650 C.ar   28  PHE28      -0.0003
     17  CE2       26.8720   -0.0290   35.3510 C.ar   28  PHE28      -0.0003
     18  CZ        26.6240   -1.3980   35.4350 C.ar   28  PHE28      -0.0000
     19  N         33.0930   -4.7830   28.7350 N.3    32  VAL32      -0.1245
     20  CA        33.9070   -5.1830   29.8930 C.3    32  VAL32       0.1561
     21  C         35.3030   -5.5980   29.4340 C.2    32  VAL32       0.2260
     22  O         35.4500   -6.6540   28.8400 O.2    32  VAL32      -0.2867
     23  CB        33.2150   -6.3580   30.6610 C.3    32  VAL32       0.0252
     24  CG1       34.0610   -6.8470   31.8490 C.3    32  VAL32       0.0019
     25  CG2       31.7910   -5.9650   31.1010 C.3    32  VAL32       0.0019
     26  N         40.6070   -5.5470   34.0300 N.3    37  LEU37      -0.1231
     27  CA        39.9660   -5.8230   35.3220 C.3    37  LEU37       0.1693
     28  C         40.2750   -7.1990   35.8850 C.2    37  LEU37       0.2592
     29  O         39.8510   -7.5350   36.9980 O.2    37  LEU37      -0.2718
     30  CB        38.4480   -5.6510   35.2060 C.3    37  LEU37       0.0284
     31  CG        37.9600   -4.3290   34.5730 C.3    37  LEU37       0.0019
     32  CD1       36.4970   -4.1020   34.9330 C.3    37  LEU37       0.0001
     33  CD2       38.8040   -3.1140   34.9640 C.3    37  LEU37       0.0001
     34  N         41.0030   -8.0050   35.1190 N.am   38  ASN38      -0.1960
     35  CA        41.4600   -9.2940   35.6060 C.3    38  ASN38       0.1819
     36  C         40.2410  -10.1020   36.0930 C.2    38  ASN38       0.2621
     37  O         40.1250  -10.4870   37.2460 O.2    38  ASN38      -0.2715
     38  CB        42.5200   -9.0560   36.6880 C.3    38  ASN38       0.1195
     39  CG        43.0630  -10.3310   37.2820 C.2    38  ASN38       0.2630
     40  OD1       43.3190  -11.3140   36.5830 O.2    38  ASN38      -0.2716
     41  ND2       43.2400  -10.3210   38.5890 N.am   38  ASN38      -0.0877
     42  N         39.3040  -10.2930   35.1800 N.am   39  LEU39      -0.1977
     43  CA        38.1620  -11.1550   35.3770 C.3    39  LEU39       0.1596
     44  C         38.3420  -12.2070   34.2760 C.2    39  LEU39       0.2287
     45  O         37.6650  -12.1570   33.2440 O.2    39  LEU39      -0.2864
     46  CB        36.8710  -10.3400   35.2130 C.3    39  LEU39       0.0297
     47  CG        36.7370   -9.1310   36.1220 C.3    39  LEU39       0.0022
     48  CD1       35.3500   -8.5140   35.9550 C.3    39  LEU39       0.0001
     49  CD2       36.9790   -9.3730   37.6170 C.3    39  LEU39       0.0001
     50  N         35.4240  -13.9890   32.6520 N.3    42  TYR42      -0.1241
     51  CA        34.2280  -13.2240   32.3390 C.3    42  TYR42       0.1605
     52  C         33.6110  -13.7580   31.0610 C.2    42  TYR42       0.2264
     53  O         32.4140  -14.0660   30.9840 O.2    42  TYR42      -0.2867
     54  CB        34.5330  -11.7310   32.1530 C.3    42  TYR42       0.0534
     55  CG        33.2770  -10.9140   31.9440 C.ar   42  TYR42      -0.0201
     56  CD1       32.9380  -10.3950   30.6800 C.ar   42  TYR42      -0.0009
     57  CD2       32.4090  -10.6620   33.0100 C.ar   42  TYR42      -0.0009
     58  CE1       31.7740   -9.6470   30.4950 C.ar   42  TYR42       0.0417
     59  CE2       31.2430   -9.9190   32.8380 C.ar   42  TYR42       0.0417
     60  CZ        30.9170   -9.4120   31.5830 C.ar   42  TYR42       0.1957
     61  OH        29.7340   -8.6810   31.4350 O.3    42  TYR42      -0.2866
     62  N         25.2010   -8.2730   34.1450 N.3    81  CYS81      -0.1235
     63  CA        25.7530   -7.7590   35.3910 C.3    81  CYS81       0.1677
     64  C         25.2750   -8.5480   36.6310 C.2    81  CYS81       0.2270
     65  O         26.0890   -8.9200   37.4670 O.2    81  CYS81      -0.2867
     66  CB        25.3730   -6.2890   35.5010 C.3    81  CYS81       0.0956
     67  SG        26.2110   -5.3890   36.8160 S.3    81  CYS81      -0.0801
     68  N         26.8810  -12.1910   36.6990 N.3    84  TYR84      -0.1227
     69  CA        28.3270  -12.2620   36.9820 C.3    84  TYR84       0.1736
     70  C         28.7140  -11.7330   38.3590 C.2    84  TYR84       0.2595
     71  O         29.7590  -12.1220   38.8580 O.2    84  TYR84      -0.2718
     72  CB        29.1700  -11.5220   35.9320 C.3    84  TYR84       0.0548
     73  CG        30.6890  -11.6390   36.1370 C.ar   84  TYR84      -0.0200
     74  CD1       31.3980  -12.7550   35.6810 C.ar   84  TYR84      -0.0009
     75  CD2       31.4120  -10.6350   36.7920 C.ar   84  TYR84      -0.0009
     76  CE1       32.7750  -12.8620   35.8640 C.ar   84  TYR84       0.0417
     77  CE2       32.7860  -10.7380   36.9760 C.ar   84  TYR84       0.0417
     78  CZ        33.4650  -11.8480   36.5150 C.ar   84  TYR84       0.1957
     79  OH        34.8230  -11.9430   36.6910 O.3    84  TYR84      -0.2866
     80  N         27.9070  -10.8480   38.9540 N.am   85  ASN85      -0.1974
     81  CA        28.2890  -10.1390   40.1960 C.3    85  ASN85       0.1688
     82  C         27.3470  -10.5120   41.3510 C.2    85  ASN85       0.2292
     83  O         26.1710  -10.8310   41.1280 O.2    85  ASN85      -0.2864
     84  CB        28.2620   -8.6170   39.9700 C.3    85  ASN85       0.1181
     85  CG        29.2110   -8.1410   38.8600 C.2    85  ASN85       0.2629
     86  OD1       30.4130   -7.9490   39.0910 O.2    85  ASN85      -0.2716
     87  ND2       28.6530   -7.8810   37.6560 N.am   85  ASN85      -0.0877
     88  N         26.7900   -5.7340   45.3440 N.3    89  ASP89      -0.1239
     89  CA        28.0400   -5.1600   44.8220 C.3    89  ASP89       0.1674
     90  C         27.8050   -3.7460   44.2670 C.2    89  ASP89       0.2266
     91  O         26.7540   -3.4610   43.7020 O.2    89  ASP89      -0.2867
     92  CB        28.6300   -6.0560   43.7120 C.3    89  ASP89       0.1410
     93  CG        29.3100   -7.3160   44.2520 C.2    89  ASP89       0.3668
     94  OD1       29.7940   -7.3010   45.4090 O.co2  89  ASP89      -0.2456
     95  OD2       29.3740   -8.3200   43.4970 O.co2  89  ASP89      -0.2456
     96  N         28.6250   -2.3340   41.6470 N.3    91  ILE91      -0.1245
     97  CA        28.2160   -2.3890   40.2480 C.3    91  ILE91       0.1561
     98  C         26.7630   -2.8830   40.0900 C.2    91  ILE91       0.2260
     99  O         26.0640   -2.4790   39.1480 O.2    91  ILE91      -0.2867
    100  CB        29.2000   -3.2650   39.4500 C.3    91  ILE91       0.0252
    101  CG1       29.0680   -3.0120   37.9410 C.3    91  ILE91       0.0019
    102  CG2       29.0240   -4.7400   39.8260 C.3    91  ILE91       0.0019
    103  CD1       30.0170   -1.9750   37.3900 C.3    91  ILE91       0.0001
@<TRIPOS>BOND
     1    19    20    1
     2    22    21    2
     3    11    10    2
     4    21    20    1
     5    10     9    1
     6    20    23    1
     7    58    56   ar
     8    58    60   ar
     9    23    25    1
    10    23    24    1
    11    56    55   ar
    12    53    52    2
    13    52    51    1
    14     9    12    1
    15     9     8    1
    16    61    60    1
    17    60    59   ar
    18    12    13    1
    19    55    54    1
    20    55    57   ar
    21    54    51    1
    22     8     3   am
    23     4     3    2
    24    51    50    1
    25     3     2    1
    26    59    57   ar
    27    13    14   ar
    28    13    15   ar
    29    14    16   ar
    30    45    44    2
    31     2     1    1
    32     2     5    1
    33     1     7    1
    34    26    27    1
    35    15    17   ar
    36    62    63    1
    37    16    18   ar
    38    44    43    1
    39    31    32    1
    40    31    33    1
    41    31    30    1
    42    34    35    1
    43    34    28   am
    44     5     6    1
    45    42    43    1
    46    42    36   am
    47    30    27    1
    48    46    43    1
    49    46    47    1
    50     7     6    1
    51    27    28    1
    52    17    18   ar
    53    63    66    1
    54    63    64    1
    55    66    67    1
    56    35    36    1
    57    35    38    1
    58    74    76   ar
    59    74    73   ar
    60    76    78   ar
    61    28    29    2
    62    72    73    1
    63    72    69    1
    64    48    47    1
    65    36    37    2
    66    47    49    1
    67    73    75   ar
    68    78    79    1
    69    78    77   ar
    70    40    39    2
    71    64    65    2
    72    38    39    1
    73    68    69    1
    74    75    77   ar
    75    69    70    1
    76    39    41   am
    77   103   101    1
    78    87    85   am
    79   101   100    1
    80    70    71    2
    81    70    80   am
    82    85    86    2
    83    85    84    1
    84    80    81    1
    85    99    98    2
    86   100   102    1
    87   100    97    1
    88    84    81    1
    89    98    97    1
    90    81    82    1
    91    97    96    1
    92    83    82    2
    93    95    93   ar
    94    91    90    2
    95    92    93    1
    96    92    89    1
    97    93    94   ar
    98    90    89    1
    99    89    88    1
