@<TRIPOS>MOLECULE
tmp/3uw9D00.pdb
 144 140 0 0 0
SMALL
GASTEIGER

@<TRIPOS>ATOM
      1  N         18.7180   29.6420   30.9200 N.3    21  PHE21      -0.1241
      2  CA        18.4180   28.9680   29.6500 C.3    21  PHE21       0.1605
      3  C         16.9290   28.7990   29.2980 C.2    21  PHE21       0.2264
      4  O         16.6110   28.0420   28.3940 O.2    21  PHE21      -0.2867
      5  CB        19.0560   27.5910   29.5990 C.3    21  PHE21       0.0534
      6  CG        20.5510   27.5770   29.7660 C.ar   21  PHE21      -0.0203
      7  CD1       21.3320   28.7020   29.5400 C.ar   21  PHE21      -0.0042
      8  CD2       21.1730   26.3960   30.1360 C.ar   21  PHE21      -0.0042
      9  CE1       22.7110   28.6540   29.7170 C.ar   21  PHE21      -0.0003
     10  CE2       22.5400   26.3250   30.3130 C.ar   21  PHE21      -0.0003
     11  CZ        23.3140   27.4670   30.0980 C.ar   21  PHE21      -0.0000
     12  N         14.6410   30.9890   28.0140 N.3    23  TRP23      -0.1228
     13  CA        13.9860   31.7850   26.9620 C.3    23  TRP23       0.1722
     14  C         13.5010   31.0160   25.7260 C.2    23  TRP23       0.2437
     15  O         12.5040   31.3860   25.1320 O.2    23  TRP23      -0.2733
     16  CB        14.8330   32.9960   26.5950 C.3    23  TRP23       0.0563
     17  CG        16.1930   32.6620   26.0530 C.ar   23  TRP23       0.0003
     18  CD1       17.3850   32.4750   26.7630 C.ar   23  TRP23       0.0946
     19  CD2       16.5440   32.4510   24.6580 C.ar   23  TRP23       0.0152
     20  NE1       18.4170   32.1700   25.9150 N.ar   23  TRP23      -0.2442
     21  CE2       17.9800   32.1320   24.6390 C.ar   23  TRP23       0.0810
     22  CE3       15.8400   32.4840   23.4560 C.ar   23  TRP23       0.0012
     23  CZ2       18.6510   31.8810   23.4710 C.ar   23  TRP23       0.0191
     24  CZ3       16.5360   32.2220   22.2740 C.ar   23  TRP23       0.0001
     25  CH2       17.9040   31.9210   22.2870 C.ar   23  TRP23       0.0015
     26  N         14.1820   29.9280   25.3190 N.am   24  PRO24      -0.2718
     27  CA        13.6670   29.2160   24.1320 C.3    24  PRO24       0.1535
     28  C         12.4620   28.3610   24.4370 C.2    24  PRO24       0.2598
     29  O         11.7960   27.8850   23.5470 O.2    24  PRO24      -0.2715
     30  CB        14.8150   28.3140   23.7310 C.3    24  PRO24       0.0310
     31  CG        16.0130   28.8570   24.4190 C.3    24  PRO24       0.0237
     32  CD        15.5150   29.4490   25.6870 C.3    24  PRO24       0.0939
     33  N         12.1850   28.1800   25.7080 N.am   25  PHE25      -0.1974
     34  CA        11.1260   27.3120   26.1350 C.3    25  PHE25       0.1639
     35  C          9.9180   28.0650   26.6900 C.2    25  PHE25       0.2290
     36  O          8.9330   27.4580   27.0940 O.2    25  PHE25      -0.2864
     37  CB        11.7080   26.3750   27.1830 C.3    25  PHE25       0.0560
     38  CG        12.8900   25.5840   26.6730 C.ar   25  PHE25      -0.0200
     39  CD1       12.6870   24.4390   25.9130 C.ar   25  PHE25      -0.0042
     40  CD2       14.1840   26.0250   26.8850 C.ar   25  PHE25      -0.0042
     41  CE1       13.7550   23.7110   25.4500 C.ar   25  PHE25      -0.0003
     42  CE2       15.2560   25.3080   26.4080 C.ar   25  PHE25      -0.0003
     43  CZ        15.0370   24.1540   25.6890 C.ar   25  PHE25      -0.0000
     44  N          7.4670   26.9190   19.7110 N.3    29  VAL29      -0.1245
     45  CA         8.5370   27.0620   18.7490 C.3    29  VAL29       0.1561
     46  C          8.0170   27.7580   17.5130 C.2    29  VAL29       0.2260
     47  O          7.0040   27.3800   16.9360 O.2    29  VAL29      -0.2867
     48  CB         9.1550   25.7140   18.4140 C.3    29  VAL29       0.0252
     49  CG1       10.0900   25.8220   17.1990 C.3    29  VAL29       0.0019
     50  CG2        9.8550   25.2000   19.6610 C.3    29  VAL29       0.0019
     51  N         12.0920   30.5060   12.8260 N.3    34  LEU34      -0.1245
     52  CA        13.3330   29.7270   12.9270 C.3    34  LEU34       0.1561
     53  C         13.7220   28.9600   11.6590 C.2    34  LEU34       0.2260
     54  O         14.7990   28.3690   11.5980 O.2    34  LEU34      -0.2867
     55  CB        13.2760   28.8070   14.1410 C.3    34  LEU34       0.0270
     56  CG        13.2390   29.6120   15.4530 C.3    34  LEU34       0.0019
     57  CD1       12.7370   28.7440   16.5960 C.3    34  LEU34       0.0001
     58  CD2       14.6220   30.1990   15.7340 C.3    34  LEU34       0.0001
     59  N         12.3790   26.2560   10.3570 N.3    36  LEU36      -0.1245
     60  CA        12.4140   24.8210   10.5830 C.3    36  LEU36       0.1561
     61  C         11.0820   24.2970   10.1120 C.2    36  LEU36       0.2260
     62  O         10.1800   24.0920   10.9000 O.2    36  LEU36      -0.2867
     63  CB        12.6090   24.5010   12.0500 C.3    36  LEU36       0.0270
     64  CG        13.6750   25.2550   12.8300 C.3    36  LEU36       0.0019
     65  CD1       13.3400   25.1600   14.3150 C.3    36  LEU36       0.0001
     66  CD2       15.0720   24.7290   12.5380 C.3    36  LEU36       0.0001
     67  N          9.4020   21.0240   11.7000 N.3    39  TYR39      -0.1241
     68  CA         9.2770   20.8740   13.1250 C.3    39  TYR39       0.1605
     69  C          7.9170   20.2820   13.4890 C.2    39  TYR39       0.2264
     70  O          7.8180   19.2680   14.1680 O.2    39  TYR39      -0.2867
     71  CB         9.4800   22.2150   13.8320 C.3    39  TYR39       0.0534
     72  CG         9.4350   22.0540   15.3390 C.ar   39  TYR39      -0.0201
     73  CD1        8.2450   22.1950   16.0290 C.ar   39  TYR39      -0.0009
     74  CD2       10.5760   21.7090   16.0580 C.ar   39  TYR39      -0.0009
     75  CE1        8.1870   22.0260   17.3970 C.ar   39  TYR39       0.0417
     76  CE2       10.5360   21.5500   17.4420 C.ar   39  TYR39       0.0417
     77  CZ         9.3290   21.6920   18.1050 C.ar   39  TYR39       0.1957
     78  OH         9.2680   21.5200   19.4780 O.3    39  TYR39      -0.2866
     79  N          7.7650   18.5750   26.8180 N.3    74  MET74      -0.1245
     80  CA         8.5960   19.6880   26.3450 C.3    74  MET74       0.1570
     81  C         10.0510   19.2930   26.1870 C.2    74  MET74       0.2261
     82  O         10.7080   19.6920   25.2090 O.2    74  MET74      -0.2867
     83  CB         8.5380   20.8610   27.3100 C.3    74  MET74       0.0387
     84  CG         9.3630   22.0690   26.8910 C.3    74  MET74       0.0595
     85  SD         9.2660   23.4110   28.0960 S.3    74  MET74      -0.1393
     86  CE        10.2160   22.7780   29.4740 C.3    74  MET74       0.0692
     87  N         12.2080   18.4300   22.5360 N.3    78  CYS78      -0.1235
     88  CA        13.4920   19.0450   22.2360 C.3    78  CYS78       0.1677
     89  C         14.5450   18.0080   21.8880 C.2    78  CYS78       0.2270
     90  O         15.3210   18.1850   20.9120 O.2    78  CYS78      -0.2867
     91  CB        13.9410   19.8680   23.4080 C.3    78  CYS78       0.0956
     92  SG        15.4640   20.7530   23.1160 S.3    78  CYS78      -0.0801
     93  N         13.6020   16.2410   18.4050 N.3    81  TYR81      -0.1227
     94  CA        13.7570   16.9980   17.1590 C.3    81  TYR81       0.1736
     95  C         15.2190   17.3350   16.8940 C.2    81  TYR81       0.2595
     96  O         15.7090   17.1980   15.7870 O.2    81  TYR81      -0.2718
     97  CB        12.8900   18.2770   17.1490 C.3    81  TYR81       0.0548
     98  CG        13.1000   19.1040   15.8960 C.ar   81  TYR81      -0.0200
     99  CD1       13.9200   20.2360   15.9110 C.ar   81  TYR81      -0.0009
    100  CD2       12.5330   18.7300   14.6770 C.ar   81  TYR81      -0.0009
    101  CE1       14.1500   20.9830   14.7480 C.ar   81  TYR81       0.0417
    102  CE2       12.7470   19.4810   13.5110 C.ar   81  TYR81       0.0417
    103  CZ        13.5620   20.6100   13.5530 C.ar   81  TYR81       0.1957
    104  OH        13.8080   21.3500   12.4050 O.3    81  TYR81      -0.2866
    105  N         15.9330   17.7640   17.9140 N.am   82  ASN82      -0.1974
    106  CA        17.2670   18.3130   17.6910 C.3    82  ASN82       0.1688
    107  C         18.3430   17.3040   17.8480 C.2    82  ASN82       0.2292
    108  O         18.1560   16.2620   18.4970 O.2    82  ASN82      -0.2864
    109  CB        17.5130   19.4210   18.6710 C.3    82  ASN82       0.1181
    110  CG        16.5140   20.5140   18.5340 C.2    82  ASN82       0.2629
    111  OD1       16.5770   21.2960   17.5870 O.2    82  ASN82      -0.2716
    112  ND2       15.5890   20.6000   19.4900 N.am   82  ASN82      -0.0877
    113  N         23.4980   19.6620   20.1380 N.3    86  ASP86      -0.1225
    114  CA        23.1730   21.0510   19.8450 C.3    86  ASP86       0.1805
    115  C         23.0360   21.8240   21.1660 C.2    86  ASP86       0.2598
    116  O         22.6520   21.2890   22.2020 O.2    86  ASP86      -0.2718
    117  CB        21.8420   21.1730   19.0600 C.3    86  ASP86       0.1424
    118  CG        21.9180   20.5840   17.6660 C.2    86  ASP86       0.3668
    119  OD1       23.0300   20.2660   17.2180 O.co2  86  ASP86      -0.2456
    120  OD2       20.8630   20.4150   17.0330 O.co2  86  ASP86      -0.2456
    121  N         23.3320   23.1040   21.1310 N.am   87  ASP87      -0.1960
    122  CA        23.1030   23.9260   22.2910 C.3    87  ASP87       0.1840
    123  C         21.7160   23.7150   22.9130 C.2    87  ASP87       0.2621
    124  O         21.5690   23.4690   24.1120 O.2    87  ASP87      -0.2715
    125  CB        23.2060   25.3550   21.8610 C.3    87  ASP87       0.1450
    126  CG        24.5910   25.7380   21.4590 C.2    87  ASP87       0.3671
    127  OD1       25.4790   24.9250   21.6310 O.co2  87  ASP87      -0.2456
    128  OD2       24.7740   26.8490   20.9460 O.co2  87  ASP87      -0.2456
    129  N         20.6870   23.8360   22.0890 N.am   88  ILE88      -0.1977
    130  CA        19.3440   23.8090   22.5900 C.3    88  ILE88       0.1596
    131  C         19.1360   22.5600   23.4490 C.2    88  ILE88       0.2287
    132  O         18.4210   22.6120   24.4610 O.2    88  ILE88      -0.2864
    133  CB        18.3330   23.8530   21.4360 C.3    88  ILE88       0.0276
    134  CG1       16.9460   24.1190   21.9850 C.3    88  ILE88       0.0022
    135  CG2       18.3390   22.5610   20.6400 C.3    88  ILE88       0.0022
    136  CD1       16.8360   25.3920   22.7620 C.3    88  ILE88       0.0001
    137  N         20.9190   22.8510   26.7900 N.3    91  MET91      -0.1245
    138  CA        20.1410   23.8110   27.5480 C.3    91  MET91       0.1570
    139  C         18.9450   23.1290   28.1870 C.2    91  MET91       0.2261
    140  O         18.6740   23.3400   29.3790 O.2    91  MET91      -0.2867
    141  CB        19.6760   24.9860   26.6700 C.3    91  MET91       0.0387
    142  CG        20.8360   25.8290   26.1450 C.3    91  MET91       0.0595
    143  SD        20.3320   27.1050   24.9550 S.3    91  MET91      -0.1393
    144  CE        19.6280   28.3750   26.0330 C.3    91  MET91       0.0692
@<TRIPOS>BOND
     1    61    60    1
     2    61    62    2
     3    59    60    1
     4    60    63    1
     5    54    53    2
     6    53    52    1
     7    67    68    1
     8    63    64    1
     9   104   103    1
    10    66    64    1
    11    51    52    1
    12    64    65    1
    13    52    55    1
    14    68    69    1
    15    68    71    1
    16    69    70    2
    17   102   103   ar
    18   102   100   ar
    19   103   101   ar
    20    71    72    1
    21    55    56    1
    22   100    98   ar
    23   101    99   ar
    24    72    73   ar
    25    72    74   ar
    26    56    58    1
    27    56    57    1
    28    96    95    2
    29    98    99   ar
    30    98    97    1
    31    73    75   ar
    32    74    76   ar
    33    95    94    1
    34    95   105   am
    35    47    46    2
    36   120   118   ar
    37    97    94    1
    38    94    93    1
    39    49    48    1
    40   119   118   ar
    41    75    77   ar
    42    76    77   ar
    43    46    45    1
    44   111   110    2
    45   118   117    1
    46   106   107    1
    47   106   105    1
    48   106   109    1
    49   107   108    2
    50    77    78    1
    51    48    45    1
    52    48    50    1
    53   110   109    1
    54   110   112   am
    55    45    44    1
    56   117   114    1
    57   114   113    1
    58   114   115    1
    59   135   133    1
    60    90    89    2
    61   128   126   ar
    62   121   115   am
    63   121   122    1
    64   115   116    2
    65   133   134    1
    66   133   130    1
    67   126   127   ar
    68   126   125    1
    69   125   122    1
    70    89    88    1
    71   134   136    1
    72   129   130    1
    73   129   123   am
    74    88    87    1
    75    88    91    1
    76    24    25   ar
    77    24    22   ar
    78    25    23   ar
    79   122   123    1
    80   130   131    1
    81   123   124    2
    82    92    91    1
    83   131   132    2
    84    22    19   ar
    85    23    21   ar
    86    29    28    2
    87    30    27    1
    88    30    31    1
    89    27    28    1
    90    27    26    1
    91    31    32    1
    92    28    33   am
    93    21    19   ar
    94    21    20   ar
    95    19    17   ar
    96   143   144    1
    97   143   142    1
    98    15    14    2
    99    82    81    2
   100    26    32    1
   101    26    14   am
   102    41    43   ar
   103    41    39   ar
   104    43    42   ar
   105    33    34    1
   106    14    13    1
   107    39    38   ar
   108    20    18   ar
   109    17    16    1
   110    17    18   ar
   111    34    35    1
   112    34    37    1
   113   142   141    1
   114    81    80    1
   115    80    79    1
   116    80    83    1
   117    42    40   ar
   118    16    13    1
   119   141   138    1
   120    38    40   ar
   121    38    37    1
   122    35    36    2
   123   137   138    1
   124    84    83    1
   125    84    85    1
   126    13    12    1
   127   138   139    1
   128    85    86    1
   129   139   140    2
   130     4     3    2
   131     3     2    1
   132     7     9   ar
   133     7     6   ar
   134     5     2    1
   135     5     6    1
   136     2     1    1
   137     9    11   ar
   138     6     8   ar
   139    11    10   ar
   140     8    10   ar
