@<TRIPOS>MOLECULE
tmp/3uwbA00.pdb
 140 136 0 0 0
SMALL
GASTEIGER

@<TRIPOS>ATOM
      1  N         19.0490   25.0890   15.6130 N.3    37  SER37      -0.1202
      2  CA        18.9070   26.5520   15.5830 C.3    37  SER37       0.2020
      3  C         17.6970   27.0440   16.3820 C.2    37  SER37       0.2619
      4  O         17.2730   28.1750   16.2010 O.2    37  SER37      -0.2717
      5  CB        18.8340   27.0290   14.1260 C.3    37  SER37       0.2103
      6  OG        20.1260   26.9840   13.5260 O.3    37  SER37      -0.2182
      7  N         17.1870   26.2110   17.2950 N.am   38  ASP38      -0.1959
      8  CA        16.0430   26.5750   18.1540 C.3    38  ASP38       0.1840
      9  C         14.7540   26.9900   17.3930 C.2    38  ASP38       0.2623
     10  O         13.9330   27.8010   17.8870 O.2    38  ASP38      -0.2715
     11  CB        16.4740   27.6280   19.1790 C.3    38  ASP38       0.1450
     12  CG        17.6130   27.1280   20.0660 C.2    38  ASP38       0.3671
     13  OD1       17.5910   25.9620   20.4780 O.co2  38  ASP38      -0.2456
     14  OD2       18.5170   27.9140   20.3330 O.co2  38  ASP38      -0.2456
     15  N         14.5470   26.3940   16.2200 N.am   39  GLY39      -0.1940
     16  CA        13.3790   26.6860   15.4560 C.3    39  GLY39       0.2014
     17  C         12.2380   25.7710   15.8150 C.2    39  GLY39       0.2639
     18  O         12.4090   24.7410   16.4910 O.2    39  GLY39      -0.2714
     19  N         11.0510   26.1820   15.3910 N.am   40  ILE40      -0.1963
     20  CA         9.8380   25.4090   15.6370 C.3    40  ILE40       0.1727
     21  C          9.1080   24.9680   14.3840 C.2    40  ILE40       0.2616
     22  O          8.0370   24.3330   14.4470 O.2    40  ILE40      -0.2715
     23  CB         8.8760   26.1670   16.5970 C.3    40  ILE40       0.0290
     24  CG1        8.3420   27.4380   16.0090 C.3    40  ILE40       0.0022
     25  CG2        9.5430   26.4160   17.9670 C.3    40  ILE40       0.0023
     26  CD1        7.1420   27.9800   16.8210 C.3    40  ILE40       0.0001
     27  N          9.6930   25.3060   13.2400 N.am   41  GLY41      -0.1955
     28  CA         9.2840   24.8090   11.9460 C.3    41  GLY41       0.1869
     29  C         10.4340   24.9840   10.9630 C.2    41  GLY41       0.2309
     30  O         11.4200   25.6890   11.2310 O.2    41  GLY41      -0.2863
     31  N         14.4330   26.3890    2.5640 N.3    46  GLN46      -0.1245
     32  CA        15.3870   27.0360    3.4650 C.3    46  GLN46       0.1566
     33  C         16.7190   26.3170    3.5640 C.2    46  GLN46       0.2260
     34  O         17.7080   26.9200    4.0320 O.2    46  GLN46      -0.2867
     35  CB        14.8010   27.1540    4.8800 C.3    46  GLN46       0.0367
     36  CG        13.5770   28.0470    5.0080 C.3    46  GLN46       0.0905
     37  CD        13.1400   28.0610    6.4520 C.2    46  GLN46       0.2608
     38  OE1       12.4310   27.1500    6.8930 O.2    46  GLN46      -0.2717
     39  NE2       13.6290   29.0530    7.2340 N.am   46  GLN46      -0.0878
     40  N          0.9130   38.0900   15.5210 N.3    84  PHE84      -0.1227
     41  CA         1.9590   37.3190   16.2180 C.3    84  PHE84       0.1736
     42  C          3.3430   37.7520   15.7430 C.2    84  PHE84       0.2595
     43  O          3.5440   38.0290   14.5430 O.2    84  PHE84      -0.2718
     44  CB         1.7330   35.8240   16.0280 C.3    84  PHE84       0.0547
     45  CG         2.4730   34.9480   17.0220 C.ar   84  PHE84      -0.0202
     46  CD1        1.9530   34.7440   18.2870 C.ar   84  PHE84      -0.0042
     47  CD2        3.6700   34.3660   16.6870 C.ar   84  PHE84      -0.0042
     48  CE1        2.6220   33.9410   19.2130 C.ar   84  PHE84      -0.0003
     49  CE2        4.3400   33.5460   17.5940 C.ar   84  PHE84      -0.0003
     50  CZ         3.8110   33.3520   18.8490 C.ar   84  PHE84      -0.0000
     51  N          4.2840   37.8540   16.6970 N.am   85  ASP85      -0.1960
     52  CA         5.6080   38.3360   16.4050 C.3    85  ASP85       0.1840
     53  C          6.4520   37.1940   15.8590 C.2    85  ASP85       0.2622
     54  O          6.6200   36.1780   16.5470 O.2    85  ASP85      -0.2715
     55  CB         6.2460   38.8740   17.7100 C.3    85  ASP85       0.1450
     56  CG         7.5120   39.6810   17.4750 C.2    85  ASP85       0.3671
     57  OD1        7.8750   39.9980   16.3480 O.co2  85  ASP85      -0.2456
     58  OD2        8.1420   40.1330   18.4700 O.co2  85  ASP85      -0.2456
     59  N          6.8960   37.2870   14.6050 N.am   86  GLU86      -0.1963
     60  CA         7.6520   36.2030   13.9810 C.3    86  GLU86       0.1733
     61  C          9.1050   36.5560   13.7710 C.2    86  GLU86       0.2617
     62  O          9.4500   37.7060   13.4930 O.2    86  GLU86      -0.2715
     63  CB         7.0790   35.8800   12.5920 C.3    86  GLU86       0.0429
     64  CG         5.6250   35.5410   12.6210 C.3    86  GLU86       0.1163
     65  CD         5.0710   35.0470   11.3160 C.2    86  GLU86       0.3649
     66  OE1        5.8460   34.6600   10.3790 O.co2  86  GLU86      -0.2457
     67  OE2        3.8320   34.9910   11.2180 O.co2  86  GLU86      -0.2457
     68  N          9.9520   35.5310   13.8350 N.am   87  GLY87      -0.1940
     69  CA        11.2930   35.5720   13.3190 C.3    87  GLY87       0.2014
     70  C         11.4520   34.3710   12.3840 C.2    87  GLY87       0.2639
     71  O         10.6260   33.4210   12.4000 O.2    87  GLY87      -0.2714
     72  N         12.4930   34.3980   11.5700 N.am   88  CYS88      -0.1953
     73  CA        12.6900   33.3570   10.5780 C.3    88  CYS88       0.1843
     74  C         14.1680   32.9970   10.5900 C.2    88  CYS88       0.2625
     75  O         15.0390   33.9090   10.6020 O.2    88  CYS88      -0.2714
     76  CB        12.3110   33.8660    9.1640 C.3    88  CYS88       0.0997
     77  SG        12.5250   32.6830    7.7990 S.3    88  CYS88      -0.0797
     78  N         14.4600   31.7060   10.5520 N.am   89  LEU89      -0.1977
     79  CA        15.8560   31.2590   10.5200 C.3    89  LEU89       0.1596
     80  C         16.5940   31.6730    9.2230 C.2    89  LEU89       0.2287
     81  O         17.8010   31.6820    9.1930 O.2    89  LEU89      -0.2864
     82  CB        15.9110   29.7340   10.7640 C.3    89  LEU89       0.0297
     83  CG        15.5390   29.3150   12.2090 C.3    89  LEU89       0.0022
     84  CD1       15.5410   27.8030   12.2450 C.3    89  LEU89       0.0001
     85  CD2       16.5010   29.9100   13.2500 C.3    89  LEU89       0.0001
     86  N         -0.4980   28.1620   17.7290 N.3   123  LEU123     -0.1245
     87  CA         0.8590   28.1890   17.2150 C.3   123  LEU123      0.1561
     88  C          1.0330   27.2600   15.9990 C.2   123  LEU123      0.2260
     89  O          1.7550   27.6390   15.0190 O.2   123  LEU123     -0.2867
     90  CB         1.8390   27.8250   18.3250 C.3   123  LEU123      0.0270
     91  CG         3.3280   28.0280   18.0040 C.3   123  LEU123      0.0019
     92  CD1        3.6680   29.4770   17.6510 C.3   123  LEU123      0.0001
     93  CD2        4.1710   27.5980   19.1930 C.3   123  LEU123      0.0001
     94  N         -0.1050   28.9590   12.9530 N.3   126  ARG126     -0.1231
     95  CA         0.8430   30.0040   12.6480 C.3   126  ARG126      0.1694
     96  C          2.0850   29.4890   11.9160 C.2   126  ARG126      0.2591
     97  O          2.5080   30.0350   10.8950 O.2   126  ARG126     -0.2718
     98  CB         1.2050   30.7680   13.9580 C.3   126  ARG126      0.0321
     99  CG         2.3110   31.7940   13.8220 C.3   126  ARG126      0.0489
    100  CD         2.0260   32.8390   12.7480 C.3   126  ARG126      0.2205
    101  NE         0.7370   33.4790   12.9180 N.pl3 126  ARG126     -0.0865
    102  CZ         0.5140   34.7890   12.9040 C.cat 126  ARG126      0.5346
    103  NH1        1.5090   35.6170   12.6380 N.pl3 126  ARG126      0.1354
    104  NH2       -0.7190   35.2470   13.0930 N.pl3 126  ARG126      0.1354
    105  N          2.6980   28.4500   12.4910 N.am  127  VAL127     -0.1980
    106  CA         3.9260   27.8550   11.9480 C.3   127  VAL127      0.1595
    107  C          3.6480   27.3620   10.5470 C.2   127  VAL127      0.2287
    108  O          4.4280   27.6160    9.6420 O.2   127  VAL127     -0.2864
    109  CB         4.4950   26.7500   12.8600 C.3   127  VAL127      0.0276
    110  CG1        5.6420   26.0300   12.1260 C.3   127  VAL127      0.0022
    111  CG2        4.9120   27.3820   14.2200 C.3   127  VAL127      0.0022
    112  N          3.5160   30.1680    7.9480 N.3   130  HIS130     -0.1226
    113  CA         4.8700   30.6860    7.7300 C.3   130  HIS130      0.1752
    114  C          5.6400   29.7710    6.8070 C.2   130  HIS130      0.2595
    115  O          6.2990   30.1790    5.8600 O.2   130  HIS130     -0.2718
    116  CB         5.5620   30.9140    9.1050 C.3   130  HIS130      0.0759
    117  CG         6.9910   31.3450    8.9960 C.ar  130  HIS130      0.0818
    118  ND1        7.4200   32.6040    9.3780 N.ar  130  HIS130     -0.2268
    119  CD2        8.1110   30.6410    8.6350 C.ar  130  HIS130      0.1154
    120  CE1        8.7560   32.6770    9.2210 C.ar  130  HIS130      0.1986
    121  NE2        9.1910   31.4950    8.7610 N.ar  130  HIS130     -0.2212
    122  N          5.5800   28.4740    7.0850 N.am  131  GLU131     -0.1979
    123  CA         6.2950   27.4840    6.2620 C.3   131  GLU131      0.1602
    124  C          5.7420   27.3630    4.8400 C.2   131  GLU131      0.2287
    125  O          6.5510   27.2450    3.9010 O.2   131  GLU131     -0.2864
    126  CB         6.3170   26.1050    6.9160 C.3   131  GLU131      0.0415
    127  CG         6.8730   26.0160    8.3560 C.3   131  GLU131      0.1163
    128  CD         8.1900   26.7010    8.5920 C.2   131  GLU131      0.3649
    129  OE1        8.9730   26.9190    7.6110 O.co2 131  GLU131     -0.2457
    130  OE2        8.4900   27.0370    9.7680 O.co2 131  GLU131     -0.2457
    131  N          7.1070   29.9900    2.6730 N.3   134  HIS134     -0.1241
    132  CA         8.4340   29.6690    2.1310 C.3   134  HIS134      0.1621
    133  C          8.3520   28.8920    0.8350 C.2   134  HIS134      0.2264
    134  O          9.1960   29.1120   -0.0680 O.2   134  HIS134     -0.2867
    135  CB         9.2700   28.8620    3.1360 C.3   134  HIS134      0.0745
    136  CG         9.9600   29.6770    4.1590 C.ar  134  HIS134      0.0817
    137  ND1       10.8820   30.6260    3.8520 N.ar  134  HIS134     -0.2268
    138  CD2        9.8590   29.6550    5.5480 C.ar  134  HIS134      0.1154
    139  CE1       11.3780   31.1660    4.9790 C.ar  134  HIS134      0.1986
    140  NE2       10.7790   30.5660    6.0370 N.ar  134  HIS134     -0.2212
@<TRIPOS>BOND
     1   134   133    2
     2   133   132    1
     3   132   131    1
     4   132   135    1
     5    31    32    1
     6   135   136    1
     7    32    33    1
     8    32    35    1
     9    33    34    2
    10   137   136   ar
    11   137   139   ar
    12   125   124    2
    13   136   138   ar
    14   124   123    1
    15    35    36    1
    16   139   140   ar
    17    36    37    1
    18   138   140   ar
    19   115   114    2
    20   123   126    1
    21   123   122    1
    22    37    38    2
    23    37    39   am
    24   114   122   am
    25   114   113    1
    26   126   127    1
    27   129   128   ar
    28   113   112    1
    29   113   116    1
    30    77    76    1
    31   127   128    1
    32   128   130   ar
    33   119   121   ar
    34   119   117   ar
    35   121   120   ar
    36   117   116    1
    37   117   118   ar
    38    76    73    1
    39    81    80    2
    40   120   118   ar
    41    80    79    1
    42   108   107    2
    43    66    65   ar
    44    79    78    1
    45    79    82    1
    46   107   106    1
    47    78    74   am
    48    73    74    1
    49    73    72    1
    50    74    75    2
    51    82    83    1
    52    97    96    2
    53    29    30    2
    54    29    28    1
    55    67    65   ar
    56    65    64    1
    57    72    70   am
    58    96   105   am
    59    96    95    1
    60    28    27    1
    61   106   105    1
    62   106   109    1
    63   110   109    1
    64    83    84    1
    65    83    85    1
    66    70    71    2
    67    70    69    1
    68    63    64    1
    69    63    60    1
    70   103   102    1
    71    95    94    1
    72    95    98    1
    73   100   101    1
    74   100    99    1
    75   109   111    1
    76   102   101    2
    77   102   104    1
    78    27    21   am
    79    69    68    1
    80    62    61    2
    81     6     5    1
    82    61    68   am
    83    61    60    1
    84    99    98    1
    85    60    59    1
    86     5     2    1
    87    21    22    2
    88    21    20    1
    89    43    42    2
    90    59    53   am
    91    89    88    2
    92    19    20    1
    93    19    17   am
    94    16    17    1
    95    16    15    1
    96    40    41    1
    97     2     1    1
    98     2     3    1
    99    20    23    1
   100    42    41    1
   101    42    51   am
   102    17    18    2
   103    53    52    1
   104    53    54    2
   105    88    87    1
   106    24    23    1
   107    24    26    1
   108    44    41    1
   109    44    45    1
   110     4     3    2
   111    15     9   am
   112    57    56   ar
   113     3     7   am
   114    52    51    1
   115    52    55    1
   116    23    25    1
   117    47    45   ar
   118    47    49   ar
   119    45    46   ar
   120    87    86    1
   121    87    90    1
   122     7     8    1
   123     9    10    2
   124     9     8    1
   125    56    55    1
   126    56    58   ar
   127    49    50   ar
   128    92    91    1
   129    91    90    1
   130    91    93    1
   131     8    11    1
   132    46    48   ar
   133    50    48   ar
   134    11    12    1
   135    12    14   ar
   136    12    13   ar
