@<TRIPOS>MOLECULE
tmp/3uwcA00.pdb
 145 136 0 0 0
SMALL
GASTEIGER

@<TRIPOS>ATOM
      1  N         14.7130   19.4330    3.9690 N.3    57  THR57      -0.1203
      2  CA        13.7510   20.4940    3.6890 C.3    57  THR57       0.1994
      3  C         12.6820   20.4540    4.7710 C.2    57  THR57       0.2618
      4  O         12.5660   19.4670    5.4900 O.2    57  THR57      -0.2717
      5  CB        13.0320   20.3060    2.3260 C.3    57  THR57       0.1784
      6  OG1       12.1790   19.1600    2.3910 O.3    57  THR57      -0.2211
      7  CG2       14.0270   20.1320    1.1720 C.3    57  THR57       0.0376
      8  N         11.8990   21.5190    4.8890 N.am   58  GLY58      -0.1942
      9  CA        10.7710   21.5140    5.8150 C.3    58  GLY58       0.2014
     10  C          9.6970   20.4980    5.4420 C.2    58  GLY58       0.2639
     11  O          9.0710   19.8730    6.3050 O.2    58  GLY58      -0.2714
     12  N          9.4780   20.3330    4.1420 N.am   59  THR59      -0.1950
     13  CA         8.5070   19.3630    3.6480 C.3    59  THR59       0.1897
     14  C          8.9280   17.9550    4.0730 C.2    59  THR59       0.2313
     15  O          8.1180   17.1610    4.5650 O.2    59  THR59      -0.2863
     16  CB         8.3760   19.4450    2.1020 C.3    59  THR59       0.1794
     17  OG1        8.0850   20.7980    1.7230 O.3    59  THR59      -0.2208
     18  CG2        7.2550   18.5410    1.6090 C.3    59  THR59       0.0378
     19  N          8.3140   17.2660    7.8170 N.3    62  LEU62      -0.1245
     20  CA         6.9560   16.7950    8.0870 C.3    62  LEU62       0.1561
     21  C          6.7770   15.3310    7.6780 C.2    62  LEU62       0.2260
     22  O          6.2580   14.5230    8.4420 O.2    62  LEU62      -0.2867
     23  CB         5.9330   17.6740    7.3480 C.3    62  LEU62       0.0270
     24  CG         5.8790   19.1300    7.8080 C.3    62  LEU62       0.0019
     25  CD1        5.1540   20.0170    6.7920 C.3    62  LEU62       0.0001
     26  CD2        5.2340   19.2300    9.2070 C.3    62  LEU62       0.0001
     27  N         -3.4560   26.9860    3.5350 N.3    81  THR81      -0.1203
     28  CA        -2.0320   26.8450    3.8300 C.3    81  THR81       0.1994
     29  C         -1.2330   26.7400    2.5360 C.2    81  THR81       0.2617
     30  O         -1.8010   26.7490    1.4380 O.2    81  THR81      -0.2717
     31  CB        -1.7440   25.6040    4.7160 C.3    81  THR81       0.1784
     32  OG1       -0.3430   25.5420    5.0390 O.3    81  THR81      -0.2211
     33  CG2       -2.1540   24.3250    3.9950 C.3    81  THR81       0.0376
     34  N          0.0860   26.6480    2.6690 N.am   82  PHE82      -0.1975
     35  CA         0.9610   26.4590    1.5180 C.3    82  PHE82       0.1639
     36  C          0.9300   24.9960    1.0840 C.2    82  PHE82       0.2290
     37  O          0.7450   24.0980    1.9050 O.2    82  PHE82      -0.2864
     38  CB         2.3930   26.8710    1.8800 C.3    82  PHE82       0.0560
     39  CG         3.3770   26.7240    0.7480 C.ar   82  PHE82      -0.0200
     40  CD1        3.2470   27.4840   -0.4090 C.ar   82  PHE82      -0.0042
     41  CD2        4.4390   25.8300    0.8440 C.ar   82  PHE82      -0.0042
     42  CE1        4.1540   27.3510   -1.4580 C.ar   82  PHE82      -0.0003
     43  CE2        5.3510   25.6910   -0.1990 C.ar   82  PHE82      -0.0003
     44  CZ         5.2080   26.4590   -1.3540 C.ar   82  PHE82      -0.0000
     45  N          2.9880   22.7140    0.4400 N.3    84  ALA84      -0.1231
     46  CA         3.8790   21.7400    1.0610 C.3    84  ALA84       0.1694
     47  C          3.2370   21.0700    2.2830 C.2    84  ALA84       0.2592
     48  O          3.5300   19.9150    2.5840 O.2    84  ALA84      -0.2718
     49  CB         5.2160   22.3880    1.4370 C.3    84  ALA84       0.0304
     50  N          2.3580   21.7840    2.9790 N.am   85  SER85      -0.1952
     51  CA         1.6630   21.1870    4.1240 C.3    85  SER85       0.1924
     52  C          0.9330   19.9120    3.7030 C.2    85  SER85       0.2314
     53  O          1.0730   18.8560    4.3220 O.2    85  SER85      -0.2863
     54  CB         0.6520   22.1700    4.7250 C.3    85  SER85       0.2116
     55  OG         1.2800   23.2820    5.3380 O.3    85  SER85      -0.2180
     56  N         -1.1220   24.0940   11.1730 N.3   125  VAL125     -0.1245
     57  CA        -0.1020   24.8850   10.5060 C.3   125  VAL125      0.1561
     58  C         -0.0390   26.2330   11.1980 C.2   125  VAL125      0.2260
     59  O         -1.0580   26.9000   11.3680 O.2   125  VAL125     -0.2867
     60  CB        -0.4420   25.1180    9.0160 C.3   125  VAL125      0.0252
     61  CG1        0.6880   25.9010    8.3230 C.3   125  VAL125      0.0019
     62  CG2       -0.7030   23.7810    8.3230 C.3   125  VAL125      0.0019
     63  N          0.3830   29.1460   10.4520 N.3   127  TYR127     -0.1241
     64  CA         0.3980   29.8140    9.1510 C.3   127  TYR127      0.1605
     65  C          0.5260   31.3360    9.2460 C.2   127  TYR127      0.2264
     66  O         -0.1350   31.9710   10.0710 O.2   127  TYR127     -0.2867
     67  CB        -0.8720   29.4260    8.3960 C.3   127  TYR127      0.0534
     68  CG        -0.8480   29.7460    6.9260 C.ar  127  TYR127     -0.0201
     69  CD1        0.2630   29.4480    6.1460 C.ar  127  TYR127     -0.0009
     70  CD2       -1.9450   30.3340    6.3170 C.ar  127  TYR127     -0.0009
     71  CE1        0.2830   29.7330    4.7920 C.ar  127  TYR127      0.0417
     72  CE2       -1.9440   30.6150    4.9660 C.ar  127  TYR127      0.0417
     73  CZ        -0.8330   30.3180    4.2100 C.ar  127  TYR127      0.1957
     74  OH        -0.8520   30.6140    2.8670 O.3   127  TYR127     -0.2866
     75  N          3.1990   21.9330   12.0050 N.3   150  ASP150     -0.1239
     76  CA         3.8690   22.5250   10.8470 C.3   150  ASP150      0.1674
     77  C          4.2520   23.9480   11.2030 C.2   150  ASP150      0.2266
     78  O          3.4390   24.8730   11.0770 O.2   150  ASP150     -0.2867
     79  CB         2.9870   22.4990    9.5910 C.3   150  ASP150      0.1410
     80  CG         3.6790   23.1110    8.3800 C.2   150  ASP150      0.3668
     81  OD1        4.7910   23.6680    8.5390 O.co2 150  ASP150     -0.2456
     82  OD2        3.1010   23.0570    7.2660 O.co2 150  ASP150     -0.2456
     83  N          6.7340   25.7080    9.7580 N.3   152  CYS152     -0.1221
     84  CA         7.7220   26.1380    8.7610 C.3   152  CYS152      0.1808
     85  C          7.7470   27.6450    8.4910 C.2   152  CYS152      0.2601
     86  O          8.6230   28.1400    7.7720 O.2   152  CYS152     -0.2717
     87  CB         7.5540   25.3640    7.4460 C.3   152  CYS152      0.0970
     88  SG         8.0890   23.6330    7.5860 S.3   152  CYS152     -0.0800
     89  N          6.7750   28.3610    9.0340 N.am  153  GLN153     -0.1979
     90  CA         6.7780   29.8200    8.9700 C.3   153  GLN153      0.1601
     91  C          6.8860   30.4330   10.3560 C.2   153  GLN153      0.2287
     92  O          6.4370   31.5610   10.5620 O.2   153  GLN153     -0.2864
     93  CB         5.4990   30.3260    8.2990 C.3   153  GLN153      0.0394
     94  CG         5.3290   29.8330    6.8570 C.3   153  GLN153      0.0908
     95  CD         4.1080   30.4160    6.1730 C.2   153  GLN153      0.2608
     96  OE1        3.4330   31.2720    6.7230 O.2   153  GLN153     -0.2717
     97  NE2        3.8230   29.9510    4.9550 N.am  153  GLN153     -0.0878
     98  N         11.5450   25.3150    8.5410 N.3   174  SER174     -0.1217
     99  CA        12.2610   25.4970    7.2670 C.3   174  SER174      0.1889
    100  C         13.2410   26.6600    7.3860 C.2   174  SER174      0.2288
    101  O         12.9190   27.6690    8.0140 O.2   174  SER174     -0.2866
    102  CB        11.2650   25.8210    6.1480 C.3   174  SER174      0.2089
    103  OG        11.9460   26.1710    4.9440 O.3   174  SER174     -0.2183
    104  N         14.5800   27.6870    4.3940 N.3   176  HIS176     -0.1241
    105  CA        14.6570   28.0810    2.9850 C.3   176  HIS176      0.1621
    106  C         14.1890   29.5250    2.8030 C.2   176  HIS176      0.2264
    107  O         13.1150   29.8980    3.2750 O.2   176  HIS176     -0.2867
    108  CB        13.8320   27.1230    2.1170 C.3   176  HIS176      0.0745
    109  CG        13.8380   27.4730    0.6630 C.ar  176  HIS176      0.0817
    110  ND1       12.7040   27.8770   -0.0080 N.ar  176  HIS176     -0.2268
    111  CD2       14.8410   27.4920   -0.2460 C.ar  176  HIS176      0.1154
    112  CE1       13.0060   28.1230   -1.2720 C.ar  176  HIS176      0.1986
    113  NE2       14.2990   27.8980   -1.4430 N.ar  176  HIS176     -0.2212
    114  N         12.8640   33.2670    5.1940 N.3   179  LYS179     -0.1245
    115  CA        12.4300   32.9820    6.5770 C.3   179  LYS179      0.1561
    116  C         13.1210   33.9710    7.5040 C.2   179  LYS179      0.2260
    117  O         14.1400   34.5560    7.1320 O.2   179  LYS179     -0.2867
    118  CB        12.7880   31.5610    7.0390 C.3   179  LYS179      0.0271
    119  CG        12.2480   30.4190    6.1900 C.3   179  LYS179      0.0035
    120  CD        10.7370   30.2660    6.3090 C.3   179  LYS179      0.0206
    121  CE        10.2430   29.1360    5.4090 C.3   179  LYS179      0.1093
    122  NZ        10.4920   29.4200    3.9590 N.3   179  LYS179     -0.1314
    123  N         17.8360   25.1580    0.3210 N.3   186  ASP186     -0.1225
    124  CA        16.8660   24.4040    1.1010 C.3   186  ASP186      0.1805
    125  C         17.4860   23.8930    2.4070 C.2   186  ASP186      0.2597
    126  O         18.6920   23.6110    2.4690 O.2   186  ASP186     -0.2718
    127  CB        16.3520   23.2110    0.2920 C.3   186  ASP186      0.1424
    128  CG        15.3280   23.6130   -0.7420 C.2   186  ASP186      0.3668
    129  OD1       14.2580   24.1070   -0.3270 O.co2 186  ASP186     -0.2456
    130  OD2       15.5940   23.4240   -1.9570 O.co2 186  ASP186     -0.2456
    131  N         16.6490   23.7940    3.4390 N.am  187  ALA187     -0.1979
    132  CA        17.0140   23.1960    4.7290 C.3   187  ALA187      0.1597
    133  C         15.7810   23.0580    5.6030 C.2   187  ALA187      0.2287
    134  O         14.9380   23.9490    5.6230 O.2   187  ALA187     -0.2864
    135  CB        18.0630   24.0570    5.4570 C.3   187  ALA187      0.0319
    136  N          5.6950   35.9370    9.7370 N.3   276  HIS276     -0.1241
    137  CA         6.4340   35.5120    8.5660 C.3   276  HIS276      0.1621
    138  C          5.9960   36.3590    7.3660 C.2   276  HIS276      0.2264
    139  O          6.8300   36.8420    6.5990 O.2   276  HIS276     -0.2867
    140  CB         6.1880   34.0330    8.2910 C.3   276  HIS276      0.0745
    141  CG         6.7650   33.5730    6.9860 C.ar  276  HIS276      0.0817
    142  ND1        8.1180   33.4490    6.7870 N.ar  276  HIS276     -0.2268
    143  CD2        6.1720   33.2590    5.8130 C.ar  276  HIS276      0.1154
    144  CE1        8.3390   33.0450    5.5450 C.ar  276  HIS276      0.1986
    145  NE2        7.1760   32.9270    4.9330 N.ar  276  HIS276     -0.2212
@<TRIPOS>BOND
     1   130   128   ar
     2    42    44   ar
     3    42    40   ar
     4   113   112   ar
     5   113   111   ar
     6    44    43   ar
     7   112   110   ar
     8   128   129   ar
     9   128   127    1
    10    40    39   ar
    11   111   109   ar
    12    43    41   ar
    13   110   109   ar
    14   127   124    1
    15   123   124    1
    16    45    46    1
    17   109   108    1
    18    39    41   ar
    19    39    38    1
    20    46    49    1
    21    46    47    1
    22    36    35    1
    23    36    37    2
    24   124   125    1
    25     7     5    1
    26    30    29    2
    27    35    38    1
    28    35    34    1
    29    18    16    1
    30    17    16    1
    31    16    13    1
    32   108   105    1
    33    47    48    2
    34    47    50   am
    35     5     6    1
    36     5     2    1
    37   125   126    2
    38   125   131   am
    39    29    34   am
    40    29    28    1
    41   106   105    1
    42   106   107    2
    43    74    73    1
    44    50    51    1
    45   105   104    1
    46   131   132    1
    47    27    28    1
    48    13    14    1
    49    13    12    1
    50     2     1    1
    51     2     3    1
    52    52    51    1
    53    52    53    2
    54    28    31    1
    55   122   121    1
    56    33    31    1
    57    14    15    2
    58    51    54    1
    59    12    10   am
    60    73    71   ar
    61    73    72   ar
    62    31    32    1
    63    54    55    1
    64   132   135    1
    65   132   133    1
    66     3     8   am
    67     3     4    2
    68    71    69   ar
    69     8     9    1
    70   145   144   ar
    71   145   143   ar
    72   103   102    1
    73    97    95   am
    74    72    70   ar
    75   114   115    1
    76   121   120    1
    77    10     9    1
    78    10    11    2
    79   144   142   ar
    80   133   134    2
    81   143   141   ar
    82    69    68   ar
    83   102    99    1
    84    95    96    2
    85    95    94    1
    86   119   120    1
    87   119   118    1
    88    70    68   ar
    89   115   118    1
    90   115   116    1
    91   139   138    2
    92   142   141   ar
    93    25    24    1
    94    94    93    1
    95    68    67    1
    96   141   140    1
    97   117   116    2
    98    82    80   ar
    99    99   100    1
   100    99    98    1
   101    23    24    1
   102    23    20    1
   103   138   137    1
   104   100   101    2
   105    87    88    1
   106    87    84    1
   107    21    20    1
   108    21    22    2
   109    86    85    2
   110    24    26    1
   111    19    20    1
   112   140   137    1
   113    93    90    1
   114    62    60    1
   115    61    60    1
   116    80    81   ar
   117    80    79    1
   118    67    64    1
   119    85    84    1
   120    85    89   am
   121   137   136    1
   122    84    83    1
   123    90    89    1
   124    90    91    1
   125    60    57    1
   126    64    65    1
   127    64    63    1
   128    65    66    2
   129    79    76    1
   130    91    92    2
   131    57    56    1
   132    57    58    1
   133    76    77    1
   134    76    75    1
   135    78    77    2
   136    58    59    2
