@<TRIPOS>MOLECULE
tmp/3uwdA01.pdb
 86 79 0 0 0
SMALL
GASTEIGER

@<TRIPOS>ATOM
      1  N         19.7400   34.3010    7.2490 N.3   145  ARG145     -0.1245
      2  CA        20.7990   34.9250    6.4420 C.3   145  ARG145      0.1563
      3  C         21.7490   33.8750    5.8670 C.2   145  ARG145      0.2260
      4  O         22.0320   32.8620    6.4830 O.2   145  ARG145     -0.2867
      5  CB        21.5390   35.9770    7.2520 C.3   145  ARG145      0.0307
      6  CG        20.6400   37.1390    7.6470 C.3   145  ARG145      0.0489
      7  CD        20.1920   37.9560    6.4470 C.3   145  ARG145      0.2205
      8  NE        19.2440   39.0040    6.8370 N.pl3 145  ARG145     -0.0865
      9  CZ        17.9500   38.9940    6.5270 C.cat 145  ARG145      0.5346
     10  NH1       17.4550   38.0070    5.8020 N.pl3 145  ARG145      0.1354
     11  NH2       17.1620   39.9770    6.9290 N.pl3 145  ARG145      0.1354
     12  N          5.6570   49.5170    9.3680 N.3   192  LYS192     -0.1231
     13  CA         6.6590   49.1210    8.3700 C.3   192  LYS192      0.1693
     14  C          7.2530   47.7420    8.6300 C.2   192  LYS192      0.2592
     15  O          7.4510   46.9270    7.7120 O.2   192  LYS192     -0.2718
     16  CB         7.8190   50.1160    8.3540 C.3   192  LYS192      0.0285
     17  CG         8.7680   49.7840    7.2350 C.3   192  LYS192      0.0035
     18  CD         9.9670   50.7220    7.1050 C.3   192  LYS192      0.0206
     19  CE        10.6680   50.5310    5.7570 C.3   192  LYS192      0.1093
     20  NZ         9.8280   50.2090    4.5320 N.3   192  LYS192     -0.1314
     21  N          7.5670   47.4970    9.8930 N.am  193  ASP193     -0.1974
     22  CA         8.2250   46.2670   10.3290 C.3   193  ASP193      0.1709
     23  C          7.3810   45.0120   10.1790 C.2   193  ASP193      0.2293
     24  O          7.9410   43.9100   10.0120 O.2   193  ASP193     -0.2864
     25  CB         8.6510   46.4000   11.7990 C.3   193  ASP193      0.1436
     26  CG         9.7690   47.4230   11.9950 C.2   193  ASP193      0.3671
     27  OD1       10.4100   47.8060   10.9930 O.co2 193  ASP193     -0.2456
     28  OD2        9.9570   47.9020   13.1520 O.co2 193  ASP193     -0.2456
     29  N          4.7330   44.7970    7.7760 N.3   195  ILE195     -0.1231
     30  CA         4.0180   44.7870    6.4580 C.3   195  ILE195      0.1692
     31  C          4.0180   43.4130    5.8340 C.2   195  ILE195      0.2592
     32  O          2.9820   42.8800    5.4710 O.2   195  ILE195     -0.2718
     33  CB         4.5810   45.7970    5.4830 C.3   195  ILE195      0.0266
     34  CG1        4.2120   47.1680    5.8890 C.3   195  ILE195      0.0019
     35  CG2        4.1580   45.4870    4.0130 C.3   195  ILE195      0.0020
     36  CD1        5.0320   48.2010    5.1830 C.3   195  ILE195      0.0001
     37  N          5.1840   42.8070    5.7560 N.am  196  GLY196     -0.1957
     38  CA         5.2500   41.4700    5.1580 C.3   196  GLY196      0.1869
     39  C          4.4310   40.4220    5.8850 C.2   196  GLY196      0.2309
     40  O          3.8020   39.5320    5.2390 O.2   196  GLY196     -0.2863
     41  N          0.6140   41.0680    5.3120 N.3   199  ARG199     -0.1245
     42  CA         0.2820   40.6310    3.9810 C.3   199  ARG199      0.1563
     43  C          0.1630   39.1270    3.8360 C.2   199  ARG199      0.2260
     44  O         -0.8100   38.6250    3.3120 O.2   199  ARG199     -0.2867
     45  CB         1.3040   41.1750    3.0080 C.3   199  ARG199      0.0307
     46  CG         1.0070   40.8150    1.5440 C.3   199  ARG199      0.0489
     47  CD         2.1600   41.1410    0.5980 C.3   199  ARG199      0.2205
     48  NE         2.5160   42.5540    0.5990 N.pl3 199  ARG199     -0.0865
     49  CZ         3.6790   43.0420    1.0050 C.cat 199  ARG199      0.5346
     50  NH1        4.5950   42.2840    1.5950 N.pl3 199  ARG199      0.1354
     51  NH2        3.9170   44.3180    0.8510 N.pl3 199  ARG199      0.1354
     52  N         10.0820   35.9910   12.0360 N.3   364  LEU364     -0.1231
     53  CA         9.2550   36.9160   11.2670 C.3   364  LEU364      0.1693
     54  C          9.3640   36.5620    9.7670 C.2   364  LEU364      0.2591
     55  O          8.3780   36.4350    9.0800 O.2   364  LEU364     -0.2718
     56  CB         9.6930   38.3480   11.5530 C.3   364  LEU364      0.0284
     57  CG         8.8670   39.4730   10.9590 C.3   364  LEU364      0.0019
     58  CD1        7.4280   39.3900   11.4540 C.3   364  LEU364      0.0001
     59  CD2        9.4990   40.8290   11.3010 C.3   364  LEU364      0.0001
     60  N         10.5890   36.4020    9.2790 N.am  365  GLU365     -0.1979
     61  CA        10.7950   36.1090    7.8780 C.3   365  GLU365      0.1602
     62  C         10.1660   34.8060    7.4900 C.2   365  GLU365      0.2287
     63  O          9.5670   34.7120    6.4590 O.2   365  GLU365     -0.2864
     64  CB        12.3030   36.1660    7.5010 C.3   365  GLU365      0.0415
     65  CG        12.7550   37.6200    7.4320 C.3   365  GLU365      0.1163
     66  CD        14.0840   37.8490    6.7620 C.2   365  GLU365      0.3649
     67  OE1       14.4900   36.9910    5.9780 O.co2 365  GLU365     -0.2457
     68  OE2       14.6990   38.9410    6.9900 O.co2 365  GLU365     -0.2457
     69  N          6.4530   35.2110    7.1390 N.3   367  GLU367     -0.1245
     70  CA         6.1600   36.0210    5.9170 C.3   367  GLU367      0.1567
     71  C          6.1780   35.1500    4.6670 C.2   367  GLU367      0.2260
     72  O          5.8740   35.6370    3.5720 O.2   367  GLU367     -0.2867
     73  CB         7.2220   37.0980    5.7090 C.3   367  GLU367      0.0388
     74  CG         7.1380   38.2360    6.6850 C.3   367  GLU367      0.1160
     75  CD         8.2580   39.2370    6.4830 C.2   367  GLU367      0.3649
     76  OE1        8.9120   39.2050    5.4260 O.co2 367  GLU367     -0.2457
     77  OE2        8.5750   40.0260    7.4040 O.co2 367  GLU367     -0.2457
     78  N          8.9640   33.5660    3.5330 N.3   369  LYS369     -0.1245
     79  CA        10.2690   33.5460    2.9130 C.3   369  LYS369      0.1561
     80  C         10.9830   32.1930    3.0400 C.2   369  LYS369      0.2260
     81  O         10.7660   31.4670    3.9970 O.2   369  LYS369     -0.2867
     82  CB        11.1130   34.6430    3.5210 C.3   369  LYS369      0.0271
     83  CG        10.6060   36.0190    3.1290 C.3   369  LYS369      0.0035
     84  CD        11.3110   37.0670    3.9240 C.3   369  LYS369      0.0206
     85  CE        11.0820   38.3940    3.2720 C.3   369  LYS369      0.1093
     86  NZ        11.6360   39.5080    4.1140 N.3   369  LYS369     -0.1314
@<TRIPOS>BOND
     1    47    48    1
     2    47    46    1
     3    48    49    2
     4    51    49    1
     5    49    50    1
     6    46    45    1
     7    79    80    1
     8    79    82    1
     9    79    78    1
    10    45    42    1
    11    80    81    2
    12    83    82    1
    13    83    84    1
    14    85    84    1
    15    85    86    1
    16    44    43    2
    17    72    71    2
    18    43    42    1
    19    42    41    1
    20    35    33    1
    21    20    19    1
    22    71    70    1
    23    38    37    1
    24    38    39    1
    25    36    34    1
    26    40    39    2
    27    76    75   ar
    28    32    31    2
    29    33    34    1
    30    33    30    1
    31    73    70    1
    32    73    74    1
    33    37    31   am
    34    19    18    1
    35    10     9    1
    36    31    30    1
    37     3     2    1
    38     3     4    2
    39    70    69    1
    40    67    66   ar
    41     2     1    1
    42     2     5    1
    43     7     8    1
    44     7     6    1
    45    30    29    1
    46    63    62    2
    47    75    74    1
    48    75    77   ar
    49     9     8    2
    50     9    11    1
    51    66    68   ar
    52    66    65    1
    53    18    17    1
    54    17    16    1
    55     5     6    1
    56    65    64    1
    57    62    61    1
    58    64    61    1
    59    15    14    2
    60    61    60    1
    61    16    13    1
    62    13    14    1
    63    13    12    1
    64    14    21   am
    65    55    54    2
    66    60    54   am
    67    54    53    1
    68    21    22    1
    69    24    23    2
    70    23    22    1
    71    22    25    1
    72    57    59    1
    73    57    58    1
    74    57    56    1
    75    27    26   ar
    76    53    56    1
    77    53    52    1
    78    25    26    1
    79    26    28   ar
