@<TRIPOS>MOLECULE
tmp/3uweA01.pdb
 151 149 0 0 0
SMALL
GASTEIGER

@<TRIPOS>ATOM
      1  N          2.2010   -2.2460    9.2630 N.3    19  TYR19      -0.1241
      2  CA         0.8370   -2.2960    9.7830 C.3    19  TYR19       0.1605
      3  C         -0.1160   -2.8460    8.6890 C.2    19  TYR19       0.2264
      4  O         -0.0460   -2.4350    7.5380 O.2    19  TYR19      -0.2867
      5  CB         0.3410   -0.8860   10.1290 C.3    19  TYR19       0.0534
      6  CG        -1.1050   -1.0070   10.6330 C.ar   19  TYR19      -0.0201
      7  CD1       -1.3920   -1.5930   11.8710 C.ar   19  TYR19      -0.0009
      8  CD2       -2.1740   -0.5990    9.8310 C.ar   19  TYR19      -0.0009
      9  CE1       -2.7460   -1.7300   12.2970 C.ar   19  TYR19       0.0417
     10  CE2       -3.5370   -0.7650   10.2570 C.ar   19  TYR19       0.0417
     11  CZ        -3.8060   -1.2920   11.4730 C.ar   19  TYR19       0.1957
     12  OH        -5.1000   -1.4600   11.9160 O.3    19  TYR19      -0.2866
     13  N          0.8190   -1.5770   18.9260 N.3    49  LEU49      -0.1231
     14  CA        -0.5190   -1.3560   18.3300 C.3    49  LEU49       0.1693
     15  C         -0.8090   -2.3660   17.1920 C.2    49  LEU49       0.2592
     16  O         -1.9620   -2.7460   16.9900 O.2    49  LEU49      -0.2718
     17  CB        -0.6190    0.0760   17.7820 C.3    49  LEU49       0.0284
     18  CG        -1.9940    0.4960   17.2250 C.3    49  LEU49       0.0019
     19  CD1       -3.0910    0.5610   18.3350 C.3    49  LEU49       0.0001
     20  CD2       -1.9200    1.8270   16.4620 C.3    49  LEU49       0.0001
     21  N          0.2130   -2.8120   16.4880 N.am   50  TYR50      -0.1976
     22  CA        -0.0080   -3.5190   15.2100 C.3    50  TYR50       0.1639
     23  C         -0.3740   -4.9980   15.3970 C.2    50  TYR50       0.2290
     24  O         -0.8780   -5.6300   14.4220 O.2    50  TYR50      -0.2864
     25  CB         1.2350   -3.4200   14.3200 C.3    50  TYR50       0.0560
     26  CG         1.6650   -1.9930   13.9750 C.ar   50  TYR50      -0.0198
     27  CD1        0.8290   -0.9440   14.3060 C.ar   50  TYR50      -0.0009
     28  CD2        2.9190   -1.7510   13.3060 C.ar   50  TYR50      -0.0009
     29  CE1        1.2180    0.3920   14.0440 C.ar   50  TYR50       0.0417
     30  CE2        3.3650   -0.4330   13.0120 C.ar   50  TYR50       0.0417
     31  CZ         2.5180    0.6270   13.3410 C.ar   50  TYR50       0.1957
     32  OH         2.9090    1.9320   13.1470 O.3    50  TYR50      -0.2866
     33  N          7.1530    0.5160   19.2070 N.3    79  LYS79      -0.1245
     34  CA         6.5900    1.8100   19.7080 C.3    79  LYS79       0.1561
     35  C          5.7790    1.5360   20.9470 C.2    79  LYS79       0.2260
     36  O          5.0430    0.5090   21.0050 O.2    79  LYS79      -0.2867
     37  CB         5.6890    2.4920   18.6530 C.3    79  LYS79       0.0271
     38  CG         6.3850    2.6270   17.2690 C.3    79  LYS79       0.0035
     39  CD         5.4560    3.5170   16.3880 C.3    79  LYS79       0.0206
     40  CE         6.0180    3.4680   14.9190 C.3    79  LYS79       0.1093
     41  NZ         5.6110    2.2050   14.2150 N.3    79  LYS79      -0.1314
     42  N          2.7200    2.0420   23.1450 N.3    81  TRP81      -0.1241
     43  CA         1.3660    2.5230   22.9010 C.3    81  TRP81       0.1605
     44  C          0.8750    3.5110   24.0080 C.2    81  TRP81       0.2264
     45  O          1.4420    3.5430   25.0860 O.2    81  TRP81      -0.2867
     46  CB         0.4380    1.2690   22.7180 C.3    81  TRP81       0.0550
     47  CG        -0.9660    1.7760   22.3370 C.ar   81  TRP81       0.0003
     48  CD1       -2.0980    1.6040   23.0540 C.ar   81  TRP81       0.0946
     49  CD2       -1.2960    2.7250   21.2700 C.ar   81  TRP81       0.0152
     50  NE1       -3.1600    2.2920   22.4680 N.ar   81  TRP81      -0.2442
     51  CE2       -2.6920    2.9820   21.3740 C.ar   81  TRP81       0.0810
     52  CE3       -0.5700    3.3040   20.2180 C.ar   81  TRP81       0.0012
     53  CZ2       -3.3760    3.8170   20.4720 C.ar   81  TRP81       0.0191
     54  CZ3       -1.2340    4.1750   19.3270 C.ar   81  TRP81       0.0001
     55  CH2       -2.6360    4.3970   19.4540 C.ar   81  TRP81       0.0015
     56  N          4.5990    6.3040   20.6770 N.3   112  HIS112     -0.1226
     57  CA         3.9130    6.1860   19.3770 C.3   112  HIS112      0.1752
     58  C          3.1650    7.5090   19.1590 C.2   112  HIS112      0.2596
     59  O          2.9040    7.8630   18.0060 O.2   112  HIS112     -0.2718
     60  CB         2.8610    5.0620   19.4980 C.3   112  HIS112      0.0759
     61  CG         2.3870    4.4920   18.1890 C.ar  112  HIS112      0.0818
     62  ND1        2.1670    3.1340   18.0450 N.ar  112  HIS112     -0.2268
     63  CD2        2.0580    5.0670   16.9990 C.ar  112  HIS112      0.1154
     64  CE1        1.6760    2.9050   16.8290 C.ar  112  HIS112      0.1986
     65  NE2        1.6370    4.0560   16.1570 N.ar  112  HIS112     -0.2212
     66  N          2.6380    8.1150   20.2460 N.am  113  SER113     -0.1952
     67  CA         1.7290    9.2560   20.0410 C.3   113  SER113      0.1924
     68  C          1.7690   10.0550   21.3550 C.2   113  SER113      0.2314
     69  O          1.8950    9.4560   22.4110 O.2   113  SER113     -0.2863
     70  CB         0.3350    8.7030   19.8100 C.3   113  SER113      0.2116
     71  OG        -0.6360    9.6620   20.0570 O.3   113  SER113     -0.2180
     72  N         -0.8310   11.4940   22.5440 N.3   115  MET115     -0.1245
     73  CA        -2.2230   11.5200   22.9830 C.3   115  MET115      0.1570
     74  C         -2.4490   10.4110   23.9630 C.2   115  MET115      0.2261
     75  O         -2.9240    9.3210   23.6110 O.2   115  MET115     -0.2867
     76  CB        -3.2020   11.4270   21.8030 C.3   115  MET115      0.0387
     77  CG        -3.0870   12.7150   20.9320 C.3   115  MET115      0.0595
     78  SD        -4.1850   12.6070   19.4990 S.3   115  MET115     -0.1393
     79  CE        -3.2590   11.3940   18.5350 C.3   115  MET115      0.0692
     80  N          4.4760   11.3820   16.0190 N.3   159  ASN159     -0.1240
     81  CA         3.2730   12.2220   16.0370 C.3   159  ASN159      0.1653
     82  C          3.4150   13.4500   17.0130 C.2   159  ASN159      0.2266
     83  O          2.4150   13.9930   17.4590 O.2   159  ASN159     -0.2867
     84  CB         2.0660   11.3460   16.4220 C.3   159  ASN159      0.1155
     85  CG         1.6970   10.3940   15.3210 C.2   159  ASN159      0.2627
     86  OD1        1.3720   10.8270   14.2200 O.2   159  ASN159     -0.2716
     87  ND2        1.6950    9.0930   15.6010 N.am  159  ASN159     -0.0877
     88  N          8.6520   10.4990   14.1200 N.3   182  GLN182     -0.1245
     89  CA         8.0000    9.8180   12.9770 C.3   182  GLN182      0.1566
     90  C          6.5830   10.4070   12.8280 C.2   182  GLN182      0.2260
     91  O          5.7750   10.3630   13.7520 O.2   182  GLN182     -0.2867
     92  CB         7.8690    8.3050   13.3220 C.3   182  GLN182      0.0367
     93  CG         7.2440    7.5320   12.1220 C.3   182  GLN182      0.0905
     94  CD         7.0600    6.0420   12.3730 C.2   182  GLN182      0.2608
     95  OE1        5.9460    5.5600   12.1960 O.2   182  GLN182     -0.2717
     96  NE2        8.1630    5.3110   12.6040 N.am  182  GLN182     -0.0878
     97  N          5.6770    8.6750    7.7330 N.3   208  TYR208     -0.1241
     98  CA         4.6830    7.5760    7.5150 C.3   208  TYR208      0.1605
     99  C          3.5690    8.0930    6.6070 C.2   208  TYR208      0.2264
    100  O          3.3790    9.3240    6.4330 O.2   208  TYR208     -0.2867
    101  CB         4.1070    7.0510    8.8510 C.3   208  TYR208      0.0534
    102  CG         3.1550    7.9130    9.6350 C.ar  208  TYR208     -0.0201
    103  CD1        1.8700    8.1310    9.1680 C.ar  208  TYR208     -0.0009
    104  CD2        3.4860    8.3820   10.9200 C.ar  208  TYR208     -0.0009
    105  CE1        0.9480    8.8890    9.9250 C.ar  208  TYR208      0.0417
    106  CE2        2.5540    9.0620   11.7100 C.ar  208  TYR208      0.0417
    107  CZ         1.3050    9.3160   11.2160 C.ar  208  TYR208      0.1957
    108  OH         0.3580    9.9480   11.9760 O.3   208  TYR208     -0.2866
    109  N        -10.2810    5.9690   10.1720 N.3   219  TRP219     -0.1241
    110  CA        -9.6450    7.2860   10.4670 C.3   219  TRP219      0.1605
    111  C         -9.5370    8.1940    9.2470 C.2   219  TRP219      0.2264
    112  O         -9.1920    9.3530    9.4220 O.2   219  TRP219     -0.2867
    113  CB        -8.1940    7.0820   11.0480 C.3   219  TRP219      0.0550
    114  CG        -8.1860    6.1460   12.1460 C.ar  219  TRP219      0.0003
    115  CD1       -8.6660    6.3810   13.4220 C.ar  219  TRP219      0.0946
    116  CD2       -7.7070    4.8220   12.1210 C.ar  219  TRP219      0.0152
    117  NE1       -8.5660    5.2140   14.1710 N.ar  219  TRP219     -0.2442
    118  CE2       -7.9680    4.2530   13.4010 C.ar  219  TRP219      0.0810
    119  CE3       -7.1260    4.0220   11.1180 C.ar  219  TRP219      0.0012
    120  CZ2       -7.6450    2.9300   13.7130 C.ar  219  TRP219      0.0191
    121  CZ3       -6.8120    2.6980   11.4180 C.ar  219  TRP219      0.0001
    122  CH2       -7.0650    2.1660   12.7410 C.ar  219  TRP219      0.0015
    123  N         -5.0400   10.9980    8.3760 N.3   297  PHE297     -0.1241
    124  CA        -5.6400   10.5370    9.6840 C.3   297  PHE297      0.1605
    125  C         -6.3730   11.7150   10.2000 C.2   297  PHE297      0.2264
    126  O         -5.7420   12.7020   10.5630 O.2   297  PHE297     -0.2867
    127  CB        -4.5480   10.1050   10.6680 C.3   297  PHE297      0.0534
    128  CG        -4.0170    8.7480   10.3450 C.ar  297  PHE297     -0.0203
    129  CD1       -4.5060    7.5930   10.9470 C.ar  297  PHE297     -0.0042
    130  CD2       -3.0300    8.6240    9.3290 C.ar  297  PHE297     -0.0042
    131  CE1       -4.0120    6.2980   10.6280 C.ar  297  PHE297     -0.0003
    132  CE2       -2.5200    7.3610    8.9720 C.ar  297  PHE297     -0.0003
    133  CZ        -2.9590    6.1990    9.6100 C.ar  297  PHE297     -0.0000
    134  N         -8.9210   11.5360   17.5410 N.3   302  PHE302     -0.1241
    135  CA        -7.7220   12.3200   17.8070 C.3   302  PHE302      0.1605
    136  C         -8.0450   13.7780   18.0520 C.2   302  PHE302      0.2264
    137  O         -7.4040   14.4080   18.8930 O.2   302  PHE302     -0.2867
    138  CB        -6.7410   12.2230   16.6110 C.3   302  PHE302      0.0534
    139  CG        -6.5240   10.7980   16.1300 C.ar  302  PHE302     -0.0203
    140  CD1       -6.0650    9.8110   17.0190 C.ar  302  PHE302     -0.0042
    141  CD2       -6.8060   10.4360   14.7870 C.ar  302  PHE302     -0.0042
    142  CE1       -5.8720    8.4990   16.5930 C.ar  302  PHE302     -0.0003
    143  CE2       -6.6140    9.0910   14.3180 C.ar  302  PHE302     -0.0003
    144  CZ        -6.1520    8.1160   15.1840 C.ar  302  PHE302     -0.0000
    145  N         -1.8000   16.5870   18.0730 N.3   309  PRO309     -0.2116
    146  CA        -0.6620   17.2410   17.5770 C.3   309  PRO309      0.1372
    147  C         -0.9880   18.2880   16.5470 C.2   309  PRO309      0.2244
    148  O         -0.1710   19.1870   16.3360 O.2   309  PRO309     -0.2868
    149  CB         0.1970   16.1350   16.9450 C.3   309  PRO309      0.0268
    150  CG        -0.7020   15.0630   16.7240 C.3   309  PRO309      0.0207
    151  CD        -1.7650   15.1230   17.8550 C.3   309  PRO309      0.0892
@<TRIPOS>BOND
     1   100    99    2
     2    99    98    1
     3    98    97    1
     4    98   101    1
     5     4     3    2
     6   123   124    1
     7     3     2    1
     8   101   102    1
     9   132   130   ar
    10   132   133   ar
    11   103   102   ar
    12   103   105   ar
    13   111   112    2
    14   111   110    1
    15     1     2    1
    16   130   128   ar
    17   133   131   ar
    18   102   104   ar
    19   124   125    1
    20   124   127    1
    21     2     5    1
    22     8    10   ar
    23     8     6   ar
    24   105   107   ar
    25     5     6    1
    26   109   110    1
    27   125   126    2
    28    10    11   ar
    29   128   127    1
    30   128   129   ar
    31   110   113    1
    32   131   129   ar
    33     6     7   ar
    34   104   106   ar
    35   113   114    1
    36   119   121   ar
    37   119   116   ar
    38   107   106   ar
    39   107   108    1
    40   121   122   ar
    41    11    12    1
    42    11     9   ar
    43     7     9   ar
    44   116   114   ar
    45   116   118   ar
    46    93    94    1
    47    93    92    1
    48   114   115   ar
    49    95    94    2
    50    94    96   am
    51   122   120   ar
    52    90    89    1
    53    90    91    2
    54    89    92    1
    55    89    88    1
    56    30    28   ar
    57    30    31   ar
    58    32    31    1
    59    28    26   ar
    60    31    29   ar
    61   118   120   ar
    62   118   117   ar
    63   115   117   ar
    64    26    27   ar
    65    26    25    1
    66    29    27   ar
    67    41    40    1
    68    86    85    2
    69   143   141   ar
    70   143   144   ar
    71    25    22    1
    72    24    23    2
    73   141   139   ar
    74    40    39    1
    75   144   142   ar
    76    22    23    1
    77    22    21    1
    78    85    87   am
    79    85    84    1
    80    80    81    1
    81    81    84    1
    82    81    82    1
    83   139   138    1
    84   139   140   ar
    85    65    64   ar
    86    65    63   ar
    87   148   147    2
    88    39    38    1
    89    20    18    1
    90    21    15   am
    91   147   146    1
    92   142   140   ar
    93   138   135    1
    94   150   149    1
    95   150   151    1
    96    64    62   ar
    97   149   146    1
    98    16    15    2
    99    63    61   ar
   100    82    83    2
   101    15    14    1
   102    18    17    1
   103    18    19    1
   104    38    37    1
   105   134   135    1
   106   146   145    1
   107    17    14    1
   108   135   136    1
   109   151   145    1
   110    59    58    2
   111    62    61   ar
   112   136   137    2
   113    61    60    1
   114    14    13    1
   115    79    78    1
   116    37    34    1
   117    58    57    1
   118    58    66   am
   119    33    34    1
   120    54    55   ar
   121    54    52   ar
   122    57    60    1
   123    57    56    1
   124    55    53   ar
   125    78    77    1
   126    34    35    1
   127    70    67    1
   128    70    71    1
   129    67    66    1
   130    67    68    1
   131    52    49   ar
   132    53    51   ar
   133    77    76    1
   134    35    36    2
   135    49    51   ar
   136    49    47   ar
   137    68    69    2
   138    51    50   ar
   139    76    73    1
   140    47    46    1
   141    47    48   ar
   142    50    48   ar
   143    72    73    1
   144    46    43    1
   145    43    42    1
   146    43    44    1
   147    73    74    1
   148    75    74    2
   149    44    45    2
