@<TRIPOS>MOLECULE
tmp/3uwiA00.pdb
 177 177 0 0 0
SMALL
GASTEIGER

@<TRIPOS>ATOM
      1  N          7.2040   15.4590   23.8540 N.3    40  HIS40      -0.1241
      2  CA         6.2790   16.5940   23.7450 C.3    40  HIS40       0.1621
      3  C          5.2030   16.5910   24.8310 C.2    40  HIS40       0.2264
      4  O          4.4740   17.5890   24.9910 O.2    40  HIS40      -0.2867
      5  CB         5.7000   16.7260   22.3330 C.3    40  HIS40       0.0745
      6  CG         4.4980   15.8690   22.0720 C.ar   40  HIS40       0.0817
      7  ND1        4.5690   14.6680   21.4030 N.ar   40  HIS40      -0.2268
      8  CD2        3.1900   16.0710   22.3510 C.ar   40  HIS40       0.1154
      9  CE1        3.3530   14.1570   21.2910 C.ar   40  HIS40       0.1986
     10  NE2        2.5010   14.9870   21.8640 N.ar   40  HIS40      -0.2212
     11  N         11.0930   21.4890   17.2010 N.3    79  GLU79      -0.1245
     12  CA        10.7840   22.0900   15.8890 C.3    79  GLU79       0.1567
     13  C         10.3410   21.0130   14.9120 C.2    79  GLU79       0.2260
     14  O          9.3870   21.2040   14.1390 O.2    79  GLU79      -0.2867
     15  CB        11.9860   22.8090   15.2890 C.3    79  GLU79       0.0388
     16  CG        12.5480   23.9200   16.0930 C.3    79  GLU79       0.1160
     17  CD        13.8710   24.4240   15.5290 C.2    79  GLU79       0.3649
     18  OE1       14.4510   25.3000   16.1650 O.co2  79  GLU79      -0.2457
     19  OE2       14.3180   23.9440   14.4630 O.co2  79  GLU79      -0.2457
     20  N         10.0950   17.5180   15.8810 N.3    81  TYR81      -0.1241
     21  CA         9.6290   16.3310   16.6180 C.3    81  TYR81       0.1605
     22  C         10.5780   15.1480   16.5380 C.2    81  TYR81       0.2264
     23  O         10.2380   14.0480   16.9510 O.2    81  TYR81      -0.2867
     24  CB         8.1920   15.9210   16.2490 C.3    81  TYR81       0.0534
     25  CG         7.1310   16.5000   17.1680 C.ar   81  TYR81      -0.0201
     26  CD1        7.1420   17.8500   17.5170 C.ar   81  TYR81      -0.0009
     27  CD2        6.1100   15.7040   17.6810 C.ar   81  TYR81      -0.0009
     28  CE1        6.1680   18.3710   18.3590 C.ar   81  TYR81       0.0417
     29  CE2        5.1220   16.2250   18.4960 C.ar   81  TYR81       0.0417
     30  CZ         5.1590   17.5630   18.8390 C.ar   81  TYR81       0.1957
     31  OH         4.1940   18.1210   19.6510 O.3    81  TYR81      -0.2866
     32  N         -9.0910   11.9980   21.7720 N.3   123  ASN123     -0.1240
     33  CA       -10.2650   12.3700   20.9760 C.3   123  ASN123      0.1653
     34  C        -10.6540   11.2470   20.0100 C.2   123  ASN123      0.2266
     35  O         -9.7860   10.6200   19.3870 O.2   123  ASN123     -0.2867
     36  CB        -9.8980   13.6460   20.2240 C.3   123  ASN123      0.1155
     37  CG       -11.0650   14.3010   19.5010 C.2   123  ASN123      0.2627
     38  OD1      -12.2180   13.8540   19.5550 O.2   123  ASN123     -0.2716
     39  ND2      -10.7520   15.4060   18.8200 N.am  123  ASN123     -0.0877
     40  N          5.6840   18.4690    6.1720 N.3   154  PHE154     -0.1241
     41  CA         6.6370   18.6870    7.2450 C.3   154  PHE154      0.1605
     42  C          7.7890   17.6900    7.1680 C.2   154  PHE154      0.2264
     43  O          7.7170   16.7000    6.4270 O.2   154  PHE154     -0.2867
     44  CB         5.9260   18.6320    8.6060 C.3   154  PHE154      0.0534
     45  CG         4.8700   19.6970    8.7870 C.ar  154  PHE154     -0.0203
     46  CD1        3.5160   19.3680    8.7990 C.ar  154  PHE154     -0.0042
     47  CD2        5.2320   21.0320    8.9500 C.ar  154  PHE154     -0.0042
     48  CE1        2.5390   20.3580    8.9690 C.ar  154  PHE154     -0.0003
     49  CE2        4.2690   22.0190    9.1110 C.ar  154  PHE154     -0.0003
     50  CZ         2.9200   21.6820    9.1190 C.ar  154  PHE154     -0.0000
     51  N         -7.0990    6.3940   13.2100 N.3   171  ASP171     -0.1225
     52  CA        -5.8450    7.0640   13.6000 C.3   171  ASP171      0.1805
     53  C         -5.8470    7.3360   15.1040 C.2   171  ASP171      0.2598
     54  O         -6.8760    7.2340   15.7840 O.2   171  ASP171     -0.2718
     55  CB        -5.7830    8.4000   12.8580 C.3   171  ASP171      0.1424
     56  CG        -4.3900    9.0230   12.7670 C.2   171  ASP171      0.3668
     57  OD1       -3.3630    8.4610   13.2110 O.co2 171  ASP171     -0.2456
     58  OD2       -4.3500   10.1310   12.2010 O.co2 171  ASP171     -0.2456
     59  N         -4.6700    7.6720   15.6250 N.am  172  ALA172     -0.1966
     60  CA        -4.5700    8.2360   16.9690 C.3   172  ALA172      0.1728
     61  C         -4.9630    9.7050   16.8950 C.2   172  ALA172      0.2616
     62  O         -5.0650   10.2750   15.8010 O.2   172  ALA172     -0.2715
     63  CB        -3.1460    8.0770   17.5100 C.3   172  ALA172      0.0334
     64  N         -5.1740   10.3440   18.0420 N.am  173  CYS173     -0.1954
     65  CA        -5.6150   11.7330   18.0430 C.3   173  CYS173      0.1843
     66  C         -5.2150   12.4300   19.3590 C.2   173  CYS173      0.2625
     67  O         -4.4540   11.8600   20.1500 O.2   173  CYS173     -0.2714
     68  CB        -7.1310   11.7680   17.7820 C.3   173  CYS173      0.0997
     69  SG        -7.7820   13.3480   17.1840 S.3   173  CYS173     -0.0797
     70  N         -5.6890   13.6580   19.5560 N.am  174  GLN174     -0.1977
     71  CA        -5.2700   14.4890   20.6830 C.3   174  GLN174      0.1601
     72  C         -5.5650   13.7820   21.9910 C.2   174  GLN174      0.2287
     73  O         -6.6890   13.3310   22.2150 O.2   174  GLN174     -0.2864
     74  CB        -6.0280   15.8260   20.6050 C.3   174  GLN174      0.0394
     75  CG        -5.4780   16.9190   21.5160 C.3   174  GLN174      0.0908
     76  CD        -6.1180   18.2820   21.2700 C.2   174  GLN174      0.2608
     77  OE1       -7.1670   18.3890   20.6270 O.2   174  GLN174     -0.2717
     78  NE2       -5.4860   19.3280   21.7860 N.am  174  GLN174     -0.0878
     79  N         -1.2430   11.0230   22.6260 N.3   177  SER177     -0.1217
     80  CA         0.2030   11.2600   22.5740 C.3   177  SER177      0.1889
     81  C          0.9220   10.6250   23.7320 C.2   177  SER177      0.2288
     82  O          0.4420   10.6300   24.8600 O.2   177  SER177     -0.2866
     83  CB         0.4940   12.7510   22.5820 C.3   177  SER177      0.2089
     84  OG         0.2090   13.2780   21.3060 O.3   177  SER177     -0.2183
     85  N          3.0260    7.3140   20.3280 N.3   191  VAL191     -0.1231
     86  CA         2.1750    8.2640   19.6180 C.3   191  VAL191      0.1692
     87  C          2.8480    9.6500   19.6480 C.2   191  VAL191      0.2593
     88  O          3.0250   10.2380   20.7340 O.2   191  VAL191     -0.2718
     89  CB         0.7490    8.3480   20.2370 C.3   191  VAL191      0.0266
     90  CG1       -0.1270    9.3570   19.4720 C.3   191  VAL191      0.0020
     91  CG2        0.0730    6.9590   20.3160 C.3   191  VAL191      0.0020
     92  N          3.2060   10.1770   18.4780 N.am  192  SER192     -0.1938
     93  CA         4.0220   11.3990   18.3970 C.3   192  SER192      0.2055
     94  C          3.2790   12.5830   17.7640 C.2   192  SER192      0.2643
     95  O          3.0220   13.5890   18.4340 O.2   192  SER192     -0.2714
     96  CB         5.3560   11.1160   17.6860 C.3   192  SER192      0.2130
     97  OG         6.1610   12.2880   17.6390 O.3   192  SER192     -0.2179
     98  N          2.9350   12.4890   16.4880 N.am  193  TRP193     -0.1959
     99  CA         2.2960   13.6360   15.8330 C.3   193  TRP193      0.1771
    100  C          1.4930   13.2410   14.6120 C.2   193  TRP193      0.2620
    101  O          1.5400   12.0920   14.1600 O.2   193  TRP193     -0.2715
    102  CB         3.3240   14.7380   15.4810 C.3   193  TRP193      0.0590
    103  CG         4.3480   14.3810   14.4190 C.ar  193  TRP193      0.0006
    104  CD1        5.5290   13.6990   14.5980 C.ar  193  TRP193      0.0946
    105  CD2        4.2910   14.7200   13.0240 C.ar  193  TRP193      0.0152
    106  NE1        6.2060   13.6020   13.4000 N.ar  193  TRP193     -0.2442
    107  CE2        5.4620   14.2100   12.4180 C.ar  193  TRP193      0.0810
    108  CE3        3.3610   15.4100   12.2270 C.ar  193  TRP193      0.0012
    109  CZ2        5.7310   14.3680   11.0440 C.ar  193  TRP193      0.0191
    110  CZ3        3.6280   15.5650   10.8660 C.ar  193  TRP193      0.0001
    111  CH2        4.7970   15.0410   10.2910 C.ar  193  TRP193      0.0015
    112  N          0.7360   14.2010   14.1000 N.am  194  GLY194     -0.1940
    113  CA        -0.0500   14.0010   12.8830 C.3   194  GLY194      0.2014
    114  C         -0.6160   15.3390   12.4550 C.2   194  GLY194      0.2639
    115  O         -0.4980   16.3370   13.1810 O.2   194  GLY194     -0.2714
    116  N         -1.2280   15.3650   11.2810 N.am  195  GLU195     -0.1963
    117  CA        -1.9220   16.5580   10.8040 C.3   195  GLU195      0.1733
    118  C         -3.4030   16.2970   10.9240 C.2   195  GLU195      0.2617
    119  O         -3.9830   15.5800   10.1070 O.2   195  GLU195     -0.2715
    120  CB        -1.5360   16.8930    9.3590 C.3   195  GLU195      0.0429
    121  CG        -0.1020   17.3440    9.1950 C.3   195  GLU195      0.1163
    122  CD         0.2150   17.7270    7.7650 C.2   195  GLU195      0.3649
    123  OE1       -0.1990   18.8250    7.3380 O.co2 195  GLU195     -0.2457
    124  OE2        0.8680   16.9340    7.0700 O.co2 195  GLU195     -0.2457
    125  N         -4.0160   16.8650   11.9590 N.am  196  GLY196     -0.1940
    126  CA        -5.3560   16.4760   12.3480 C.3   196  GLY196      0.2014
    127  C         -5.3490   15.0200   12.7770 C.2   196  GLY196      0.2639
    128  O         -4.3230   14.5180   13.2640 O.2   196  GLY196     -0.2714
    129  N         -6.4790   14.3490   12.5960 N.am  197  CYS197     -0.1967
    130  CA        -6.5950   12.9200   12.9230 C.3   197  CYS197      0.1712
    131  C         -7.4640   12.2140   11.9030 C.2   197  CYS197      0.2296
    132  O         -8.5640   12.6730   11.5880 O.2   197  CYS197     -0.2864
    133  CB        -7.2230   12.7110   14.3000 C.3   197  CYS197      0.0983
    134  SG        -6.5810   13.8020   15.5930 S.3   197  CYS197     -0.0798
    135  N         -3.1370   11.4320    5.4490 N.3   202  LYS202     -0.1231
    136  CA        -2.4730   12.0320    6.6120 C.3   202  LYS202      0.1678
    137  C         -2.4080   11.0280    7.7790 C.2   202  LYS202      0.2434
    138  O         -3.1430   11.1420    8.7460 O.2   202  LYS202     -0.2733
    139  CB        -3.1580   13.3560    7.0110 C.3   202  LYS202      0.0284
    140  CG        -2.9780   14.5090    5.9970 C.3   202  LYS202      0.0035
    141  CD        -3.8070   15.7260    6.3570 C.3   202  LYS202      0.0206
    142  CE        -3.3350   16.9550    5.5800 C.3   202  LYS202      0.1093
    143  NZ        -4.2380   18.1330    5.7740 N.3   202  LYS202     -0.1314
    144  N         -1.5140   10.0330    7.6890 N.am  203  PRO203     -0.2718
    145  CA        -1.4270    8.9880    8.7150 C.3   203  PRO203      0.1535
    146  C         -0.7700    9.4960    9.9980 C.2   203  PRO203      0.2599
    147  O         -0.3140   10.6340   10.0610 O.2   203  PRO203     -0.2715
    148  CB        -0.5350    7.9380    8.0560 C.3   203  PRO203      0.0310
    149  CG         0.3910    8.7520    7.2070 C.3   203  PRO203      0.0237
    150  CD        -0.4460    9.9090    6.6810 C.3   203  PRO203      0.0939
    151  N         -0.7550    8.6650   11.0260 N.am  204  GLY204     -0.1941
    152  CA        -0.0540    9.0350   12.2390 C.3   204  GLY204      0.2014
    153  C          1.4320    8.8010   12.1240 C.2   204  GLY204      0.2639
    154  O          1.8660    7.8320   11.5030 O.2   204  GLY204     -0.2714
    155  N          2.2010    9.6680   12.7780 N.am  205  PHE205     -0.1959
    156  CA         3.6430    9.5340   12.9200 C.3   205  PHE205      0.1771
    157  C          4.0000    9.1320   14.3460 C.2   205  PHE205      0.2619
    158  O          3.4120    9.6460   15.3140 O.2   205  PHE205     -0.2715
    159  CB         4.3440   10.8410   12.5260 C.3   205  PHE205      0.0574
    160  CG         4.1700   11.1910   11.0680 C.ar  205  PHE205     -0.0200
    161  CD1        3.0390   11.8680   10.6290 C.ar  205  PHE205     -0.0042
    162  CD2        5.1270   10.8240   10.1460 C.ar  205  PHE205     -0.0042
    163  CE1        2.8650   12.1830    9.2790 C.ar  205  PHE205     -0.0003
    164  CE2        4.9660   11.1420    8.7940 C.ar  205  PHE205     -0.0003
    165  CZ         3.8320   11.8100    8.3650 C.ar  205  PHE205     -0.0000
    166  N          4.9570    8.2150   14.4620 N.am  206  TYR206     -0.1974
    167  CA         5.2690    7.5600   15.7190 C.3   206  TYR206      0.1639
    168  C          6.7660    7.5200   15.9430 C.2   206  TYR206      0.2290
    169  O          7.5330    7.3130   15.0030 O.2   206  TYR206     -0.2864
    170  CB         4.6750    6.1330   15.7000 C.3   206  TYR206      0.0560
    171  CG         3.1610    6.1330   15.5920 C.ar  206  TYR206     -0.0198
    172  CD1        2.5210    6.1660   14.3520 C.ar  206  TYR206     -0.0009
    173  CD2        2.3630    6.1490   16.7410 C.ar  206  TYR206     -0.0009
    174  CE1        1.1420    6.1880   14.2640 C.ar  206  TYR206      0.0417
    175  CE2        0.9710    6.1670   16.6610 C.ar  206  TYR206      0.0417
    176  CZ         0.3690    6.1920   15.4200 C.ar  206  TYR206      0.1957
    177  OH        -1.0040    6.2100   15.3850 O.3   206  TYR206     -0.2866
@<TRIPOS>BOND
     1   135   136    1
     2   142   143    1
     3   142   141    1
     4   140   141    1
     5   140   139    1
     6    40    41    1
     7    43    42    2
     8   136   139    1
     9   136   137    1
    10   150   149    1
    11   150   144    1
    12   124   122   ar
    13    42    41    1
    14   149   148    1
    15    41    44    1
    16   123   122   ar
    17   144   137   am
    18   144   145    1
    19   122   121    1
    20   137   138    2
    21   148   145    1
    22   165   164   ar
    23   165   163   ar
    24    44    45    1
    25   145   146    1
    26    45    46   ar
    27    45    47   ar
    28   164   162   ar
    29    46    48   ar
    30    47    49   ar
    31    48    50   ar
    32    49    50   ar
    33   121   120    1
    34   163   161   ar
    35   120   117    1
    36   146   147    2
    37   146   151   am
    38   119   118    2
    39   162   160   ar
    40   111   110   ar
    41   111   109   ar
    42   161   160   ar
    43   117   118    1
    44   117   116    1
    45   110   108   ar
    46   118   125   am
    47   151   152    1
    48   109   107   ar
    49   160   159    1
    50   116   114   am
    51   154   153    2
    52   132   131    2
    53   131   130    1
    54   125   126    1
    55   153   152    1
    56   153   155   am
    57    58    56   ar
    58   108   105   ar
    59   126   127    1
    60   107   105   ar
    61   107   106   ar
    62   114   113    1
    63   114   115    2
    64   159   156    1
    65   129   127   am
    66   129   130    1
    67    56    55    1
    68    56    57   ar
    69   127   128    2
    70   155   156    1
    71    55    52    1
    72   113   112    1
    73   156   157    1
    74   130   133    1
    75   105   103   ar
    76    51    52    1
    77   106   104   ar
    78    52    53    1
    79   112   100   am
    80    14    13    2
    81   101   100    2
    82   174   172   ar
    83   174   176   ar
    84   133   134    1
    85   157   166   am
    86   157   158    2
    87   172   171   ar
    88   103   104   ar
    89   103   102    1
    90   166   167    1
    91    19    17   ar
    92   100    99    1
    93    13    12    1
    94   169   168    2
    95    53    59   am
    96    53    54    2
    97    15    12    1
    98    15    16    1
    99   177   176    1
   100   176   175   ar
   101   102    99    1
   102    17    16    1
   103    17    18   ar
   104   171   170    1
   105   171   173   ar
   106   134    69    1
   107    59    60    1
   108   170   167    1
   109   167   168    1
   110    62    61    2
   111    99    98    1
   112    20    21    1
   113    12    11    1
   114    24    21    1
   115    24    25    1
   116    98    94   am
   117    22    21    1
   118    22    23    2
   119   175   173   ar
   120    61    60    1
   121    61    64   am
   122    60    63    1
   123    25    26   ar
   124    25    27   ar
   125    69    68    1
   126    26    28   ar
   127    97    96    1
   128    27    29   ar
   129    96    93    1
   130    94    93    1
   131    94    95    2
   132    68    65    1
   133    64    65    1
   134    65    66    1
   135    28    30   ar
   136    93    92    1
   137    92    87   am
   138    29    30   ar
   139    39    37   am
   140    30    31    1
   141    66    70   am
   142    66    67    2
   143    35    34    2
   144    90    89    1
   145    37    38    2
   146    37    36    1
   147    70    71    1
   148    86    87    1
   149    86    89    1
   150    86    85    1
   151    87    88    2
   152    34    33    1
   153    36    33    1
   154    89    91    1
   155    74    71    1
   156    74    75    1
   157    77    76    2
   158    71    72    1
   159    33    32    1
   160    76    75    1
   161    76    78   am
   162     9     7   ar
   163     9    10   ar
   164    84    83    1
   165     7     6   ar
   166    10     8   ar
   167    72    73    2
   168     6     5    1
   169     6     8   ar
   170     5     2    1
   171    80    83    1
   172    80    79    1
   173    80    81    1
   174    81    82    2
   175     2     1    1
   176     2     3    1
   177     3     4    2
