@<TRIPOS>MOLECULE
tmp/3uwjB02.pdb
 187 187 0 0 0
SMALL
GASTEIGER

@<TRIPOS>ATOM
      1  N         22.4060   -6.7390   18.1530 N.3    43  HIS43      -0.1241
      2  CA        22.2300   -8.0940   17.6300 C.3    43  HIS43       0.1621
      3  C         21.4950   -8.1400   16.2810 C.2    43  HIS43       0.2264
      4  O         21.5230   -9.1600   15.6050 O.2    43  HIS43      -0.2867
      5  CB        21.5630   -9.0350   18.6580 C.3    43  HIS43       0.0745
      6  CG        20.0700   -8.9190   18.7000 C.ar   43  HIS43       0.0817
      7  ND1       19.4080   -8.1550   19.6370 N.ar   43  HIS43      -0.2268
      8  CD2       19.1100   -9.4700   17.9180 C.ar   43  HIS43       0.1154
      9  CE1       18.1060   -8.2250   19.4190 C.ar   43  HIS43       0.1986
     10  NE2       17.8990   -9.0070   18.3730 N.ar   43  HIS43      -0.2212
     11  N         25.7650  -10.8460   15.1960 N.3    47  TYR47      -0.1241
     12  CA        25.5360  -11.9670   16.0990 C.3    47  TYR47       0.1605
     13  C         26.2420  -13.1990   15.5570 C.2    47  TYR47       0.2264
     14  O         25.6480  -14.0330   14.8780 O.2    47  TYR47      -0.2867
     15  CB        24.0430  -12.2210   16.3430 C.3    47  TYR47       0.0534
     16  CG        23.8370  -13.1450   17.5110 C.ar   47  TYR47      -0.0201
     17  CD1       24.2140  -12.7610   18.7900 C.ar   47  TYR47      -0.0009
     18  CD2       23.3290  -14.4240   17.3310 C.ar   47  TYR47      -0.0009
     19  CE1       24.0720  -13.6200   19.8690 C.ar   47  TYR47       0.0417
     20  CE2       23.1780  -15.2830   18.4030 C.ar   47  TYR47       0.0417
     21  CZ        23.5490  -14.8720   19.6700 C.ar   47  TYR47       0.1957
     22  OH        23.4050  -15.7300   20.7360 O.3    47  TYR47      -0.2866
     23  N         25.0430  -16.9790   15.1100 N.3    50  TRP50      -0.1241
     24  CA        24.1320  -17.2990   14.0170 C.3    50  TRP50       0.1605
     25  C         24.6640  -16.8060   12.6770 C.2    50  TRP50       0.2264
     26  O         23.9010  -16.6620   11.7180 O.2    50  TRP50      -0.2867
     27  CB        22.7560  -16.6750   14.2730 C.3    50  TRP50       0.0550
     28  CG        22.0500  -17.2120   15.4820 C.ar   50  TRP50       0.0003
     29  CD1       22.4120  -18.2870   16.2330 C.ar   50  TRP50       0.0946
     30  CD2       20.8480  -16.6950   16.0730 C.ar   50  TRP50       0.0152
     31  NE1       21.5120  -18.4760   17.2580 N.ar   50  TRP50      -0.2442
     32  CE2       20.5430  -17.5100   17.1810 C.ar   50  TRP50       0.0810
     33  CE3       20.0040  -15.6190   15.7740 C.ar   50  TRP50       0.0012
     34  CZ2       19.4300  -17.2840   17.9920 C.ar   50  TRP50       0.0191
     35  CZ3       18.9000  -15.3940   16.5830 C.ar   50  TRP50       0.0001
     36  CH2       18.6230  -16.2220   17.6770 C.ar   50  TRP50       0.0015
     37  N         24.1120  -10.6100   25.7500 N.3    96  LEU96      -0.1245
     38  CA        23.6910   -9.4380   24.9700 C.3    96  LEU96       0.1561
     39  C         23.7690   -8.1380   25.7820 C.2    96  LEU96       0.2260
     40  O         23.0160   -7.1990   25.5340 O.2    96  LEU96      -0.2867
     41  CB        22.2740   -9.6010   24.3900 C.3    96  LEU96       0.0270
     42  CG        22.0080  -10.6820   23.3470 C.3    96  LEU96       0.0019
     43  CD1       20.6800  -10.4100   22.6350 C.3    96  LEU96       0.0001
     44  CD2       23.1430  -10.8050   22.3480 C.3    96  LEU96       0.0001
     45  N          5.2360  -17.4010   19.3490 N.3   146  GLU146     -0.1245
     46  CA         6.5930  -17.9260   19.4200 C.3   146  GLU146      0.1567
     47  C          6.8610  -18.8990   18.2810 C.2   146  GLU146      0.2260
     48  O          7.9100  -18.8460   17.6380 O.2   146  GLU146     -0.2867
     49  CB         6.8310  -18.6130   20.7640 C.3   146  GLU146      0.0388
     50  CG         8.1960  -19.2690   20.8750 C.3   146  GLU146      0.1160
     51  CD         8.4370  -19.8890   22.2370 C.2   146  GLU146      0.3649
     52  OE1        7.8810  -19.3900   23.2370 O.co2 146  GLU146     -0.2457
     53  OE2        9.1810  -20.8920   22.3020 O.co2 146  GLU146     -0.2457
     54  N          3.9720   -9.7180   24.7500 N.3   192  ASP192     -0.1225
     55  CA         5.4340   -9.7470   24.7410 C.3   192  ASP192      0.1805
     56  C          5.9150   -9.3340   23.3630 C.2   192  ASP192      0.2598
     57  O          5.1590   -9.3870   22.3860 O.2   192  ASP192     -0.2718
     58  CB         5.9260  -11.1710   25.0710 C.3   192  ASP192      0.1424
     59  CG         7.4130  -11.2420   25.4260 C.2   192  ASP192      0.3668
     60  OD1        8.0840  -10.2020   25.6210 O.co2 192  ASP192     -0.2456
     61  OD2        7.9280  -12.3770   25.5260 O.co2 192  ASP192     -0.2456
     62  N          7.1680   -8.9010   23.2850 N.am  193  ALA193     -0.1966
     63  CA         7.8370   -8.8050   22.0000 C.3   193  ALA193      0.1728
     64  C          8.2200  -10.2090   21.5440 C.2   193  ALA193      0.2616
     65  O          8.1370  -11.1670   22.3150 O.2   193  ALA193     -0.2715
     66  CB         9.0720   -7.9310   22.1150 C.3   193  ALA193      0.0334
     67  N          8.6350  -10.3430   20.2910 N.am  194  CYS194     -0.1954
     68  CA         9.0500  -11.6510   19.7940 C.3   194  CYS194      0.1843
     69  C         10.1060  -11.4950   18.7030 C.2   194  CYS194      0.2625
     70  O         10.5370  -10.3800   18.4030 O.2   194  CYS194     -0.2714
     71  CB         7.8200  -12.4230   19.2880 C.3   194  CYS194      0.0997
     72  SG         8.0440  -14.2250   19.1890 S.3   194  CYS194     -0.0797
     73  N         10.5350  -12.6160   18.1240 N.am  195  GLU195     -0.1977
     74  CA        11.3980  -12.6000   16.9520 C.3   195  GLU195      0.1602
     75  C         10.8700  -11.6100   15.9030 C.2   195  GLU195      0.2287
     76  O          9.6740  -11.5900   15.6100 O.2   195  GLU195     -0.2864
     77  CB        11.4470  -14.0200   16.3660 C.3   195  GLU195      0.0415
     78  CG        12.3700  -14.2130   15.1840 C.3   195  GLU195      0.1163
     79  CD        12.3160  -15.6360   14.6340 C.2   195  GLU195      0.3649
     80  OE1       11.2950  -16.3320   14.8470 O.co2 195  GLU195     -0.2457
     81  OE2       13.2950  -16.0630   13.9890 O.co2 195  GLU195     -0.2457
     82  N         12.9290   -7.3510   17.4910 N.3   198  SER198     -0.1217
     83  CA        14.3060   -6.9750   17.7970 C.3   198  SER198      0.1889
     84  C         14.6540   -5.5960   17.3250 C.2   198  SER198      0.2288
     85  O         14.4290   -5.2740   16.1680 O.2   198  SER198     -0.2866
     86  CB        15.2570   -7.9210   17.0520 C.3   198  SER198      0.2089
     87  OG        15.3290   -9.1940   17.6580 O.3   198  SER198     -0.2183
     88  N         14.0990   -3.4680   22.1710 N.3   218  VAL218     -0.1231
     89  CA        13.8150   -4.9080   22.2310 C.3   218  VAL218      0.1692
     90  C         15.1030   -5.6980   22.0170 C.2   218  VAL218      0.2593
     91  O         15.7480   -5.5740   20.9750 O.2   218  VAL218     -0.2718
     92  CB        12.7870   -5.3060   21.1560 C.3   218  VAL218      0.0266
     93  CG1       12.5300   -6.8170   21.1710 C.3   218  VAL218      0.0020
     94  CG2       11.4750   -4.5490   21.3750 C.3   218  VAL218      0.0020
     95  N         15.4800   -6.4900   23.0210 N.am  219  SER219     -0.1938
     96  CA        16.7840   -7.1590   23.0320 C.3   219  SER219      0.2055
     97  C         16.6770   -8.6810   22.9880 C.2   219  SER219      0.2643
     98  O         17.0980   -9.3020   22.0170 O.2   219  SER219     -0.2714
     99  CB        17.6060   -6.6920   24.2430 C.3   219  SER219      0.2130
    100  OG        18.9080   -7.2670   24.2160 O.3   219  SER219     -0.2179
    101  N         16.1100   -9.2870   24.0240 N.am  220  TRP220     -0.1959
    102  CA        16.0810  -10.7440   24.0950 C.3   220  TRP220      0.1771
    103  C         14.9740  -11.2760   24.9890 C.2   220  TRP220      0.2620
    104  O         14.3710  -10.5320   25.7760 O.2   220  TRP220     -0.2715
    105  CB        17.4550  -11.2990   24.5110 C.3   220  TRP220      0.0590
    106  CG        17.9020  -10.9660   25.9180 C.ar  220  TRP220      0.0006
    107  CD1       18.6060   -9.8710   26.3120 C.ar  220  TRP220      0.0946
    108  CD2       17.7030  -11.7560   27.0990 C.ar  220  TRP220      0.0152
    109  NE1       18.8530   -9.9180   27.6590 N.ar  220  TRP220     -0.2442
    110  CE2       18.3150  -11.0710   28.1660 C.ar  220  TRP220      0.0810
    111  CE3       17.0790  -12.9820   27.3500 C.ar  220  TRP220      0.0012
    112  CZ2       18.3220  -11.5730   29.4780 C.ar  220  TRP220      0.0191
    113  CZ3       17.0780  -13.4710   28.6430 C.ar  220  TRP220      0.0001
    114  CH2       17.6880  -12.7660   29.6890 C.ar  220  TRP220      0.0015
    115  N         14.6840  -12.5610   24.8280 N.am  221  GLY221     -0.1940
    116  CA        13.7080  -13.2280   25.6640 C.3   221  GLY221      0.2014
    117  C         13.7810  -14.7120   25.3810 C.2   221  GLY221      0.2639
    118  O         14.2220  -15.1240   24.3130 O.2   221  GLY221     -0.2714
    119  N         13.3390  -15.5110   26.3360 N.am  222  GLU222     -0.1963
    120  CA        13.3630  -16.9530   26.1680 C.3   222  GLU222      0.1733
    121  C         12.0040  -17.3930   25.6320 C.2   222  GLU222      0.2617
    122  O         11.0210  -17.4270   26.3670 O.2   222  GLU222     -0.2715
    123  CB        13.7060  -17.6090   27.4910 C.3   222  GLU222      0.0429
    124  CG        15.1460  -17.3200   27.8930 C.3   222  GLU222      0.1163
    125  CD        15.4960  -17.8340   29.2690 C.2   222  GLU222      0.3649
    126  OE1       15.2370  -17.1120   30.2470 O.co2 222  GLU222     -0.2457
    127  OE2       16.0330  -18.9590   29.3670 O.co2 222  GLU222     -0.2457
    128  N         11.9390  -17.6730   24.3310 N.am  223  GLY223     -0.1940
    129  CA        10.6580  -17.8420   23.6550 C.3   223  GLY223      0.2014
    130  C          9.9170  -16.5110   23.5530 C.2   223  GLY223      0.2639
    131  O         10.5450  -15.4530   23.5530 O.2   223  GLY223     -0.2714
    132  N          8.5900  -16.5600   23.4790 N.am  224  CYS224     -0.1967
    133  CA         7.7740  -15.3460   23.4680 C.3   224  CYS224      0.1712
    134  C          6.4760  -15.5640   24.2440 C.2   224  CYS224      0.2296
    135  O          5.7820  -16.5730   24.0390 O.2   224  CYS224     -0.2864
    136  CB         7.4560  -14.9060   22.0280 C.3   224  CYS224      0.0983
    137  SG         8.9100  -14.7530   20.9660 S.3   224  CYS224     -0.0798
    138  N          5.8600  -16.4920   27.2230 N.3   226  ARG226     -0.1245
    139  CA         5.7580  -17.6410   28.1130 C.3   226  ARG226      0.1563
    140  C          5.4190  -17.2000   29.5240 C.2   226  ARG226      0.2260
    141  O          5.9270  -16.1850   30.0150 O.2   226  ARG226     -0.2867
    142  CB         7.0520  -18.4630   28.1320 C.3   226  ARG226      0.0307
    143  CG         7.4230  -19.0940   26.8020 C.3   226  ARG226      0.0489
    144  CD         8.6320  -20.0060   26.9740 C.3   226  ARG226      0.2205
    145  NE         9.1740  -20.4540   25.6980 N.pl3 226  ARG226     -0.0865
    146  CZ        10.3710  -21.0130   25.5530 C.cat 226  ARG226      0.5346
    147  NH1       11.1530  -21.2050   26.6120 N.pl3 226  ARG226      0.1354
    148  NH2       10.7870  -21.3840   24.3500 N.pl3 226  ARG226      0.1354
    149  N          9.9510  -13.0660   30.9120 N.3   230  TYR230     -0.1227
    150  CA         9.7690  -11.6470   30.6610 C.3   230  TYR230      0.1736
    151  C         10.6200  -11.2290   29.4850 C.2   230  TYR230      0.2596
    152  O         11.6040  -11.8920   29.1450 O.2   230  TYR230     -0.2718
    153  CB        10.1270  -10.8210   31.9110 C.3   230  TYR230      0.0548
    154  CG         9.2570  -11.2200   33.0650 C.ar  230  TYR230     -0.0200
    155  CD1        9.6380  -12.2430   33.9130 C.ar  230  TYR230     -0.0009
    156  CD2        8.0020  -10.6400   33.2430 C.ar  230  TYR230     -0.0009
    157  CE1        8.8200  -12.6590   34.9460 C.ar  230  TYR230      0.0417
    158  CE2        7.1690  -11.0510   34.2850 C.ar  230  TYR230      0.0417
    159  CZ         7.5930  -12.0620   35.1260 C.ar  230  TYR230      0.1957
    160  OH         6.7860  -12.4910   36.1600 O.3   230  TYR230     -0.2866
    161  N         10.2230  -10.1410   28.8410 N.am  231  GLY231     -0.1942
    162  CA        11.0100   -9.6090   27.7560 C.3   231  GLY231      0.2014
    163  C         12.0910   -8.7270   28.3230 C.2   231  GLY231      0.2639
    164  O         11.8680   -7.9890   29.2910 O.2   231  GLY231     -0.2714
    165  N         13.2750   -8.8020   27.7240 N.am  232  PHE232     -0.1959
    166  CA        14.4020   -7.9860   28.1580 C.3   232  PHE232      0.1771
    167  C         14.7200   -6.8990   27.1490 C.2   232  PHE232      0.2619
    168  O         14.6400   -7.1070   25.9300 O.2   232  PHE232     -0.2715
    169  CB        15.6150   -8.8730   28.4520 C.3   232  PHE232      0.0574
    170  CG        15.5030   -9.5890   29.7620 C.ar  232  PHE232     -0.0200
    171  CD1       14.7280  -10.7280   29.8720 C.ar  232  PHE232     -0.0042
    172  CD2       16.1210   -9.0880   30.9030 C.ar  232  PHE232     -0.0042
    173  CE1       14.5860  -11.3680   31.0930 C.ar  232  PHE232     -0.0003
    174  CE2       15.9950   -9.7440   32.1280 C.ar  232  PHE232     -0.0003
    175  CZ        15.2270  -10.8800   32.2170 C.ar  232  PHE232     -0.0000
    176  N         15.0540   -5.7260   27.6810 N.am  233  TYR233     -0.1974
    177  CA        15.2190   -4.5210   26.8860 C.3   233  TYR233      0.1639
    178  C         16.5190   -3.8370   27.2510 C.2   233  TYR233      0.2290
    179  O         16.8860   -3.7500   28.4230 O.2   233  TYR233     -0.2864
    180  CB        14.0290   -3.5640   27.1340 C.3   233  TYR233      0.0560
    181  CG        12.6940   -4.1840   26.7640 C.ar  233  TYR233     -0.0198
    182  CD1       12.0250   -5.0330   27.6460 C.ar  233  TYR233     -0.0009
    183  CD2       12.1230   -3.9570   25.5140 C.ar  233  TYR233     -0.0009
    184  CE1       10.8250   -5.6330   27.2910 C.ar  233  TYR233      0.0417
    185  CE2       10.9300   -4.5530   25.1540 C.ar  233  TYR233      0.0417
    186  CZ        10.2820   -5.3920   26.0450 C.ar  233  TYR233      0.1957
    187  OH         9.0910   -5.9810   25.6660 O.3   233  TYR233     -0.2866
@<TRIPOS>BOND
     1    26    25    2
     2    25    24    1
     3    81    79   ar
     4    24    27    1
     5    24    23    1
     6    27    28    1
     7    79    80   ar
     8    79    78    1
     9    14    13    2
    10    78    77    1
    11    11    12    1
    12    28    30   ar
    13    28    29   ar
    14    13    12    1
    15     4     3    2
    16    76    75    2
    17    33    30   ar
    18    33    35   ar
    19    75    74    1
    20    30    32   ar
    21    12    15    1
    22    85    84    2
    23    29    31   ar
    24     3     2    1
    25    15    16    1
    26    77    74    1
    27    35    36   ar
    28    74    73    1
    29    86    87    1
    30    86    83    1
    31    32    31   ar
    32    32    34   ar
    33    84    83    1
    34    18    16   ar
    35    18    20   ar
    36    82    83    1
    37    16    17   ar
    38     2     1    1
    39     2     5    1
    40    48    47    2
    41    36    34   ar
    42     8    10   ar
    43     8     6   ar
    44    73    69   am
    45    47    46    1
    46    10     9   ar
    47    70    69    2
    48    20    21   ar
    49     5     6    1
    50     6     7   ar
    51    69    68    1
    52    17    19   ar
    53    72    71    1
    54    72   137    1
    55    71    68    1
    56    45    46    1
    57     9     7   ar
    58    46    49    1
    59    21    19   ar
    60    21    22    1
    61    68    67    1
    62    67    64   am
    63    49    50    1
    64    50    51    1
    65   137   136    1
    66    91    90    2
    67    92    93    1
    68    92    94    1
    69    92    89    1
    70    64    63    1
    71    64    65    2
    72    63    66    1
    73    63    62    1
    74    98    97    2
    75    90    89    1
    76    90    95   am
    77   136   133    1
    78    88    89    1
    79    51    53   ar
    80    51    52   ar
    81    44    42    1
    82    57    56    2
    83    43    42    1
    84    97    96    1
    85    97   101   am
    86    95    96    1
    87    96    99    1
    88    62    56   am
    89    42    41    1
    90    56    55    1
    91   133   132    1
    92   133   134    1
    93   132   130   am
    94   131   130    2
    95   130   129    1
    96   129   128    1
    97   101   102    1
    98   135   134    2
    99   102   105    1
   100   102   103    1
   101   100    99    1
   102   118   117    2
   103   128   121   am
   104   148   146    1
   105    41    38    1
   106   105   106    1
   107    55    54    1
   108    55    58    1
   109   115   103   am
   110   115   116    1
   111    38    37    1
   112    38    39    1
   113   103   104    2
   114    58    59    1
   115   185   183   ar
   116   185   186   ar
   117   117   116    1
   118   117   119   am
   119    59    61   ar
   120    59    60   ar
   121   183   181   ar
   122    40    39    2
   123   146   145    2
   124   146   147    1
   125   121   120    1
   126   121   122    2
   127   187   186    1
   128   145   144    1
   129   106   107   ar
   130   106   108   ar
   131   168   167    2
   132   186   184   ar
   133   120   119    1
   134   120   123    1
   135   107   109   ar
   136   181   180    1
   137   181   182   ar
   138   143   144    1
   139   143   142    1
   140   177   180    1
   141   177   178    1
   142   177   176    1
   143   108   111   ar
   144   108   110   ar
   145   167   176   am
   146   167   166    1
   147   138   139    1
   148   178   179    2
   149   184   182   ar
   150   111   113   ar
   151   123   124    1
   152   109   110   ar
   153   165   166    1
   154   165   163   am
   155   162   163    1
   156   162   161    1
   157   124   125    1
   158   139   142    1
   159   139   140    1
   160   166   169    1
   161   110   112   ar
   162   163   164    2
   163   169   170    1
   164   113   114   ar
   165   161   151   am
   166   152   151    2
   167   125   127   ar
   168   125   126   ar
   169   112   114   ar
   170   151   150    1
   171   140   141    2
   172   170   171   ar
   173   170   172   ar
   174   171   173   ar
   175   150   149    1
   176   150   153    1
   177   172   174   ar
   178   173   175   ar
   179   153   154    1
   180   174   175   ar
   181   154   156   ar
   182   154   155   ar
   183   156   158   ar
   184   155   157   ar
   185   158   159   ar
   186   157   159   ar
   187   159   160    1
