@<TRIPOS>MOLECULE
tmp/3uwkA00.pdb
 157 150 0 0 0
SMALL
GASTEIGER

@<TRIPOS>ATOM
      1  N         27.2620    1.7630   -0.4940 N.3    10  GLU10      -0.1245
      2  CA        28.6140    1.8050   -1.0760 C.3    10  GLU10       0.1567
      3  C         29.6890    1.4230   -0.0740 C.2    10  GLU10       0.2260
      4  O         30.6870    0.7910   -0.4370 O.2    10  GLU10      -0.2867
      5  CB        28.9340    3.1710   -1.6980 C.3    10  GLU10       0.0388
      6  CG        27.8800    3.6790   -2.6840 C.3    10  GLU10       0.1160
      7  CD        26.8010    4.5350   -2.0100 C.2    10  GLU10       0.3649
      8  OE1       26.4050    4.2480   -0.8530 O.co2  10  GLU10      -0.2457
      9  OE2       26.3490    5.5040   -2.6520 O.co2  10  GLU10      -0.2457
     10  N         23.9790    2.4260  -12.2930 N.3    37  GLU37      -0.1231
     11  CA        22.7320    3.2000  -12.4310 C.3    37  GLU37       0.1684
     12  C         22.4080    4.0460  -11.1810 C.2    37  GLU37       0.2434
     13  O         22.7030    3.6420  -10.0810 O.2    37  GLU37      -0.2733
     14  CB        21.5470    2.2640  -12.7240 C.3    37  GLU37       0.0402
     15  CG        21.6040    1.6230  -14.1070 C.3    37  GLU37       0.1161
     16  CD        20.2380    1.3200  -14.7220 C.2    37  GLU37       0.3649
     17  OE1       19.2120    1.4660  -14.0240 O.co2  37  GLU37      -0.2457
     18  OE2       20.1990    0.9150  -15.9210 O.co2  37  GLU37      -0.2457
     19  N         21.7860    5.2290  -11.3600 N.am   38  PRO38      -0.2729
     20  CA        21.4720    5.8330  -12.6630 C.3    38  PRO38       0.1401
     21  C         22.7970    6.2220  -13.2820 C.2    38  PRO38       0.2269
     22  O         23.6760    6.7050  -12.5790 O.2    38  PRO38      -0.2865
     23  CB        20.6460    7.1040  -12.3230 C.3    38  PRO38       0.0296
     24  CG        20.8190    7.3430  -10.8890 C.3    38  PRO38       0.0237
     25  CD        21.3880    6.0820  -10.2160 C.3    38  PRO38       0.0939
     26  N         21.4560   11.0890  -13.8140 N.3    48  ARG48      -0.1245
     27  CA        22.1510   10.9390  -12.5270 C.3    48  ARG48       0.1563
     28  C         22.3910   12.2300  -11.7950 C.2    48  ARG48       0.2260
     29  O         22.1660   12.3060  -10.6070 O.2    48  ARG48      -0.2867
     30  CB        23.4460   10.1540  -12.6780 C.3    48  ARG48       0.0307
     31  CG        24.2070    9.9010  -11.3480 C.3    48  ARG48       0.0489
     32  CD        25.5290    9.1800  -11.6210 C.3    48  ARG48       0.2205
     33  NE        26.1920    8.8850  -10.3480 N.pl3  48  ARG48      -0.0865
     34  CZ        25.9900    7.7670   -9.6810 C.cat  48  ARG48       0.5346
     35  NH1       25.1960    6.8310  -10.1990 N.pl3  48  ARG48       0.1354
     36  NH2       26.6110    7.5660   -8.5230 N.pl3  48  ARG48       0.1354
     37  N         20.9560   13.1510   -8.0390 N.3    52  LEU52      -0.1245
     38  CA        21.8190   13.1500   -6.8360 C.3    52  LEU52       0.1561
     39  C         22.0560   14.5420   -6.2960 C.2    52  LEU52       0.2260
     40  O         22.3350   14.6760   -5.1220 O.2    52  LEU52      -0.2867
     41  CB        23.1870   12.4680   -7.0620 C.3    52  LEU52       0.0270
     42  CG        23.2470   11.0120   -7.5500 C.3    52  LEU52       0.0019
     43  CD1       24.6200   10.3750   -7.2650 C.3    52  LEU52       0.0001
     44  CD2       22.0770   10.1220   -7.0510 C.3    52  LEU52       0.0001
     45  N         14.5850    7.8310  -12.6640 N.3    68  MET68      -0.1245
     46  CA        15.3470    6.5800  -12.5720 C.3    68  MET68       0.1570
     47  C         15.0630    5.6990  -13.7910 C.2    68  MET68       0.2261
     48  O         16.0080    5.0900  -14.3700 O.2    68  MET68      -0.2867
     49  CB        15.0200    5.8270  -11.2840 C.3    68  MET68       0.0387
     50  CG        15.6580    6.4820  -10.0380 C.3    68  MET68       0.0595
     51  SD        17.4680    6.2280   -9.9830 S.3    68  MET68      -0.1393
     52  CE        17.8010    7.1160   -8.4330 C.3    68  MET68       0.0692
     53  N         17.3010    4.4200  -17.0130 N.3    72  ARG72      -0.1245
     54  CA        17.3880    2.9530  -17.2460 C.3    72  ARG72       0.1563
     55  C         17.0900    2.6540  -18.7100 C.2    72  ARG72       0.2260
     56  O         17.7950    1.8510  -19.3540 O.2    72  ARG72      -0.2867
     57  CB        16.3800    2.1850  -16.3310 C.3    72  ARG72       0.0307
     58  CG        16.4180    0.6040  -16.4390 C.3    72  ARG72       0.0489
     59  CD        15.9230   -0.0650  -15.1190 C.3    72  ARG72       0.2205
     60  NE        16.7240    0.4660  -14.0160 N.pl3  72  ARG72      -0.0865
     61  CZ        16.2590    0.8670  -12.8360 C.cat  72  ARG72       0.5346
     62  NH1       14.9750    0.8110  -12.5240 N.pl3  72  ARG72       0.1354
     63  NH2       17.1040    1.4030  -11.9710 N.pl3  72  ARG72       0.1354
     64  N         23.7620   -1.2970   -9.1520 N.3    94  ARG94      -0.1231
     65  CA        22.3160   -0.9690   -8.9740 C.3    94  ARG94       0.1694
     66  C         21.4560   -1.0640  -10.2110 C.2    94  ARG94       0.2592
     67  O         21.8880   -0.7120  -11.3010 O.2    94  ARG94      -0.2718
     68  CB        22.0390    0.3490   -8.2220 C.3    94  ARG94       0.0321
     69  CG        22.7170    0.3570   -6.8100 C.3    94  ARG94       0.0489
     70  CD        22.3430    1.6390   -6.1270 C.3    94  ARG94       0.2205
     71  NE        22.8380    1.7340   -4.7540 N.pl3  94  ARG94      -0.0865
     72  CZ        23.8830    2.4720   -4.4060 C.cat  94  ARG94       0.5346
     73  NH1       24.5660    3.1150   -5.3280 N.pl3  94  ARG94       0.1354
     74  NH2       24.2530    2.5620   -3.1510 N.pl3  94  ARG94       0.1354
     75  N         20.2480   -1.5770  -10.0120 N.am   95  PHE95      -0.1976
     76  CA        19.2710   -1.6930  -11.1050 C.3    95  PHE95       0.1639
     77  C         17.8720   -1.6320  -10.4930 C.2    95  PHE95       0.2290
     78  O         17.6550   -0.9560   -9.4830 O.2    95  PHE95      -0.2864
     79  CB        19.5530   -2.9940  -11.9190 C.3    95  PHE95       0.0560
     80  CG        18.9750   -2.9840  -13.3150 C.ar   95  PHE95      -0.0200
     81  CD1       19.4560   -2.0990  -14.2790 C.ar   95  PHE95      -0.0042
     82  CD2       17.9870   -3.8840  -13.6720 C.ar   95  PHE95      -0.0042
     83  CE1       18.9350   -2.0990  -15.5620 C.ar   95  PHE95      -0.0003
     84  CE2       17.4510   -3.8760  -14.9580 C.ar   95  PHE95      -0.0003
     85  CZ        17.9170   -2.9910  -15.8840 C.ar   95  PHE95      -0.0000
     86  N         16.9990   -1.7150   -6.8010 N.3    98  ALA98      -0.1231
     87  CA        17.2580   -0.4530   -6.1040 C.3    98  ALA98       0.1694
     88  C         16.0350    0.4560   -6.1750 C.2    98  ALA98       0.2592
     89  O         15.7680    1.2040   -5.2460 O.2    98  ALA98      -0.2718
     90  CB        18.4500    0.2760   -6.7160 C.3    98  ALA98       0.0304
     91  N         15.3030    0.4090   -7.2860 N.am   99  THR99      -0.1953
     92  CA        14.0530    1.1910   -7.3700 C.3    99  THR99       0.1897
     93  C         13.0600    0.6690   -6.2860 C.2    99  THR99       0.2313
     94  O         12.4910    1.4230   -5.5180 O.2    99  THR99      -0.2863
     95  CB        13.4180    1.0450   -8.7600 C.3    99  THR99       0.1794
     96  OG1       14.4310    1.1450   -9.7820 O.3    99  THR99      -0.2208
     97  CG2       12.4060    2.1890   -8.9780 C.3    99  THR99       0.0378
     98  N         14.8170    1.7960   -2.8240 N.3   102  TYR102     -0.1227
     99  CA        14.8800    3.2290   -2.4800 C.3   102  TYR102      0.1736
    100  C         13.5640    3.9490   -2.7220 C.2   102  TYR102      0.2595
    101  O         13.0230    4.6380   -1.8430 O.2   102  TYR102     -0.2718
    102  CB        16.0340    3.9100   -3.2660 C.3   102  TYR102      0.0548
    103  CG        17.4200    3.5480   -2.7940 C.ar  102  TYR102     -0.0200
    104  CD1       18.0190    2.3420   -3.1290 C.ar  102  TYR102     -0.0009
    105  CD2       18.1570    4.4530   -2.0280 C.ar  102  TYR102     -0.0009
    106  CE1       19.3200    2.0330   -2.6690 C.ar  102  TYR102      0.0417
    107  CE2       19.4170    4.1620   -1.5800 C.ar  102  TYR102      0.0417
    108  CZ        20.0010    2.9770   -1.9050 C.ar  102  TYR102      0.1957
    109  OH        21.2630    2.7550   -1.4370 O.3   102  TYR102     -0.2866
    110  N         12.9790    3.7600   -3.9050 N.am  103  GLN103     -0.1979
    111  CA        11.7110    4.4500   -4.1690 C.3   103  GLN103      0.1601
    112  C         10.4670    3.7760   -3.5820 C.2   103  GLN103      0.2287
    113  O          9.5250    4.4540   -3.1990 O.2   103  GLN103     -0.2864
    114  CB        11.5460    4.7520   -5.6450 C.3   103  GLN103      0.0394
    115  CG        12.4620    5.8570   -6.1250 C.3   103  GLN103      0.0908
    116  CD        13.9180    5.4520   -6.2340 C.2   103  GLN103      0.2608
    117  OE1       14.2540    4.4660   -6.8870 O.2   103  GLN103     -0.2717
    118  NE2       14.8080    6.2530   -5.6360 N.am  103  GLN103     -0.0878
    119  N         25.2270   13.7570   -1.5780 N.3   148  ASP148     -0.1239
    120  CA        24.1130   13.6440   -2.5150 C.3   148  ASP148      0.1674
    121  C         22.7540   13.4340   -1.8270 C.2   148  ASP148      0.2266
    122  O         22.6850   13.2730   -0.6100 O.2   148  ASP148     -0.2867
    123  CB        24.3960   12.5900   -3.6070 C.3   148  ASP148      0.1410
    124  CG        24.6530   11.2000   -3.0470 C.2   148  ASP148      0.3668
    125  OD1       25.6530   10.5750   -3.4500 O.co2 148  ASP148     -0.2456
    126  OD2       23.8320   10.7120   -2.2510 O.co2 148  ASP148     -0.2456
    127  N         20.7790   11.0370   -1.6990 N.3   150  PHE150     -0.1227
    128  CA        20.5120    9.7750   -0.9990 C.3   150  PHE150      0.1736
    129  C         21.4100    9.5560    0.2300 C.2   150  PHE150      0.2595
    130  O         20.9460    9.1020    1.2590 O.2   150  PHE150     -0.2718
    131  CB        20.5960    8.6110   -1.9620 C.3   150  PHE150      0.0547
    132  CG        19.5630    8.6750   -3.0540 C.ar  150  PHE150     -0.0202
    133  CD1       18.2480    8.3670   -2.7800 C.ar  150  PHE150     -0.0042
    134  CD2       19.9180    9.0660   -4.3440 C.ar  150  PHE150     -0.0042
    135  CE1       17.2640    8.4300   -3.7700 C.ar  150  PHE150     -0.0003
    136  CE2       18.9590    9.1450   -5.3570 C.ar  150  PHE150     -0.0003
    137  CZ        17.6130    8.8210   -5.0670 C.ar  150  PHE150     -0.0000
    138  N         22.6960    9.8690    0.0930 N.am  151  GLU151     -0.1979
    139  CA        23.6210    9.8970    1.2210 C.3   151  GLU151      0.1602
    140  C         23.0480   10.6470    2.4020 C.2   151  GLU151      0.2287
    141  O         23.3060   10.2900    3.5450 O.2   151  GLU151     -0.2864
    142  CB        24.9580   10.5310    0.8020 C.3   151  GLU151      0.0415
    143  CG        26.1700    9.6480    1.1150 C.3   151  GLU151      0.1163
    144  CD        27.2840    9.7640    0.0800 C.2   151  GLU151      0.3649
    145  OE1       27.4630   10.8720   -0.4790 O.co2 151  GLU151     -0.2457
    146  OE2       27.9860    8.7480   -0.1630 O.co2 151  GLU151     -0.2457
    147  N         17.0320    4.2890    5.3460 N.3   158  PHE158     -0.1241
    148  CA        18.0070    3.2320    5.1310 C.3   158  PHE158      0.1605
    149  C         17.6200    1.8380    5.6860 C.2   158  PHE158      0.2264
    150  O         17.9430    0.7910    5.0740 O.2   158  PHE158     -0.2867
    151  CB        19.4160    3.7020    5.4950 C.3   158  PHE158      0.0534
    152  CG        19.9880    4.6300    4.4470 C.ar  158  PHE158     -0.0203
    153  CD1       20.1940    4.1600    3.1470 C.ar  158  PHE158     -0.0042
    154  CD2       20.1910    5.9660    4.7210 C.ar  158  PHE158     -0.0042
    155  CE1       20.6550    4.9980    2.1440 C.ar  158  PHE158     -0.0003
    156  CE2       20.6640    6.8140    3.7420 C.ar  158  PHE158     -0.0003
    157  CZ        20.8880    6.3310    2.4440 C.ar  158  PHE158     -0.0000
@<TRIPOS>BOND
     1    56    55    2
     2    55    54    1
     3    54    53    1
     4    54    57    1
     5    58    57    1
     6    58    59    1
     7    18    16   ar
     8    85    83   ar
     9    85    84   ar
    10    83    81   ar
    11    59    60    1
    12    84    82   ar
    13    16    15    1
    14    16    17   ar
    15    48    47    2
    16    81    80   ar
    17    15    14    1
    18    60    61    2
    19    26    27    1
    20    47    46    1
    21    82    80   ar
    22    80    79    1
    23    21    20    1
    24    21    22    2
    25    61    62    1
    26    61    63    1
    27    14    11    1
    28    30    27    1
    29    30    31    1
    30    45    46    1
    31    20    23    1
    32    20    19    1
    33    46    49    1
    34    27    28    1
    35    11    10    1
    36    11    12    1
    37    23    24    1
    38    79    76    1
    39    28    29    2
    40    32    31    1
    41    32    33    1
    42    19    12   am
    43    19    25    1
    44    67    66    2
    45    49    50    1
    46    12    13    2
    47    76    77    1
    48    76    75    1
    49    24    25    1
    50    77    78    2
    51    33    34    2
    52    66    75   am
    53    66    65    1
    54    35    34    1
    55    50    51    1
    56    51    52    1
    57    96    95    1
    58    34    36    1
    59    64    65    1
    60    97    95    1
    61    65    68    1
    62    95    92    1
    63    68    69    1
    64    37    38    1
    65    42    43    1
    66    42    41    1
    67    42    44    1
    68    92    91    1
    69    92    93    1
    70    91    88   am
    71    41    38    1
    72   117   116    2
    73    38    39    1
    74    69    70    1
    75    86    87    1
    76    90    87    1
    77    39    40    2
    78    93    94    2
    79   116   115    1
    80   116   118   am
    81    88    87    1
    82    88    89    2
    83    70    71    1
    84   115   114    1
    85   114   111    1
    86   136   137   ar
    87   136   134   ar
    88    73    72    1
    89   137   135   ar
    90    71    72    2
    91    72    74    1
    92   134   132   ar
    93   111   110    1
    94   111   112    1
    95   110   100   am
    96   135   133   ar
    97   123   124    1
    98   123   120    1
    99   112   113    2
   100   125   124   ar
   101   102   103    1
   102   102    99    1
   103   104   103   ar
   104   104   106   ar
   105   132   133   ar
   106   132   131    1
   107   124   126   ar
   108    98    99    1
   109   103   105   ar
   110   100    99    1
   111   100   101    2
   112     6     7    1
   113     6     5    1
   114   106   108   ar
   115     9     7   ar
   116   120   121    1
   117   120   119    1
   118   105   107   ar
   119     7     8   ar
   120   131   128    1
   121   108   107   ar
   122   108   109    1
   123   121   122    2
   124   127   128    1
   125     5     2    1
   126     2     1    1
   127     2     3    1
   128   128   129    1
   129   145   144   ar
   130     4     3    2
   131   146   144   ar
   132   144   143    1
   133   138   129   am
   134   138   139    1
   135   129   130    2
   136   142   143    1
   137   142   139    1
   138   139   140    1
   139   155   157   ar
   140   155   153   ar
   141   140   141    2
   142   157   156   ar
   143   153   152   ar
   144   156   154   ar
   145   152   154   ar
   146   152   151    1
   147   150   149    2
   148   148   147    1
   149   148   151    1
   150   148   149    1
