@<TRIPOS>MOLECULE
tmp/3uwoA00.pdb
 157 150 0 0 0
SMALL
GASTEIGER

@<TRIPOS>ATOM
      1  N         11.4420   -6.2120   42.5350 N.3    10  GLU10      -0.1245
      2  CA        10.9280   -7.5160   42.8310 C.3    10  GLU10       0.1567
      3  C         11.3430   -7.7390   44.3060 C.2    10  GLU10       0.2260
      4  O         12.2700   -7.0850   44.7930 O.2    10  GLU10      -0.2867
      5  CB        11.6490   -8.5190   41.9230 C.3    10  GLU10       0.0388
      6  CG        11.2990   -8.3310   40.4540 C.3    10  GLU10       0.1160
      7  CD         9.8150   -8.4400   40.2270 C.2    10  GLU10       0.3649
      8  OE1        9.2600   -9.4940   40.5800 O.co2  10  GLU10      -0.2457
      9  OE2        9.1760   -7.4290   39.8560 O.co2  10  GLU10      -0.2457
     10  N          3.3110   -4.1830   33.2560 N.3    37  GLU37      -0.1231
     11  CA         4.1260   -3.6180   32.1830 C.3    37  GLU37       0.1684
     12  C          5.6150   -3.9100   32.3870 C.2    37  GLU37       0.2434
     13  O          6.0980   -3.9800   33.5130 O.2    37  GLU37      -0.2733
     14  CB         3.9560   -2.1030   32.1000 C.3    37  GLU37       0.0402
     15  CG         2.5570   -1.7370   31.6100 C.3    37  GLU37       0.1161
     16  CD         2.5140   -0.5090   30.7360 C.2    37  GLU37       0.3649
     17  OE1        3.5530    0.1740   30.6240 O.co2  37  GLU37      -0.2457
     18  OE2        1.4200   -0.1920   30.1860 O.co2  37  GLU37      -0.2457
     19  N          6.3470   -4.1650   31.2870 N.am   38  PRO38      -0.2729
     20  CA         5.8250   -4.2330   29.9180 C.3    38  PRO38       0.1401
     21  C          5.0380   -5.5450   29.8100 C.2    38  PRO38       0.2269
     22  O          5.3750   -6.4970   30.4870 O.2    38  PRO38      -0.2865
     23  CB         7.0980   -4.3020   29.0610 C.3    38  PRO38       0.0296
     24  CG         8.1310   -5.0020   30.0080 C.3    38  PRO38       0.0237
     25  CD         7.7950   -4.4720   31.4040 C.3    38  PRO38       0.0939
     26  N          7.8210   -7.7430   26.0760 N.3    48  ARG48      -0.1245
     27  CA         8.3850   -7.9810   27.4060 C.3    48  ARG48       0.1563
     28  C          9.5030   -9.0320   27.2890 C.2    48  ARG48       0.2260
     29  O         10.5910   -8.8930   27.8830 O.2    48  ARG48      -0.2867
     30  CB         7.2930   -8.5550   28.3100 C.3    48  ARG48       0.0307
     31  CG         7.7940   -8.8400   29.7560 C.3    48  ARG48       0.0489
     32  CD         6.6740   -9.5160   30.5980 C.3    48  ARG48       0.2205
     33  NE         7.1760   -9.7790   31.9580 N.pl3  48  ARG48      -0.0865
     34  CZ         7.1710   -8.8960   32.9610 C.cat  48  ARG48       0.5346
     35  NH1        6.6670   -7.6900   32.8060 N.pl3  48  ARG48       0.1354
     36  NH2        7.6610   -9.2270   34.1500 N.pl3  48  ARG48       0.1354
     37  N         13.3860   -8.6290   28.5350 N.3    52  LEU52      -0.1245
     38  CA        13.9220   -9.3700   29.6770 C.3    52  LEU52       0.1561
     39  C         14.9840  -10.4030   29.3130 C.2    52  LEU52       0.2260
     40  O         15.8020  -10.7730   30.1670 O.2    52  LEU52      -0.2867
     41  CB        12.7990  -10.0860   30.4080 C.3    52  LEU52       0.0270
     42  CG        11.7590   -9.1570   31.0580 C.3    52  LEU52       0.0019
     43  CD1       10.8580   -9.9520   32.0110 C.3    52  LEU52       0.0001
     44  CD2       12.5000   -8.0440   31.7620 C.3    52  LEU52       0.0001
     45  N          9.9190   -0.1520   25.8000 N.3    68  MET68      -0.1245
     46  CA         9.0270    0.0320   26.9700 C.3    68  MET68       0.1570
     47  C          7.8120    0.8450   26.5710 C.2    68  MET68       0.2261
     48  O          6.6830    0.4580   26.8350 O.2    68  MET68      -0.2867
     49  CB         9.7670    0.7480   28.1280 C.3    68  MET68       0.0387
     50  CG        10.7170   -0.2310   28.7950 C.3    68  MET68       0.0595
     51  SD         9.8630   -1.5480   29.7840 S.3    68  MET68      -0.1393
     52  CE        11.3170   -2.4890   30.3730 C.3    68  MET68       0.0692
     53  N          3.8430   -0.0560   26.0880 N.3    72  ARG72      -0.1245
     54  CA         2.8400    0.8280   26.7750 C.3    72  ARG72       0.1563
     55  C          1.7210    1.2480   25.8120 C.2    72  ARG72       0.2260
     56  O          0.5150    1.2130   26.1670 O.2    72  ARG72      -0.2867
     57  CB         3.5190    2.0740   27.3530 C.3    72  ARG72       0.0307
     58  CG         2.5530    2.9520   28.2200 C.3    72  ARG72       0.0489
     59  CD         3.3440    3.7160   29.2920 C.3    72  ARG72       0.2205
     60  NE         4.0180    2.7360   30.1370 N.pl3  72  ARG72      -0.0865
     61  CZ         5.2950    2.8160   30.4630 C.cat  72  ARG72       0.5346
     62  NH1        6.0120    3.8820   30.1140 N.pl3  72  ARG72       0.1354
     63  NH2        5.8620    1.8240   31.0760 N.pl3  72  ARG72       0.1354
     64  N          3.7190   -1.8040   37.5420 N.3    94  ARG94      -0.1231
     65  CA         4.6940   -0.9320   36.8330 C.3    94  ARG94       0.1694
     66  C          4.1090   -0.1580   35.6820 C.2    94  ARG94       0.2592
     67  O          3.2480   -0.6660   34.9570 O.2    94  ARG94      -0.2718
     68  CB         5.9680   -1.6740   36.3950 C.3    94  ARG94       0.0321
     69  CG         6.7610   -2.2580   37.6010 C.3    94  ARG94       0.0489
     70  CD         8.1870   -2.6690   37.1680 C.3    94  ARG94       0.2205
     71  NE         8.9180   -3.1930   38.3100 N.pl3  94  ARG94      -0.0865
     72  CZ         9.0500   -4.4850   38.5750 C.cat  94  ARG94       0.5346
     73  NH1        8.5400   -5.4070   37.7510 N.pl3  94  ARG94       0.1354
     74  NH2        9.7290   -4.8530   39.6480 N.pl3  94  ARG94       0.1354
     75  N          4.5580    1.0900   35.5270 N.am   95  PHE95      -0.1976
     76  CA         4.0270    1.9240   34.4580 C.3    95  PHE95       0.1639
     77  C          5.0610    3.0370   34.3210 C.2    95  PHE95       0.2290
     78  O          6.2160    2.8250   34.6400 O.2    95  PHE95      -0.2864
     79  CB         2.6250    2.4770   34.8380 C.3    95  PHE95       0.0560
     80  CG         1.8910    3.1110   33.6890 C.ar   95  PHE95      -0.0200
     81  CD1        1.4130    2.3400   32.6300 C.ar   95  PHE95      -0.0042
     82  CD2        1.5240    4.4670   33.7630 C.ar   95  PHE95      -0.0042
     83  CE1        0.7240    2.9300   31.5580 C.ar   95  PHE95      -0.0003
     84  CE2        0.7990    5.0520   32.7310 C.ar   95  PHE95      -0.0003
     85  CZ         0.4580    4.3150   31.6090 C.ar   95  PHE95      -0.0000
     86  N          8.1400    3.6820   36.3760 N.3    98  ALA98      -0.1231
     87  CA         9.2540    2.7100   36.1950 C.3    98  ALA98       0.1694
     88  C         10.1410    3.2200   35.0370 C.2    98  ALA98       0.2592
     89  O         11.3350    2.9740   35.0310 O.2    98  ALA98      -0.2718
     90  CB         8.6740    1.2840   35.8450 C.3    98  ALA98       0.0304
     91  N          9.5720    3.8710   34.0320 N.am   99  THR99      -0.1953
     92  CA        10.4000    4.3740   32.9120 C.3    99  THR99       0.1897
     93  C         11.3510    5.4570   33.4400 C.2    99  THR99       0.2313
     94  O         12.5690    5.4050   33.2500 O.2    99  THR99      -0.2863
     95  CB         9.5650    4.9150   31.7410 C.3    99  THR99       0.1794
     96  OG1        8.4820    3.9930   31.4590 O.3    99  THR99      -0.2208
     97  CG2       10.5010    5.0570   30.4860 C.3    99  THR99       0.0378
     98  N         13.9140    3.3250   35.9550 N.3   102  TYR102     -0.1227
     99  CA        14.8230    2.3700   35.3300 C.3   102  TYR102      0.1736
    100  C         15.5690    2.9790   34.1620 C.2   102  TYR102      0.2595
    101  O         16.7960    2.8650   34.0910 O.2   102  TYR102     -0.2718
    102  CB        14.0990    1.0890   34.8860 C.3   102  TYR102      0.0548
    103  CG        13.7190    0.1430   36.0090 C.ar  102  TYR102     -0.0200
    104  CD1       12.5660    0.3450   36.7750 C.ar  102  TYR102     -0.0009
    105  CD2       14.4540   -1.0040   36.2410 C.ar  102  TYR102     -0.0009
    106  CE1       12.2020   -0.5670   37.7850 C.ar  102  TYR102      0.0417
    107  CE2       14.0990   -1.9040   37.2060 C.ar  102  TYR102      0.0417
    108  CZ        12.9720   -1.6980   37.9730 C.ar  102  TYR102      0.1957
    109  OH        12.6050   -2.6590   38.8820 O.3   102  TYR102     -0.2866
    110  N         14.8370    3.5570   33.2100 N.am  103  GLN103     -0.1979
    111  CA        15.5100    4.1560   32.0660 C.3   103  GLN103      0.1601
    112  C         16.1270    5.5190   32.3310 C.2   103  GLN103      0.2287
    113  O         17.1670    5.8270   31.7780 O.2   103  GLN103     -0.2864
    114  CB        14.6370    4.1470   30.8030 C.3   103  GLN103      0.0394
    115  CG        14.4070    2.6990   30.2130 C.3   103  GLN103      0.0908
    116  CD        13.5930    1.7930   31.1290 C.2   103  GLN103      0.2608
    117  OE1       12.4570    2.1160   31.4490 O.2   103  GLN103     -0.2717
    118  NE2       14.0760    0.5910   31.3740 N.am  103  GLN103     -0.0878
    119  N         17.1680  -12.5060   34.4310 N.3   140  ASP140     -0.1239
    120  CA        16.7410  -11.6620   33.3080 C.3   140  ASP140      0.1674
    121  C         17.5510  -10.3390   33.3040 C.2   140  ASP140      0.2266
    122  O         18.3910  -10.0840   34.1940 O.2   140  ASP140     -0.2867
    123  CB        15.2160  -11.4820   33.2770 C.3   140  ASP140      0.1410
    124  CG        14.6930  -10.5900   34.4050 C.2   140  ASP140      0.3668
    125  OD1       15.2820   -9.5560   34.6800 O.co2 140  ASP140     -0.2456
    126  OD2       13.5980  -10.8560   34.9160 O.co2 140  ASP140     -0.2456
    127  N         17.1620   -7.1760   33.8610 N.3   142  PHE142     -0.1227
    128  CA        17.1000   -6.2310   34.9730 C.3   142  PHE142      0.1736
    129  C         17.6750   -6.8750   36.2320 C.2   142  PHE142      0.2595
    130  O         18.4490   -6.2380   36.9190 O.2   142  PHE142     -0.2718
    131  CB        15.6860   -5.6780   35.1690 C.3   142  PHE142      0.0547
    132  CG        15.2510   -4.8380   33.9960 C.ar  142  PHE142     -0.0202
    133  CD1       15.9210   -3.6560   33.7230 C.ar  142  PHE142     -0.0042
    134  CD2       14.3340   -5.3310   33.0680 C.ar  142  PHE142     -0.0042
    135  CE1       15.6210   -2.9000   32.6050 C.ar  142  PHE142     -0.0003
    136  CE2       14.0540   -4.5900   31.9070 C.ar  142  PHE142     -0.0003
    137  CZ        14.6800   -3.3980   31.6880 C.ar  142  PHE142     -0.0000
    138  N         17.3830   -8.1540   36.4330 N.am  143  GLU143     -0.1979
    139  CA        17.9070   -8.9180   37.5850 C.3   143  GLU143      0.1602
    140  C         19.4280   -8.9590   37.6070 C.2   143  GLU143      0.2287
    141  O         20.0330   -9.2150   38.6520 O.2   143  GLU143     -0.2864
    142  CB        17.3510  -10.3610   37.6040 C.3   143  GLU143      0.0415
    143  CG        15.8490  -10.4560   37.9150 C.3   143  GLU143      0.1163
    144  CD        15.2190  -11.8190   37.6780 C.2   143  GLU143      0.3649
    145  OE1       14.1150  -12.0580   38.2320 O.co2 143  GLU143     -0.2457
    146  OE2       15.7680  -12.6460   36.9050 O.co2 143  GLU143     -0.2457
    147  N         20.1640   -0.2310   40.9500 N.3   150  PHE150     -0.1241
    148  CA        18.9810   -0.3070   41.7870 C.3   150  PHE150      0.1605
    149  C         18.8120    0.8160   42.8220 C.2   150  PHE150      0.2264
    150  O         17.6840    1.1570   43.1730 O.2   150  PHE150     -0.2867
    151  CB        18.7510   -1.6940   42.3740 C.3   150  PHE150      0.0534
    152  CG        18.2010   -2.6750   41.3760 C.ar  150  PHE150     -0.0203
    153  CD1       16.8680   -2.6210   40.9910 C.ar  150  PHE150     -0.0042
    154  CD2       19.0380   -3.6000   40.7740 C.ar  150  PHE150     -0.0042
    155  CE1       16.3650   -3.5060   40.0380 C.ar  150  PHE150     -0.0003
    156  CE2       18.5340   -4.5000   39.8290 C.ar  150  PHE150     -0.0003
    157  CZ        17.2150   -4.4220   39.4370 C.ar  150  PHE150     -0.0000
@<TRIPOS>BOND
     1    45    46    1
     2    55    56    2
     3    55    54    1
     4    26    27    1
     5    53    54    1
     6    47    48    2
     7    47    46    1
     8    54    57    1
     9    46    49    1
    10    28    27    1
    11    28    29    2
    12    57    58    1
    13    27    30    1
    14    49    50    1
    15    58    59    1
    16    30    31    1
    17    37    38    1
    18    50    51    1
    19    23    20    1
    20    23    24    1
    21    59    60    1
    22    39    38    1
    23    39    40    2
    24    38    41    1
    25    31    32    1
    26    51    52    1
    27    21    20    1
    28    21    22    2
    29    20    19    1
    30    24    25    1
    31    62    61    1
    32    60    61    2
    33    18    16   ar
    34   115   114    1
    35   115   116    1
    36    41    42    1
    37    61    63    1
    38    97    95    1
    39    32    33    1
    40    17    16   ar
    41    16    15    1
    42   114   111    1
    43    42    44    1
    44    42    43    1
    45   116   118   am
    46   116   117    2
    47    19    25    1
    48    19    12   am
    49    96    95    1
    50    83    85   ar
    51    83    81   ar
    52    85    84   ar
    53    15    14    1
    54   137   136   ar
    55   137   135   ar
    56    95    92    1
    57   113   112    2
    58   136   134   ar
    59    33    34    2
    60   111   112    1
    61   111   110    1
    62    14    11    1
    63    11    12    1
    64    11    10    1
    65    12    13    2
    66   135   133   ar
    67    81    80   ar
    68    84    82   ar
    69    35    34    1
    70    92    93    1
    71    92    91    1
    72    34    36    1
    73   134   132   ar
    74   110   100   am
    75    94    93    2
    76   123   120    1
    77   123   124    1
    78   121   120    1
    79   121   122    2
    80   120   119    1
    81    80    82   ar
    82    80    79    1
    83   133   132   ar
    84   127   128    1
    85   132   131    1
    86    91    88   am
    87   101   100    2
    88   100    99    1
    89    77    76    1
    90    77    78    2
    91   124   125   ar
    92   124   126   ar
    93    76    79    1
    94    76    75    1
    95   102    99    1
    96   102   103    1
    97    67    66    2
    98   128   131    1
    99   128   129    1
   100    89    88    2
   101    88    87    1
   102    99    98    1
   103    75    66   am
   104    66    65    1
   105    90    87    1
   106   103   105   ar
   107   103   104   ar
   108    87    86    1
   109   129   138   am
   110   129   130    2
   111   105   107   ar
   112    68    65    1
   113    68    69    1
   114   138   139    1
   115   104   106   ar
   116    65    64    1
   117   146   144   ar
   118    70    69    1
   119    70    71    1
   120   107   108   ar
   121   139   142    1
   122   139   140    1
   123   142   143    1
   124   140   141    2
   125   144   143    1
   126   144   145   ar
   127    73    72    1
   128   106   108   ar
   129   108   109    1
   130    71    72    2
   131    72    74    1
   132   157   156   ar
   133   157   155   ar
   134   156   154   ar
   135     9     7   ar
   136   155   153   ar
   137     7     6    1
   138     7     8   ar
   139     6     5    1
   140   154   152   ar
   141   147   148    1
   142   153   152   ar
   143   152   151    1
   144   148   151    1
   145   148   149    1
   146     5     2    1
   147     1     2    1
   148   149   150    2
   149     2     3    1
   150     3     4    2
