@<TRIPOS>MOLECULE
tmp/3uwpA00.pdb
 127 120 0 0 0
SMALL
GASTEIGER

@<TRIPOS>ATOM
      1  N         27.5520   66.2230  -12.2310 N.3   123  ASN123     -0.1240
      2  CA        26.7180   67.4150  -12.1270 C.3   123  ASN123      0.1653
      3  C         26.7350   67.9880  -10.7090 C.2   123  ASN123      0.2266
      4  O         25.8170   67.7300   -9.8740 O.2   123  ASN123     -0.2867
      5  CB        25.2900   67.0690  -12.5540 C.3   123  ASN123      0.1155
      6  CG        25.1120   67.0860  -14.0610 C.2   123  ASN123      0.2627
      7  OD1       25.9180   67.6720  -14.8000 O.2   123  ASN123     -0.2716
      8  ND2       24.0320   66.4710  -14.5260 N.am  123  ASN123     -0.0877
      9  N         24.7220   70.1710   -6.1200 N.3   126  GLU126     -0.1245
     10  CA        24.4220   70.0690   -4.6740 C.3   126  GLU126      0.1567
     11  C         25.3930   71.0130   -3.9070 C.2   126  GLU126      0.2260
     12  O         26.3120   71.5680   -4.5090 O.2   126  GLU126     -0.2867
     13  CB        24.5670   68.6100   -4.1960 C.3   126  GLU126      0.0388
     14  CG        23.4900   67.6720   -4.7380 C.3   126  GLU126      0.1160
     15  CD        23.4650   67.6580   -6.2550 C.2   126  GLU126      0.3649
     16  OE1       24.4340   67.0960   -6.8490 O.co2 126  GLU126     -0.2457
     17  OE2       22.5070   68.2510   -6.8480 O.co2 126  GLU126     -0.2457
     18  N         17.2310   58.9990   -2.3510 N.3   159  LEU159     -0.1231
     19  CA        16.6410   59.3900   -3.6260 C.3   159  LEU159      0.1693
     20  C         17.5720   60.3110   -4.4090 C.2   159  LEU159      0.2592
     21  O         17.7350   61.4740   -4.0630 O.2   159  LEU159     -0.2718
     22  CB        15.2850   60.1040   -3.3930 C.3   159  LEU159      0.0284
     23  CG        14.1420   59.2860   -2.7390 C.3   159  LEU159      0.0019
     24  CD1       12.9040   60.1670   -2.5430 C.3   159  LEU159      0.0001
     25  CD2       13.7850   58.0120   -3.4970 C.3   159  LEU159      0.0001
     26  N         18.1460   59.7950   -5.4930 N.am  160  GLY160     -0.1957
     27  CA        19.0980   60.5250   -6.3070 C.3   160  GLY160      0.1869
     28  C         20.4700   60.2830   -5.7180 C.2   160  GLY160      0.2309
     29  O         21.1240   61.1950   -5.2240 O.2   160  GLY160     -0.2863
     30  N         23.4200   59.3660   -6.7820 N.3   162  GLY162     -0.1225
     31  CA        24.6670   59.8220   -7.3920 C.3   162  GLY162      0.1811
     32  C         25.5700   58.6120   -7.5810 C.2   162  GLY162      0.2280
     33  O         25.0990   57.5730   -8.0400 O.2   162  GLY162     -0.2866
     34  N         18.7880   55.0900   -5.3810 N.3   182  VAL182     -0.1231
     35  CA        18.3190   55.0740   -6.7440 C.3   182  VAL182      0.1692
     36  C         18.7920   56.3210   -7.4610 C.2   182  VAL182      0.2592
     37  O         18.7260   57.4270   -6.9150 O.2   182  VAL182     -0.2718
     38  CB        16.7810   54.9530   -6.8430 C.3   182  VAL182      0.0266
     39  CG1       16.0840   56.1160   -6.1440 C.3   182  VAL182      0.0020
     40  CG2       16.3660   54.8800   -8.3130 C.3   182  VAL182      0.0020
     41  N         19.2460   56.1480   -8.6980 N.am  183  GLU183     -0.1966
     42  CA        19.8550   57.2300   -9.4630 C.3   183  GLU183      0.1733
     43  C         19.4620   57.0900  -10.9020 C.2   183  GLU183      0.2616
     44  O         19.4810   55.9740  -11.4590 O.2   183  GLU183     -0.2715
     45  CB        21.4100   57.2110   -9.3080 C.3   183  GLU183      0.0429
     46  CG        22.1490   58.1530  -10.2440 C.3   183  GLU183      0.1163
     47  CD        21.7420   59.6100  -10.0380 C.2   183  GLU183      0.3649
     48  OE1       21.8040   60.0980   -8.8770 O.co2 183  GLU183     -0.2457
     49  OE2       21.3640   60.2640  -11.0400 O.co2 183  GLU183     -0.2457
     50  N         19.0830   58.2300  -11.4880 N.am  184  LYS184     -0.1963
     51  CA        18.5210   58.3220  -12.8320 C.3   184  LYS184      0.1728
     52  C         19.6280   58.4370  -13.8730 C.2   184  LYS184      0.2616
     53  O         19.5390   57.8410  -14.9320 O.2   184  LYS184     -0.2715
     54  CB        17.5830   59.5710  -12.8970 C.3   184  LYS184      0.0311
     55  CG        16.7730   59.6800  -14.1870 C.3   184  LYS184      0.0038
     56  CD        15.9410   60.9580  -14.1860 C.3   184  LYS184      0.0206
     57  CE        14.9440   61.0540  -13.0470 C.3   184  LYS184      0.1093
     58  NZ        14.2480   62.3940  -13.0520 N.3   184  LYS184     -0.1314
     59  N         20.6790   59.1980  -13.5780 N.am  185  ALA185     -0.1977
     60  CA        21.6350   59.5640  -14.6380 C.3   185  ALA185      0.1597
     61  C         22.6040   58.4090  -14.9260 C.2   185  ALA185      0.2287
     62  O         23.0740   57.7400  -14.0020 O.2   185  ALA185     -0.2864
     63  CB        22.3930   60.8430  -14.2530 C.3   185  ALA185      0.0319
     64  N         26.6490   58.7300  -13.3860 N.3   188  PRO188     -0.2116
     65  CA        26.8380   58.3880  -11.9670 C.3   188  PRO188      0.1372
     66  C         26.3820   56.9650  -11.5850 C.2   188  PRO188      0.2244
     67  O         27.0650   56.3240  -10.7850 O.2   188  PRO188     -0.2868
     68  CB        26.0480   59.4650  -11.2260 C.3   188  PRO188      0.0268
     69  CG        25.1410   60.0650  -12.2460 C.3   188  PRO188      0.0207
     70  CD        25.8350   59.9460  -13.5600 C.3   188  PRO188      0.0892
     71  N         17.3370   54.0610  -11.8000 N.3   218  GLY218     -0.1210
     72  CA        15.8960   54.2710  -11.8700 C.3   218  GLY218      0.1956
     73  C         15.4970   55.7150  -11.6930 C.2   218  GLY218      0.2612
     74  O         16.3310   56.5950  -11.4270 O.2   218  GLY218     -0.2717
     75  N         14.1980   55.9320  -11.8150 N.am  219  ASP219     -0.1959
     76  CA        13.5690   57.2390  -11.7050 C.3   219  ASP219      0.1840
     77  C         12.7290   57.2080  -10.4510 C.2   219  ASP219      0.2622
     78  O         11.7870   56.4200  -10.3670 O.2   219  ASP219     -0.2715
     79  CB        12.6870   57.4560  -12.9390 C.3   219  ASP219      0.1450
     80  CG        12.0120   58.8180  -12.9700 C.2   219  ASP219      0.3671
     81  OD1       11.8890   59.4800  -11.9280 O.co2 219  ASP219     -0.2456
     82  OD2       11.5960   59.2140  -14.0740 O.co2 219  ASP219     -0.2456
     83  N         13.0420   58.0570   -9.4710 N.am  220  PHE220     -0.1960
     84  CA        12.3170   57.9740   -8.2050 C.3   220  PHE220      0.1771
     85  C         10.8990   58.5320   -8.2880 C.2   220  PHE220      0.2619
     86  O         10.1560   58.4520   -7.3270 O.2   220  PHE220     -0.2715
     87  CB        13.1060   58.5540   -7.0150 C.3   220  PHE220      0.0574
     88  CG        13.5210   60.0060   -7.1530 C.ar  220  PHE220     -0.0200
     89  CD1       12.5830   61.0210   -7.2430 C.ar  220  PHE220     -0.0042
     90  CD2       14.8640   60.3490   -7.1220 C.ar  220  PHE220     -0.0042
     91  CE1       12.9670   62.3460   -7.3620 C.ar  220  PHE220     -0.0003
     92  CE2       15.2670   61.6730   -7.2150 C.ar  220  PHE220     -0.0003
     93  CZ        14.3200   62.6790   -7.3420 C.ar  220  PHE220     -0.0000
     94  N         10.5270   59.0860   -9.4360 N.am  221  LEU221     -0.1977
     95  CA         9.1660   59.5430   -9.6620 C.3   221  LEU221      0.1596
     96  C          8.2810   58.4900  -10.3460 C.2   221  LEU221      0.2287
     97  O          7.0960   58.7210  -10.5170 O.2   221  LEU221     -0.2864
     98  CB         9.1720   60.8440  -10.4710 C.3   221  LEU221      0.0297
     99  CG         9.7940   62.0390   -9.7510 C.3   221  LEU221      0.0022
    100  CD1        9.7410   63.3050  -10.6110 C.3   221  LEU221      0.0001
    101  CD2        9.1370   62.2670   -8.3930 C.3   221  LEU221      0.0001
    102  N         18.8890   64.8570   -1.6600 N.3   238  ASN238     -0.1240
    103  CA        19.6980   66.0550   -1.8110 C.3   238  ASN238      0.1653
    104  C         19.0380   66.9070   -2.8870 C.2   238  ASN238      0.2266
    105  O         19.4250   66.8770   -4.0810 O.2   238  ASN238     -0.2867
    106  CB        21.1460   65.6580   -2.1420 C.3   238  ASN238      0.1155
    107  CG        22.1180   66.7510   -1.8410 C.2   238  ASN238      0.2627
    108  OD1       21.7480   67.9430   -1.8070 O.2   238  ASN238     -0.2716
    109  ND2       23.4060   66.3760   -1.6930 N.am  238  ASN238     -0.0877
    110  N         16.7880   71.0450   -7.0000 N.3   242  PHE242     -0.1241
    111  CA        15.5610   70.5970   -7.6960 C.3   242  PHE242      0.1605
    112  C         14.5820   71.7440   -7.9750 C.2   242  PHE242      0.2264
    113  O         14.4320   72.6430   -7.1740 O.2   242  PHE242     -0.2867
    114  CB        14.8270   69.5180   -6.8710 C.3   242  PHE242      0.0534
    115  CG        15.5560   68.1760   -6.7680 C.ar  242  PHE242     -0.0203
    116  CD1       16.7790   67.9370   -7.4110 C.ar  242  PHE242     -0.0042
    117  CD2       14.9970   67.1440   -6.0410 C.ar  242  PHE242     -0.0042
    118  CE1       17.4120   66.7100   -7.3140 C.ar  242  PHE242     -0.0003
    119  CE2       15.6410   65.9220   -5.9360 C.ar  242  PHE242     -0.0003
    120  CZ        16.8380   65.7050   -6.5730 C.ar  242  PHE242     -0.0000
    121  N          9.5880   69.1340   -9.5160 N.3   246  VAL246     -0.1245
    122  CA        10.1250   67.9640   -8.8460 C.3   246  VAL246      0.1561
    123  C          9.8020   67.9790   -7.3470 C.2   246  VAL246      0.2260
    124  O          9.3660   66.9600   -6.8140 O.2   246  VAL246     -0.2867
    125  CB        11.6250   67.7460   -9.0960 C.3   246  VAL246      0.0252
    126  CG1       12.1020   66.4900   -8.3860 C.3   246  VAL246      0.0019
    127  CG2       11.8790   67.6180  -10.5870 C.3   246  VAL246      0.0019
@<TRIPOS>BOND
     1    53    52    2
     2    61    60    1
     3    61    62    2
     4     7     6    2
     5    60    63    1
     6    60    59    1
     7     8     6   am
     8    55    56    1
     9    55    54    1
    10    56    57    1
    11    82    80   ar
    12     6     5    1
    13    52    59   am
    14    52    51    1
    15    70    64    1
    16    70    69    1
    17    64    65    1
    18    58    57    1
    19    80    79    1
    20    80    81   ar
    21    79    76    1
    22    54    51    1
    23    51    50    1
    24     5     2    1
    25    69    68    1
    26     1     2    1
    27     2     3    1
    28    65    66    1
    29    65    68    1
    30    72    71    1
    31    72    73    1
    32    75    76    1
    33    75    73   am
    34    76    77    1
    35    73    74    2
    36    66    67    2
    37    50    43   am
    38    44    43    2
    39    49    47   ar
    40    43    42    1
    41     3     4    2
    42   100    99    1
    43   127   125    1
    44    97    96    2
    45    98    99    1
    46    98    95    1
    47    77    78    2
    48    77    83   am
    49    96    95    1
    50    46    47    1
    51    46    45    1
    52    47    48   ar
    53    99   101    1
    54    95    94    1
    55   121   122    1
    56    83    84    1
    57    42    45    1
    58    42    41    1
    59    94    85   am
    60   125   122    1
    61   125   126    1
    62   122   123    1
    63    41    36   am
    64    40    38    1
    65    85    84    1
    66    85    86    2
    67    84    87    1
    68    33    32    2
    69   112   111    1
    70   112   113    2
    71   111   110    1
    72   111   114    1
    73    32    31    1
    74    36    37    2
    75    36    35    1
    76   116   118   ar
    77   116   115   ar
    78    31    30    1
    79    91    93   ar
    80    91    89   ar
    81   123   124    2
    82    93    92   ar
    83   118   120   ar
    84    89    88   ar
    85    92    90   ar
    86    88    90   ar
    87    88    87    1
    88   114   115    1
    89    16    15   ar
    90    17    15   ar
    91    38    35    1
    92    38    39    1
    93   115   117   ar
    94    35    34    1
    95   120   119   ar
    96    27    28    1
    97    27    26    1
    98    15    14    1
    99     9    10    1
   100   117   119   ar
   101    28    29    2
   102    26    20   am
   103    14    13    1
   104    10    13    1
   105    10    11    1
   106    12    11    2
   107    20    21    2
   108    20    19    1
   109   105   104    2
   110    19    22    1
   111    19    18    1
   112    25    23    1
   113    22    23    1
   114   104   103    1
   115    23    24    1
   116   106   107    1
   117   106   103    1
   118   107   108    2
   119   107   109   am
   120   103   102    1
