@<TRIPOS>MOLECULE
tmp/3uwqB01.pdb
 113 106 0 0 0
SMALL
GASTEIGER

@<TRIPOS>ATOM
      1  N        -10.8620   -8.9780  -13.3470 N.3     7  ALA7       -0.1245
      2  CA       -11.5840   -7.8330  -12.8130 C.3     7  ALA7        0.1562
      3  C        -11.4810   -7.7280  -11.3030 C.2     7  ALA7        0.2260
      4  O        -11.8500   -8.6710  -10.5910 O.2     7  ALA7       -0.2867
      5  CB       -13.0550   -7.9170  -13.2160 C.3     7  ALA7        0.0290
      6  N        -13.0440   -5.9750   -8.4470 N.3     9  ASP9       -0.1239
      7  CA       -14.2300   -5.2170   -8.0400 C.3     9  ASP9        0.1674
      8  C        -14.4620   -5.3680   -6.5360 C.2     9  ASP9        0.2266
      9  O        -15.5210   -5.8230   -6.0980 O.2     9  ASP9       -0.2867
     10  CB       -15.4620   -5.6990   -8.8200 C.3     9  ASP9        0.1410
     11  CG       -15.3530   -5.4480  -10.3320 C.2     9  ASP9        0.3668
     12  OD1      -14.6130   -4.5340  -10.7540 O.co2   9  ASP9       -0.2456
     13  OD2      -16.0580   -6.1410  -11.1010 O.co2   9  ASP9       -0.2456
     14  N         -7.8580   -5.5580  -14.1240 N.3    31  LYS31      -0.1245
     15  CA        -8.7440   -4.4590  -14.4760 C.3    31  LYS31       0.1561
     16  C         -9.1840   -3.7300  -13.2130 C.2    31  LYS31       0.2260
     17  O         -9.6660   -4.3500  -12.2590 O.2    31  LYS31      -0.2867
     18  CB       -10.0080   -4.9280  -15.2270 C.3    31  LYS31       0.0271
     19  CG       -10.8890   -3.7660  -15.7390 C.3    31  LYS31       0.0035
     20  CD       -12.1110   -4.2070  -16.5490 C.3    31  LYS31       0.0206
     21  CE       -13.2270   -4.8570  -15.7460 C.3    31  LYS31       0.1093
     22  NZ       -13.9000   -3.8960  -14.8210 N.3    31  LYS31      -0.1314
     23  N        -10.4040    0.8520  -16.4320 N.3    58  ASP58      -0.1239
     24  CA       -11.7750    0.8540  -16.9560 C.3    58  ASP58       0.1674
     25  C        -12.6240    1.9580  -16.3350 C.2    58  ASP58       0.2266
     26  O        -13.5240    1.6820  -15.5380 O.2    58  ASP58      -0.2867
     27  CB       -12.3510   -0.5380  -16.6350 C.3    58  ASP58       0.1410
     28  CG       -13.7840   -0.7450  -17.1160 C.2    58  ASP58       0.3668
     29  OD1      -14.2630   -0.0320  -18.0180 O.co2  58  ASP58      -0.2456
     30  OD2      -14.4260   -1.6730  -16.5860 O.co2  58  ASP58      -0.2456
     31  N        -14.1220    4.3680  -18.3930 N.3    60  LYS60      -0.1245
     32  CA       -15.0580    4.7910  -19.4370 C.3    60  LYS60       0.1561
     33  C        -15.2760    6.3090  -19.4800 C.2    60  LYS60       0.2260
     34  O        -16.4120    6.7960  -19.3410 O.2    60  LYS60      -0.2867
     35  CB       -16.4000    4.0790  -19.2250 C.3    60  LYS60       0.0271
     36  CG       -16.3150    2.5650  -19.1440 C.3    60  LYS60       0.0035
     37  CD       -17.6980    1.9180  -19.0990 C.3    60  LYS60       0.0206
     38  CE       -17.6340    0.3750  -19.1180 C.3    60  LYS60       0.1093
     39  NZ       -16.9530   -0.2110  -17.9360 N.3    60  LYS60      -0.1314
     40  N        -23.3720   -0.4640  -23.5500 N.3   117  LEU117     -0.1231
     41  CA       -23.2460   -1.2450  -22.3150 C.3   117  LEU117      0.1693
     42  C        -24.1740   -2.4640  -22.3710 C.2   117  LEU117      0.2592
     43  O        -25.2860   -2.3700  -22.8730 O.2   117  LEU117     -0.2718
     44  CB       -23.5790   -0.3540  -21.1170 C.3   117  LEU117      0.0284
     45  CG       -22.6240    0.8250  -20.8630 C.3   117  LEU117      0.0019
     46  CD1      -23.2260    1.8170  -19.8650 C.3   117  LEU117      0.0001
     47  CD2      -21.2540    0.3430  -20.4020 C.3   117  LEU117      0.0001
     48  N        -23.7260   -3.5980  -21.8370 N.am  118  THR118     -0.1953
     49  CA       -24.5240   -4.8410  -21.8690 C.3   118  THR118      0.1897
     50  C        -25.8520   -4.7660  -21.1210 C.2   118  THR118      0.2313
     51  O        -26.7520   -5.5830  -21.3410 O.2   118  THR118     -0.2863
     52  CB       -23.7030   -6.0350  -21.3710 C.3   118  THR118      0.1794
     53  OG1      -23.2530   -5.7750  -20.0420 O.3   118  THR118     -0.2208
     54  CG2      -22.4920   -6.2520  -22.2870 C.3   118  THR118      0.0378
     55  N        -15.8800   -8.9610  -21.8870 N.3   176  PRO176     -0.2102
     56  CA       -16.2930   -9.4050  -20.5670 C.3   176  PRO176      0.1504
     57  C        -17.5200  -10.3010  -20.7540 C.2   176  PRO176      0.2576
     58  O        -18.0480  -10.3820  -21.8720 O.2   176  PRO176     -0.2718
     59  CB       -16.6820   -8.1080  -19.8560 C.3   176  PRO176      0.0282
     60  CG       -17.1310   -7.1860  -20.9570 C.3   176  PRO176      0.0208
     61  CD       -16.5030   -7.6720  -22.2500 C.3   176  PRO176      0.0893
     62  N        -17.9650  -10.9600  -19.6880 N.am  177  GLY177     -0.1957
     63  CA       -19.1360  -11.8410  -19.7320 C.3   177  GLY177      0.1869
     64  C        -18.7810  -13.2110  -20.2670 C.2   177  GLY177      0.2309
     65  O        -19.4180  -13.7100  -21.1890 O.2   177  GLY177     -0.2863
     66  N        -17.6260  -17.3330  -19.1000 N.3   179  ARG179     -0.1245
     67  CA       -17.6850  -18.3480  -18.0470 C.3   179  ARG179      0.1563
     68  C        -17.1130  -19.6890  -18.4850 C.2   179  ARG179      0.2260
     69  O        -17.4470  -20.1740  -19.5560 O.2   179  ARG179     -0.2867
     70  CB       -19.1350  -18.5640  -17.5910 C.3   179  ARG179      0.0307
     71  CG       -19.7730  -17.4060  -16.8240 C.3   179  ARG179      0.0489
     72  CD       -19.0980  -17.2580  -15.4720 C.3   179  ARG179      0.2205
     73  NE       -19.6270  -16.1750  -14.6480 N.pl3 179  ARG179     -0.0865
     74  CZ       -19.1720  -14.9230  -14.6460 C.cat 179  ARG179      0.5346
     75  NH1      -18.1800  -14.5500  -15.4540 N.pl3 179  ARG179      0.1354
     76  NH2      -19.7270  -14.0330  -13.8320 N.pl3 179  ARG179      0.1354
     77  N        -12.1880  -10.4950  -20.2040 N.3   202  VAL202     -0.1231
     78  CA       -12.2970   -9.8560  -18.8950 C.3   202  VAL202      0.1692
     79  C        -13.1060  -10.8340  -18.0380 C.2   202  VAL202      0.2592
     80  O        -14.2780  -11.0810  -18.3090 O.2   202  VAL202     -0.2718
     81  CB       -12.9810   -8.4930  -18.9470 C.3   202  VAL202      0.0266
     82  CG1      -13.1730   -7.9490  -17.5240 C.3   202  VAL202      0.0020
     83  CG2      -12.1810   -7.5140  -19.8260 C.3   202  VAL202      0.0020
     84  N        -12.4630  -11.3990  -17.0230 N.am  203  ILE203     -0.1966
     85  CA       -13.0970  -12.3700  -16.1380 C.3   203  ILE203      0.1727
     86  C        -12.9100  -11.9540  -14.6940 C.2   203  ILE203      0.2617
     87  O        -11.7990  -11.6670  -14.2670 O.2   203  ILE203     -0.2715
     88  CB       -12.4860  -13.7700  -16.3560 C.3   203  ILE203      0.0290
     89  CG1      -12.6200  -14.1840  -17.8240 C.3   203  ILE203      0.0022
     90  CG2      -13.1530  -14.8060  -15.4460 C.3   203  ILE203      0.0023
     91  CD1      -11.9550  -15.5260  -18.1480 C.3   203  ILE203      0.0001
     92  N        -14.0030  -11.9130  -13.9430 N.am  204  GLY204     -0.1940
     93  CA       -13.9380  -11.5220  -12.5510 C.3   204  GLY204      0.2014
     94  C        -14.2300  -12.6440  -11.5730 C.2   204  GLY204      0.2639
     95  O        -13.3460  -13.4260  -11.2230 O.2   204  GLY204     -0.2714
     96  N        -15.4930  -12.7210  -11.1670 N.am  205  ARG205     -0.1963
     97  CA       -15.9900  -13.7040  -10.1950 C.3   205  ARG205      0.1714
     98  C        -15.5570  -15.1660  -10.3060 C.2   205  ARG205      0.2458
     99  O        -15.2660  -15.7850   -9.2840 O.2   205  ARG205     -0.2730
    100  CB       -17.5090  -13.5530  -10.0720 C.3   205  ARG205      0.0347
    101  CG       -17.8910  -12.2400   -9.3720 C.3   205  ARG205      0.0492
    102  CD       -19.3630  -11.9200   -9.4620 C.3   205  ARG205      0.2205
    103  NE       -19.7370  -11.5890  -10.8330 N.pl3 205  ARG205     -0.0865
    104  CZ       -20.9730  -11.3040  -11.2360 C.cat 205  ARG205      0.5346
    105  NH1      -21.9900  -11.3350  -10.3810 N.pl3 205  ARG205      0.1354
    106  NH2      -21.2000  -11.0060  -12.5100 N.pl3 205  ARG205      0.1354
    107  N        -15.5230  -15.7350  -11.5190 N.am  206  PRO206     -0.2727
    108  CA       -15.0930  -17.1310  -11.5980 C.3   206  PRO206      0.1402
    109  C        -13.6970  -17.3470  -11.0040 C.2   206  PRO206      0.2269
    110  O        -13.3960  -18.4360  -10.5090 O.2   206  PRO206     -0.2865
    111  CB       -15.1020  -17.4110  -13.1010 C.3   206  PRO206      0.0296
    112  CG       -16.1530  -16.4990  -13.6290 C.3   206  PRO206      0.0237
    113  CD       -16.0520  -15.2490  -12.8050 C.3   206  PRO206      0.0939
@<TRIPOS>BOND
     1    40    41    1
     2    43    42    2
     3    42    41    1
     4    42    48   am
     5    41    44    1
     6    54    52    1
     7    61    55    1
     8    61    60    1
     9    55    56    1
    10    58    57    2
    11    49    48    1
    12    49    52    1
    13    49    50    1
    14    52    53    1
    15    51    50    2
    16    65    64    2
    17    44    45    1
    18    60    59    1
    19    45    47    1
    20    45    46    1
    21    57    56    1
    22    57    62   am
    23    56    59    1
    24    64    63    1
    25    77    78    1
    26    83    81    1
    27    63    62    1
    28    69    68    2
    29    33    32    1
    30    33    34    2
    31    32    35    1
    32    32    31    1
    33    35    36    1
    34    36    37    1
    35    38    37    1
    36    38    39    1
    37    66    67    1
    38    81    78    1
    39    81    82    1
    40    78    79    1
    41    68    67    1
    42    80    79    2
    43    91    89    1
    44    67    70    1
    45    79    84   am
    46    29    28   ar
    47    89    88    1
    48    70    71    1
    49    28    27    1
    50    28    30   ar
    51    84    85    1
    52    24    27    1
    53    24    23    1
    54    24    25    1
    55    71    72    1
    56    20    21    1
    57    20    19    1
    58    88    85    1
    59    88    90    1
    60    25    26    2
    61    85    86    1
    62    21    22    1
    63    19    18    1
    64    72    73    1
    65    75    74    1
    66    18    15    1
    67    86    87    2
    68    86    92   am
    69    73    74    2
    70    74    76    1
    71    15    14    1
    72    15    16    1
    73    92    93    1
    74   112   111    1
    75   112   113    1
    76     1     2    1
    77     5     2    1
    78    16    17    2
    79   111   108    1
    80     2     3    1
    81   113   107    1
    82    93    94    1
    83   106   104    1
    84   108   107    1
    85   108   109    1
    86    94    95    2
    87    94    96   am
    88   107    98   am
    89     3     4    2
    90   104   103    2
    91   104   105    1
    92    96    97    1
    93    13    11   ar
    94   109   110    2
    95   103   102    1
    96    12    11   ar
    97    11    10    1
    98    98    97    1
    99    98    99    2
   100    97   100    1
   101   100   101    1
   102   102   101    1
   103    10     7    1
   104     6     7    1
   105     7     8    1
   106     8     9    2
