@<TRIPOS>MOLECULE
tmp/3ux0A01.pdb
 126 118 0 0 0
SMALL
GASTEIGER

@<TRIPOS>ATOM
      1  N         16.2540   -8.9800   -8.6260 N.3    18  GLU18      -0.1245
      2  CA        17.5080   -9.2010   -7.8980 C.3    18  GLU18       0.1567
      3  C         18.6350   -8.3830   -8.5800 C.2    18  GLU18       0.2260
      4  O         19.4570   -7.7580   -7.9040 O.2    18  GLU18      -0.2867
      5  CB        17.8860  -10.6770   -7.8850 C.3    18  GLU18       0.0388
      6  CG        19.1030  -10.9550   -6.9830 C.3    18  GLU18       0.1160
      7  CD        19.6220  -12.3910   -7.0390 C.2    18  GLU18       0.3649
      8  OE1       19.2690  -13.1370   -7.9770 O.co2  18  GLU18      -0.2457
      9  OE2       20.4190  -12.7420   -6.1340 O.co2  18  GLU18      -0.2457
     10  N         16.4150  -20.6640   -3.4460 N.3    45  ASN45      -0.1225
     11  CA        17.4370  -19.6430   -3.2160 C.3    45  ASN45       0.1785
     12  C         16.8860  -18.2230   -3.5050 C.2    45  ASN45       0.2597
     13  O         17.2290  -17.2890   -2.7740 O.2    45  ASN45      -0.2718
     14  CB        18.6450  -19.9140   -4.0510 C.3    45  ASN45       0.1169
     15  CG        19.4600  -21.1180   -3.5230 C.2    45  ASN45       0.2627
     16  OD1       19.2960  -21.5390   -2.3700 O.2    45  ASN45      -0.2716
     17  ND2       20.3760  -21.6370   -4.3640 N.am   45  ASN45      -0.0877
     18  N         16.0780  -18.0640   -4.5630 N.am   46  LEU46      -0.1980
     19  CA        15.5630  -16.7210   -4.8610 C.3    46  LEU46       0.1596
     20  C         14.6400  -16.2570   -3.7290 C.2    46  LEU46       0.2287
     21  O         14.6530  -15.0950   -3.3380 O.2    46  LEU46      -0.2864
     22  CB        14.7580  -16.7160   -6.1720 C.3    46  LEU46       0.0297
     23  CG        15.5430  -16.9740   -7.4210 C.3    46  LEU46       0.0022
     24  CD1       14.5540  -17.2520   -8.5910 C.3    46  LEU46       0.0001
     25  CD2       16.3890  -15.7210   -7.7020 C.3    46  LEU46       0.0001
     26  N         14.7110  -17.1330   -0.5720 N.3    48  SER48      -0.1202
     27  CA        15.5440  -16.8380    0.5960 C.3    48  SER48       0.2020
     28  C         16.2680  -15.5210    0.4430 C.2    48  SER48       0.2618
     29  O         16.2920  -14.7030    1.3610 O.2    48  SER48      -0.2717
     30  CB        16.5790  -17.9660    0.8210 C.3    48  SER48       0.2103
     31  OG        17.3750  -17.6370    1.9560 O.3    48  SER48      -0.2182
     32  N         16.8530  -15.2860   -0.7270 N.am   49  VAL49      -0.1979
     33  CA        17.6280  -14.0470   -0.9310 C.3    49  VAL49       0.1595
     34  C         16.6910  -12.8390   -0.8090 C.2    49  VAL49       0.2287
     35  O         17.0520  -11.7720   -0.2630 O.2    49  VAL49      -0.2864
     36  CB        18.2750  -14.0600   -2.3510 C.3    49  VAL49       0.0276
     37  CG1       18.8110  -12.6590   -2.7470 C.3    49  VAL49       0.0022
     38  CG2       19.4220  -15.0970   -2.3260 C.3    49  VAL49       0.0022
     39  N         16.2390  -26.9080    4.1050 N.3   115  PHE115     -0.1241
     40  CA        16.2640  -25.4940    3.7160 C.3   115  PHE115      0.1605
     41  C         15.0630  -24.7650    4.3530 C.2   115  PHE115      0.2264
     42  O         15.2300  -23.6620    4.9340 O.2   115  PHE115     -0.2867
     43  CB        16.1850  -25.4200    2.1840 C.3   115  PHE115      0.0534
     44  CG        16.3790  -24.0390    1.6340 C.ar  115  PHE115     -0.0203
     45  CD1       15.3060  -23.1820    1.5470 C.ar  115  PHE115     -0.0042
     46  CD2       17.6240  -23.6240    1.1830 C.ar  115  PHE115     -0.0042
     47  CE1       15.4680  -21.8670    1.0170 C.ar  115  PHE115     -0.0003
     48  CE2       17.7870  -22.3770    0.6340 C.ar  115  PHE115     -0.0003
     49  CZ        16.6970  -21.4780    0.6170 C.ar  115  PHE115     -0.0000
     50  N         15.3530  -24.5120    8.2320 N.3   118  LYS118     -0.1231
     51  CA        16.3350  -23.4430    8.5400 C.3   118  LYS118      0.1693
     52  C         15.6300  -22.0630    8.4280 C.2   118  LYS118      0.2591
     53  O         15.7900  -21.2280    9.3320 O.2   118  LYS118     -0.2718
     54  CB        17.5150  -23.4560    7.6010 C.3   118  LYS118      0.0285
     55  CG        18.4990  -22.2730    7.9040 C.3   118  LYS118      0.0035
     56  CD        19.6710  -22.3160    6.8910 C.3   118  LYS118      0.0206
     57  CE        20.4980  -21.0360    6.9230 C.3   118  LYS118      0.1093
     58  NZ        19.7980  -19.7770    6.4130 N.3   118  LYS118     -0.1314
     59  N         14.8960  -21.8690    7.3280 N.am  119  MET119     -0.1979
     60  CA        14.1780  -20.5920    7.1480 C.3   119  MET119      0.1605
     61  C         13.1980  -20.3700    8.2950 C.2   119  MET119      0.2287
     62  O         13.0990  -19.2690    8.8050 O.2   119  MET119     -0.2864
     63  CB        13.4160  -20.5560    5.8190 C.3   119  MET119      0.0413
     64  CG        14.2860  -20.3640    4.6070 C.3   119  MET119      0.0598
     65  SD        13.2290  -20.0930    3.1690 S.3   119  MET119     -0.1393
     66  CE        12.8120  -18.3630    3.4060 C.3   119  MET119      0.0692
     67  N         26.4130  -26.9590    1.7200 N.3   163  PRO163     -0.2102
     68  CA        26.2870  -25.5340    2.1360 C.3   163  PRO163      0.1504
     69  C         25.0420  -25.1820    2.9760 C.2   163  PRO163      0.2575
     70  O         25.1390  -24.3420    3.8420 O.2   163  PRO163     -0.2718
     71  CB        26.2350  -24.8000    0.8070 C.3   163  PRO163      0.0282
     72  CG        27.1140  -25.6370   -0.1100 C.3   163  PRO163      0.0208
     73  CD        26.7290  -27.0680    0.2720 C.3   163  PRO163      0.0893
     74  N         23.9440  -25.9050    2.7530 N.am  164  ILE164     -0.1980
     75  CA        22.7360  -25.6500    3.5410 C.3   164  ILE164      0.1595
     76  C         22.9550  -26.1820    4.9370 C.2   164  ILE164      0.2287
     77  O         22.5970  -25.5240    5.8910 O.2   164  ILE164     -0.2864
     78  CB        21.4690  -26.2920    2.9420 C.3   164  ILE164      0.0276
     79  CG1       21.3110  -25.9070    1.4640 C.3   164  ILE164      0.0022
     80  CG2       20.2250  -25.8790    3.7690 C.3   164  ILE164      0.0022
     81  CD1       20.2940  -26.7830    0.7630 C.3   164  ILE164      0.0001
     82  N         25.2870  -23.6150    6.5480 N.3   167  GLY167     -0.1225
     83  CA        24.5920  -22.3570    6.9040 C.3   167  GLY167      0.1811
     84  C         23.5870  -22.5440    8.0330 C.2   167  GLY167      0.2280
     85  O         23.4100  -21.6520    8.8670 O.2   167  GLY167     -0.2866
     86  N         34.8090  -24.5740   -3.1800 N.3   210  LYS210     -0.1231
     87  CA        34.6560  -23.1150   -3.0890 C.3   210  LYS210      0.1693
     88  C         33.3990  -22.7600   -2.3020 C.2   210  LYS210      0.2592
     89  O         33.4400  -21.9120   -1.4230 O.2   210  LYS210     -0.2718
     90  CB        34.5950  -22.4970   -4.4980 C.3   210  LYS210      0.0285
     91  CG        34.7380  -20.9760   -4.5400 C.3   210  LYS210      0.0035
     92  CD        34.7440  -20.4550   -5.9890 C.3   210  LYS210      0.0206
     93  CE        33.8250  -19.2430   -6.1380 C.3   210  LYS210      0.1093
     94  NZ        32.4240  -19.6620   -5.8990 N.3   210  LYS210     -0.1314
     95  N         32.2830  -23.4290   -2.6250 N.am  211  ASP211     -0.1974
     96  CA        30.9750  -23.1700   -1.9570 C.3   211  ASP211      0.1709
     97  C         31.0500  -23.4660   -0.4440 C.2   211  ASP211      0.2293
     98  O         30.5930  -22.6960    0.3900 O.2   211  ASP211     -0.2864
     99  CB        29.8860  -24.0740   -2.5490 C.3   211  ASP211      0.1436
    100  CG        29.5370  -23.7360   -4.0220 C.2   211  ASP211      0.3671
    101  OD1       29.7220  -22.5610   -4.4670 O.co2 211  ASP211     -0.2456
    102  OD2       29.0660  -24.6710   -4.7070 O.co2 211  ASP211     -0.2456
    103  N         33.5240  -21.1520    1.6730 N.3   214  LEU214     -0.1231
    104  CA        32.9690  -19.7870    1.8700 C.3   214  LEU214      0.1693
    105  C         32.1930  -19.7150    3.2040 C.2   214  LEU214      0.2591
    106  O         32.3710  -18.7790    3.9940 O.2   214  LEU214     -0.2718
    107  CB        32.0610  -19.3710    0.6970 C.3   214  LEU214      0.0284
    108  CG        31.5210  -17.9180    0.5860 C.3   214  LEU214      0.0019
    109  CD1       32.6220  -16.9380    0.2880 C.3   214  LEU214      0.0001
    110  CD2       30.5250  -17.8130   -0.5320 C.3   214  LEU214      0.0001
    111  N         31.3430  -20.7030    3.4580 N.am  215  ILE215     -0.1980
    112  CA        30.5770  -20.6830    4.7070 C.3   215  ILE215      0.1595
    113  C         31.4140  -21.1360    5.8790 C.2   215  ILE215      0.2287
    114  O         31.2220  -20.6740    6.9800 O.2   215  ILE215     -0.2864
    115  CB        29.3140  -21.5440    4.5700 C.3   215  ILE215      0.0276
    116  CG1       28.4950  -20.9490    3.4150 C.3   215  ILE215      0.0022
    117  CG2       28.5300  -21.5420    5.9000 C.3   215  ILE215      0.0022
    118  CD1       27.6390  -21.9240    2.7550 C.3   215  ILE215      0.0001
    119  N         32.8030  -18.1520    7.4520 N.3   218  LEU218     -0.1245
    120  CA        31.8910  -17.4040    8.3500 C.3   218  LEU218      0.1561
    121  C         31.8590  -18.0510    9.7420 C.2   218  LEU218      0.2260
    122  O         31.7830  -17.3370   10.7460 O.2   218  LEU218     -0.2867
    123  CB        30.4500  -17.3020    7.7990 C.3   218  LEU218      0.0270
    124  CG        30.2690  -16.8390    6.3430 C.3   218  LEU218      0.0019
    125  CD1       28.8260  -16.9060    5.9710 C.3   218  LEU218      0.0001
    126  CD2       30.7440  -15.4240    6.2740 C.3   218  LEU218      0.0001
@<TRIPOS>BOND
     1     1     2    1
     2    24    23    1
     3     3     4    2
     4     3     2    1
     5     8     7   ar
     6     2     5    1
     7     5     6    1
     8    25    23    1
     9    23    22    1
    10     7     6    1
    11     7     9   ar
    12    22    19    1
    13    93    92    1
    14    93    94    1
    15    92    91    1
    16    19    18    1
    17    19    20    1
    18   102   100   ar
    19    18    12   am
    20    91    90    1
    21    90    87    1
    22   101   100   ar
    23    17    15   am
    24    14    15    1
    25    14    11    1
    26   100    99    1
    27    20    21    2
    28    15    16    2
    29    12    11    1
    30    12    13    2
    31    10    11    1
    32    86    87    1
    33    87    88    1
    34    37    36    1
    35    95    88   am
    36    95    96    1
    37    99    96    1
    38    36    38    1
    39    36    33    1
    40    88    89    2
    41    96    97    1
    42    33    34    1
    43    33    32    1
    44    34    35    2
    45    32    28   am
    46    26    27    1
    47   110   108    1
    48    97    98    2
    49    72    73    1
    50    72    71    1
    51    73    67    1
    52   109   108    1
    53    28    27    1
    54    28    29    2
    55   108   107    1
    56    27    30    1
    57    49    48   ar
    58    49    47   ar
    59    48    46   ar
    60   107   104    1
    61    81    79    1
    62    71    68    1
    63    30    31    1
    64    47    45   ar
    65    46    44   ar
    66    79    78    1
    67    45    44   ar
    68    44    43    1
    69   103   104    1
    70    67    68    1
    71   104   105    1
    72    68    69    1
    73    43    40    1
    74    74    69   am
    75    74    75    1
    76   118   116    1
    77    78    75    1
    78    78    80    1
    79    69    70    2
    80    65    66    1
    81    65    64    1
    82   105   111   am
    83   105   106    2
    84   116   115    1
    85   111   112    1
    86    75    76    1
    87    40    39    1
    88    40    41    1
    89    41    42    2
    90   115   112    1
    91   115   117    1
    92    64    63    1
    93   112   113    1
    94    76    77    2
    95    63    60    1
    96   113   114    2
    97   125   124    1
    98   126   124    1
    99   124   123    1
   100    58    57    1
   101    82    83    1
   102    56    57    1
   103    56    55    1
   104    83    84    1
   105    60    59    1
   106    60    61    1
   107    59    52   am
   108   119   120    1
   109    54    55    1
   110    54    51    1
   111   123   120    1
   112    84    85    2
   113    50    51    1
   114    61    62    2
   115   120   121    1
   116    52    51    1
   117    52    53    2
   118   121   122    2
