@<TRIPOS>MOLECULE
tmp/3uxdA00.pdb
 109 101 0 0 0
SMALL
GASTEIGER

@<TRIPOS>ATOM
      1  N         11.0650   -0.1400   18.6570 N.3    80  VAL80      -0.1245
      2  CA         9.8810   -0.4730   17.9020 C.3    80  VAL80       0.1561
      3  C          9.3880   -1.8370   18.3490 C.2    80  VAL80       0.2260
      4  O         10.1850   -2.7990   18.3920 O.2    80  VAL80      -0.2867
      5  CB        10.2440   -0.5890   16.3840 C.3    80  VAL80       0.0252
      6  CG1        9.0720   -1.1200   15.5980 C.3    80  VAL80       0.0019
      7  CG2       10.6100    0.7630   15.8910 C.3    80  VAL80       0.0019
      8  N          7.7030    3.0310   19.4800 N.3   107  LEU107     -0.1245
      9  CA         6.8340    3.0590   18.3000 C.3   107  LEU107      0.1561
     10  C          6.1690    1.6940   18.1900 C.2   107  LEU107      0.2260
     11  O          6.8690    0.6320   18.1990 O.2   107  LEU107     -0.2867
     12  CB         7.6850    3.3610   17.0340 C.3   107  LEU107      0.0270
     13  CG         6.9530    3.3560   15.6650 C.3   107  LEU107      0.0019
     14  CD1        7.6010    4.3630   14.6950 C.3   107  LEU107      0.0001
     15  CD2        7.0200    2.0000   15.0830 C.3   107  LEU107      0.0001
     16  N          4.6720   -1.0550   15.8860 N.3   109  TRP109     -0.1227
     17  CA         4.7260   -1.4520   14.4860 C.3   109  TRP109      0.1737
     18  C          3.6390   -2.4850   14.2900 C.2   109  TRP109      0.2595
     19  O          3.6980   -3.6080   14.8350 O.2   109  TRP109     -0.2718
     20  CB         6.0910   -2.0390   14.1120 C.3   109  TRP109      0.0564
     21  CG         6.1830   -2.7430   12.6770 C.ar  109  TRP109      0.0003
     22  CD1        5.1430   -3.0480   11.8130 C.ar  109  TRP109      0.0946
     23  CD2        7.3780   -3.2350   12.0270 C.ar  109  TRP109      0.0152
     24  NE1        5.6140   -3.6540   10.6660 N.ar  109  TRP109     -0.2442
     25  CE2        6.9760   -3.7920   10.7620 C.ar  109  TRP109      0.0810
     26  CE3        8.7490   -3.2590   12.3800 C.ar  109  TRP109      0.0012
     27  CZ2        7.9020   -4.3580    9.8440 C.ar  109  TRP109      0.0191
     28  CZ3        9.6990   -3.8440   11.4460 C.ar  109  TRP109      0.0001
     29  CH2        9.2480   -4.3800   10.1930 C.ar  109  TRP109      0.0015
     30  N          2.6100   -2.0990   13.5360 N.am  110  ASP110     -0.1960
     31  CA         1.5660   -3.0600   13.1810 C.3   110  ASP110      0.1840
     32  C          1.1040   -2.6760   11.7590 C.2   110  ASP110      0.2622
     33  O          1.7630   -1.8590   11.0790 O.2   110  ASP110     -0.2715
     34  CB         0.3990   -3.0510   14.2150 C.3   110  ASP110      0.1450
     35  CG        -0.3710   -4.3900   14.2740 C.2   110  ASP110      0.3671
     36  OD1       -0.6900   -4.9750   13.1990 O.co2 110  ASP110     -0.2456
     37  OD2       -0.7360   -4.8590   15.4010 O.co2 110  ASP110     -0.2456
     38  N          0.0320   -3.2820   11.2950 N.am  111  PHE111     -0.1974
     39  CA        -0.5840   -2.8710   10.0170 C.3   111  PHE111      0.1639
     40  C         -1.8310   -2.0950   10.3210 C.2   111  PHE111      0.2290
     41  O         -2.9430   -2.6360   10.3940 O.2   111  PHE111     -0.2864
     42  CB        -0.7710   -4.1040    9.0680 C.3   111  PHE111      0.0560
     43  CG         0.5640   -4.7280    8.6680 C.ar  111  PHE111     -0.0200
     44  CD1        1.1350   -4.4380    7.4440 C.ar  111  PHE111     -0.0042
     45  CD2        1.2860   -5.5360    9.5890 C.ar  111  PHE111     -0.0042
     46  CE1        2.3780   -4.9580    7.0840 C.ar  111  PHE111     -0.0003
     47  CE2        2.5340   -6.0770    9.2720 C.ar  111  PHE111     -0.0003
     48  CZ         3.0790   -5.7830    7.9610 C.ar  111  PHE111     -0.0000
     49  N          3.6980    3.4790   13.3350 N.3   130  GLY130     -0.1225
     50  CA         3.9510    3.6290   11.9050 C.3   130  GLY130      0.1811
     51  C          2.6720    3.5660   11.0910 C.2   130  GLY130      0.2280
     52  O          1.7140    2.8570   11.4620 O.2   130  GLY130     -0.2866
     53  N          1.7060    2.8540    6.9580 N.3   132  ILE132     -0.1245
     54  CA         2.4400    2.1750    5.9240 C.3   132  ILE132      0.1561
     55  C          1.7820    2.5820    4.5800 C.2   132  ILE132      0.2260
     56  O          0.6110    2.2640    4.3520 O.2   132  ILE132     -0.2867
     57  CB         2.3990    0.6540    6.1340 C.3   132  ILE132      0.0252
     58  CG1        3.1950    0.2540    7.3990 C.3   132  ILE132      0.0019
     59  CG2        2.9410   -0.1380    4.7980 C.3   132  ILE132      0.0019
     60  CD1        2.8900   -1.1770    7.8130 C.3   132  ILE132      0.0001
     61  N          5.8800    5.1130    6.6140 N.3   158  VAL158     -0.1245
     62  CA         6.8180    4.0990    6.1350 C.3   158  VAL158      0.1561
     63  C          6.7290    4.0140    4.5930 C.2   158  VAL158      0.2260
     64  O          5.6450    3.8460    4.1190 O.2   158  VAL158     -0.2867
     65  CB         6.5350    2.6840    6.7150 C.3   158  VAL158      0.0252
     66  CG1        7.5980    1.6930    6.2630 C.3   158  VAL158      0.0019
     67  CG2        6.6170    2.7830    8.2600 C.3   158  VAL158      0.0019
     68  N         10.1820    6.7010    7.6780 N.3   177  ILE177     -0.1245
     69  CA        11.0280    5.5230    7.7140 C.3   177  ILE177      0.1561
     70  C         11.2070    5.0490    6.2600 C.2   177  ILE177      0.2260
     71  O         10.2100    4.6910    5.6410 O.2   177  ILE177     -0.2867
     72  CB        10.3770    4.3450    8.6040 C.3   177  ILE177      0.0252
     73  CG1       10.2880    4.7660   10.0950 C.3   177  ILE177      0.0019
     74  CG2       11.1440    2.9940    8.4210 C.3   177  ILE177      0.0019
     75  CD1        9.5320    3.7510   10.9600 C.3   177  ILE177      0.0001
     76  N         12.4610    2.1660    4.2260 N.3   179  SER179     -0.1217
     77  CA        12.8700    0.8050    4.4540 C.3   179  SER179      0.1889
     78  C         13.5040    0.2950    3.1990 C.2   179  SER179      0.2288
     79  O         12.9490    0.5440    2.0860 O.2   179  SER179     -0.2866
     80  CB        11.6720   -0.0600    4.8580 C.3   179  SER179      0.2089
     81  OG        12.0720   -1.4030    4.9000 O.3   179  SER179     -0.2183
     82  N          8.1470   -4.9040    1.1970 N.3   183  LEU183     -0.1245
     83  CA         7.2170   -5.7750    1.9280 C.3   183  LEU183      0.1561
     84  C          6.6880   -6.9920    1.1720 C.2   183  LEU183      0.2260
     85  O          6.4250   -8.0880    1.7860 O.2   183  LEU183     -0.2867
     86  CB         6.0220   -4.9650    2.4180 C.3   183  LEU183      0.0270
     87  CG         6.2780   -4.1620    3.6960 C.3   183  LEU183      0.0019
     88  CD1        4.9940   -3.4000    4.0370 C.3   183  LEU183      0.0001
     89  CD2        6.7480   -5.0280    4.9130 C.3   183  LEU183      0.0001
     90  N         15.7930    1.9940    7.5810 N.3   209  ALA209     -0.1231
     91  CA        15.4080    0.7100    8.1390 C.3   209  ALA209      0.1694
     92  C         15.8720   -0.4280    7.2320 C.2   209  ALA209      0.2592
     93  O         15.8160   -0.2780    6.0160 O.2   209  ALA209     -0.2718
     94  CB        13.9040    0.6670    8.2600 C.3   209  ALA209      0.0304
     95  N         16.2960   -1.5690    7.8260 N.am  210  SER210     -0.1952
     96  CA        16.5490   -2.8740    7.1380 C.3   210  SER210      0.1924
     97  C         17.9000   -2.9070    6.4710 C.2   210  SER210      0.2314
     98  O         18.4120   -1.8840    5.9930 O.2   210  SER210     -0.2863
     99  CB        15.4150   -3.3250    6.1790 C.3   210  SER210      0.2116
    100  OG        14.1370   -2.8810    6.6740 O.3   210  SER210     -0.2180
    101  N         17.1180    2.0510   12.0550 N.3   230  GLU230     -0.1245
    102  CA        16.2580    1.0200   12.6340 C.3   230  GLU230      0.1567
    103  C         16.8880   -0.3400   12.3860 C.2   230  GLU230      0.2260
    104  O         17.2880   -0.6350   11.2350 O.2   230  GLU230     -0.2867
    105  CB        14.8530    1.1140   12.0140 C.3   230  GLU230      0.0388
    106  CG        13.8700    0.1540   12.7130 C.3   230  GLU230      0.1160
    107  CD        12.5900   -0.0560   11.9860 C.2   230  GLU230      0.3649
    108  OE1       11.7340    0.8340   12.0840 O.co2 230  GLU230     -0.2457
    109  OE2       12.4390   -1.1110   11.2970 O.co2 230  GLU230     -0.2457
@<TRIPOS>BOND
     1    84    85    2
     2    84    83    1
     3    82    83    1
     4    83    86    1
     5    79    78    2
     6    86    87    1
     7    78    77    1
     8    87    88    1
     9    87    89    1
    10    64    63    2
    11    76    77    1
    12    56    55    2
    13    77    80    1
    14    55    54    1
    15    63    62    1
    16    59    57    1
    17    80    81    1
    18    71    70    2
    19    54    57    1
    20    54    53    1
    21    98    97    2
    22    93    92    2
    23    57    58    1
    24    62    61    1
    25    62    65    1
    26    99   100    1
    27    99    96    1
    28    70    69    1
    29    66    65    1
    30    97    96    1
    31    65    67    1
    32    46    44   ar
    33    46    48   ar
    34    96    95    1
    35    92    95   am
    36    92    91    1
    37    58    60    1
    38    44    43   ar
    39    90    91    1
    40    68    69    1
    41    69    72    1
    42    48    47   ar
    43    91    94    1
    44    74    72    1
    45    72    73    1
    46    43    42    1
    47    43    45   ar
    48    42    39    1
    49    47    45   ar
    50    27    29   ar
    51    27    25   ar
    52    39    40    1
    53    39    38    1
    54    73    75    1
    55    29    28   ar
    56    40    41    2
    57    24    25   ar
    58    24    22   ar
    59    25    23   ar
    60    33    32    2
    61    51    52    2
    62    51    50    1
    63   104   103    2
    64    38    32   am
    65   109   107   ar
    66    28    26   ar
    67    32    31    1
    68    22    21   ar
    69    50    49    1
    70   107   108   ar
    71   107   106    1
    72   105   102    1
    73   105   106    1
    74    23    26   ar
    75    23    21   ar
    76   101   102    1
    77   103   102    1
    78    21    20    1
    79    31    30    1
    80    31    34    1
    81    36    35   ar
    82    30    18   am
    83    20    17    1
    84    34    35    1
    85    35    37   ar
    86    18    17    1
    87    18    19    2
    88    17    16    1
    89    14    13    1
    90    15    13    1
    91     6     5    1
    92    13    12    1
    93     7     5    1
    94     5     2    1
    95    12     9    1
    96     2     3    1
    97     2     1    1
    98    10    11    2
    99    10     9    1
   100     9     8    1
   101     3     4    2
