@<TRIPOS>MOLECULE
tmp/3uxeA03.pdb
 92 88 0 0 0
SMALL
GASTEIGER

@<TRIPOS>ATOM
      1  N         28.1890   -7.3980  -17.2430 N.3    68  GLY68      -0.1225
      2  CA        28.5270   -8.4880  -16.2830 C.3    68  GLY68       0.1811
      3  C         29.9830   -8.5190  -15.8250 C.2    68  GLY68       0.2280
      4  O         30.2480   -8.6190  -14.6430 O.2    68  GLY68      -0.2866
      5  N         18.7600   -6.2100  -11.1310 N.3   117  ASP117     -0.1239
      6  CA        19.8220   -6.2540  -12.1490 C.3   117  ASP117      0.1674
      7  C         21.1960   -5.7150  -11.6750 C.2   117  ASP117      0.2266
      8  O         22.2790   -6.2640  -11.9900 O.2   117  ASP117     -0.2867
      9  CB        19.4410   -5.5600  -13.4740 C.3   117  ASP117      0.1410
     10  CG        18.2490   -6.1300  -14.1680 C.2   117  ASP117      0.3668
     11  OD1       17.8260   -7.2570  -13.9220 O.co2 117  ASP117     -0.2456
     12  OD2       17.7550   -5.3920  -15.0470 O.co2 117  ASP117     -0.2456
     13  N         22.2580   -7.1330   -7.3620 N.3   120  LEU120     -0.1231
     14  CA        22.6490   -8.5050   -7.1840 C.3   120  LEU120      0.1693
     15  C         23.7610   -8.9460   -8.2110 C.2   120  LEU120      0.2592
     16  O         23.5300   -9.8000   -9.1000 O.2   120  LEU120     -0.2718
     17  CB        21.3960   -9.4370   -7.3010 C.3   120  LEU120      0.0284
     18  CG        20.2380   -9.0970   -6.3770 C.3   120  LEU120      0.0019
     19  CD1       18.9540   -9.9830   -6.6840 C.3   120  LEU120      0.0001
     20  CD2       20.7060   -9.3600   -4.9090 C.3   120  LEU120      0.0001
     21  N         24.9880   -8.3770   -8.0420 N.am  121  CYS121     -0.1956
     22  CA        26.0370   -8.5700   -9.0580 C.3   121  CYS121      0.1843
     23  C         26.9140   -9.7720   -8.7880 C.2   121  CYS121      0.2625
     24  O         26.9680  -10.3110   -7.6570 O.2   121  CYS121     -0.2714
     25  CB        26.9160   -7.3340   -9.2020 C.3   121  CYS121      0.0997
     26  SG        28.0360   -6.9980   -7.9260 S.3   121  CYS121     -0.0797
     27  N         27.6230  -10.1800   -9.8440 N.am  122  GLN122     -0.1977
     28  CA        28.5950  -11.2310   -9.6960 C.3   122  GLN122      0.1601
     29  C         29.6200  -10.8060   -8.6390 C.2   122  GLN122      0.2287
     30  O         30.1140   -9.6620   -8.6090 O.2   122  GLN122     -0.2864
     31  CB        29.1970  -11.6020  -11.0750 C.3   122  GLN122      0.0394
     32  CG        30.0100  -12.8600  -11.0820 C.3   122  GLN122      0.0908
     33  CD        30.2890  -13.3280  -12.5990 C.2   122  GLN122      0.2608
     34  OE1       29.6280  -12.7970  -13.5550 O.2   122  GLN122     -0.2717
     35  NE2       31.2490  -14.2200  -12.8000 N.am  122  GLN122     -0.0878
     36  N         26.3590  -14.0170   -6.1080 N.3   126  PHE126     -0.1241
     37  CA        26.6890  -15.3250   -6.6180 C.3   126  PHE126      0.1605
     38  C         28.0500  -15.2780   -7.2700 C.2   126  PHE126      0.2264
     39  O         28.5830  -14.1860   -7.5640 O.2   126  PHE126     -0.2867
     40  CB        25.5960  -15.7490   -7.6900 C.3   126  PHE126      0.0534
     41  CG        25.6170  -14.8890   -8.9320 C.ar  126  PHE126     -0.0203
     42  CD1       24.9600  -13.7180   -8.9140 C.ar  126  PHE126     -0.0042
     43  CD2       26.4930  -15.1910  -10.0240 C.ar  126  PHE126     -0.0042
     44  CE1       25.0340  -12.8180  -10.0140 C.ar  126  PHE126     -0.0003
     45  CE2       26.5670  -14.3310  -11.1160 C.ar  126  PHE126     -0.0003
     46  CZ        25.8750  -13.1430  -11.0920 C.ar  126  PHE126     -0.0000
     47  N         30.4710  -17.3510  -10.4900 N.3   128  ILE128     -0.1245
     48  CA        30.3990  -18.4310  -11.4140 C.3   128  ILE128      0.1561
     49  C         30.9080  -19.8380  -10.7840 C.2   128  ILE128      0.2260
     50  O         30.9720  -20.8130  -11.4970 O.2   128  ILE128     -0.2867
     51  CB        31.1920  -17.9780  -12.6220 C.3   128  ILE128      0.0252
     52  CG1       30.3350  -17.9040  -13.9180 C.3   128  ILE128      0.0019
     53  CG2       32.5370  -18.6380  -12.5570 C.3   128  ILE128      0.0019
     54  CD1       29.8370  -19.2220  -14.4550 C.3   128  ILE128      0.0001
     55  N         26.5490  -20.4690   -7.5330 N.3   131  PHE131     -0.1227
     56  CA        25.0740  -20.1820   -7.6540 C.3   131  PHE131      0.1736
     57  C         24.0830  -21.1990   -7.1540 C.2   131  PHE131      0.2595
     58  O         24.4960  -22.3170   -6.8240 O.2   131  PHE131     -0.2718
     59  CB        24.6930  -19.5820   -9.0330 C.3   131  PHE131      0.0547
     60  CG        25.0350  -20.4660  -10.2190 C.ar  131  PHE131     -0.0202
     61  CD1       24.1140  -21.4210  -10.6470 C.ar  131  PHE131     -0.0042
     62  CD2       26.2190  -20.2740  -10.9420 C.ar  131  PHE131     -0.0042
     63  CE1       24.4070  -22.2460  -11.7590 C.ar  131  PHE131     -0.0003
     64  CE2       26.5570  -21.1190  -12.0480 C.ar  131  PHE131     -0.0003
     65  CZ        25.6500  -22.0990  -12.4490 C.ar  131  PHE131     -0.0000
     66  N         22.7950  -20.8610   -7.1320 N.am  132  TYR132     -0.1976
     67  CA        21.7490  -21.6480   -6.4120 C.3   132  TYR132      0.1639
     68  C         22.1930  -22.0020   -5.0260 C.2   132  TYR132      0.2290
     69  O         22.3930  -21.0950   -4.2250 O.2   132  TYR132     -0.2864
     70  CB        21.2240  -22.9030   -7.2350 C.3   132  TYR132      0.0560
     71  CG        20.4010  -22.4960   -8.5010 C.ar  132  TYR132     -0.0198
     72  CD1       19.2260  -21.7170   -8.4110 C.ar  132  TYR132     -0.0009
     73  CD2       20.8930  -22.7660   -9.7650 C.ar  132  TYR132     -0.0009
     74  CE1       18.5140  -21.3450   -9.5530 C.ar  132  TYR132      0.0417
     75  CE2       20.1960  -22.3650  -10.9330 C.ar  132  TYR132      0.0417
     76  CZ        18.9980  -21.6390  -10.7880 C.ar  132  TYR132      0.1957
     77  OH        18.2310  -21.2110  -11.8660 O.3   132  TYR132     -0.2866
     78  N         14.6740  -18.1530  -10.3900 N.3   174  GLY174     -0.1225
     79  CA        15.7870  -17.6330  -11.2310 C.3   174  GLY174      0.1811
     80  C         16.5840  -16.5100  -10.5700 C.2   174  GLY174      0.2280
     81  O         17.6960  -16.2270  -11.0210 O.2   174  GLY174     -0.2866
     82  N         18.7030  -18.4160   -6.9810 N.3   178  PHE178     -0.1241
     83  CA        19.9990  -18.4020   -7.6530 C.3   178  PHE178      0.1605
     84  C         21.0850  -17.7500   -6.8270 C.2   178  PHE178      0.2264
     85  O         22.2480  -18.1720   -6.8180 O.2   178  PHE178     -0.2867
     86  CB        19.8760  -17.7420   -8.9960 C.3   178  PHE178      0.0534
     87  CG        21.1250  -17.7320   -9.8080 C.ar  178  PHE178     -0.0203
     88  CD1       21.3430  -18.7490  -10.7330 C.ar  178  PHE178     -0.0042
     89  CD2       22.0290  -16.6410   -9.8030 C.ar  178  PHE178     -0.0042
     90  CE1       22.4700  -18.7460  -11.5490 C.ar  178  PHE178     -0.0003
     91  CE2       23.1890  -16.6240  -10.6320 C.ar  178  PHE178     -0.0003
     92  CZ        23.3840  -17.7080  -11.5420 C.ar  178  PHE178     -0.0000
@<TRIPOS>BOND
     1     1     2    1
     2     2     3    1
     3     3     4    2
     4    12    10   ar
     5    54    52    1
     6    10    11   ar
     7    10     9    1
     8    52    51    1
     9    34    33    2
    10     9     6    1
    11    35    33   am
    12    51    53    1
    13    51    48    1
    14    33    32    1
    15    65    64   ar
    16    65    63   ar
    17     6     7    1
    18     6     5    1
    19    64    62   ar
    20     8     7    2
    21    77    76    1
    22    63    61   ar
    23    90    92   ar
    24    90    88   ar
    25    92    91   ar
    26    50    49    2
    27    48    49    1
    28    48    47    1
    29    79    80    1
    30    79    78    1
    31    45    46   ar
    32    45    43   ar
    33    46    44   ar
    34    32    31    1
    35    31    28    1
    36    81    80    2
    37    62    60   ar
    38    75    76   ar
    39    75    73   ar
    40    76    74   ar
    41    88    87   ar
    42    61    60   ar
    43    91    89   ar
    44    60    59    1
    45    43    41   ar
    46    44    42   ar
    47    27    28    1
    48    27    23   am
    49    87    89   ar
    50    87    86    1
    51    73    71   ar
    52    28    29    1
    53    74    72   ar
    54    25    22    1
    55    25    26    1
    56    16    15    2
    57    22    23    1
    58    22    21    1
    59    59    56    1
    60    86    83    1
    61    41    42   ar
    62    41    40    1
    63    23    24    2
    64    29    30    2
    65    71    72   ar
    66    71    70    1
    67    15    21   am
    68    15    14    1
    69    40    37    1
    70    56    55    1
    71    56    57    1
    72    83    82    1
    73    83    84    1
    74    39    38    2
    75    13    14    1
    76    17    14    1
    77    17    18    1
    78    38    37    1
    79    70    67    1
    80    57    66   am
    81    57    58    2
    82    66    67    1
    83    84    85    2
    84    19    18    1
    85    37    36    1
    86    67    68    1
    87    18    20    1
    88    68    69    2
