@<TRIPOS>MOLECULE
tmp/3uxhA02.pdb
 92 88 0 0 0
SMALL
GASTEIGER

@<TRIPOS>ATOM
      1  N         28.2690   -7.3940  -17.4910 N.3    68  GLY68      -0.1225
      2  CA        28.4840   -8.4430  -16.4720 C.3    68  GLY68       0.1811
      3  C         29.9670   -8.4900  -16.0200 C.2    68  GLY68       0.2280
      4  O         30.2740   -8.5120  -14.8120 O.2    68  GLY68      -0.2866
      5  N         18.7670   -6.1580  -11.2940 N.3   117  ASP117     -0.1239
      6  CA        19.8420   -6.2610  -12.3210 C.3   117  ASP117      0.1674
      7  C         21.1780   -5.6630  -11.8160 C.2   117  ASP117      0.2266
      8  O         22.2490   -6.1970  -12.0860 O.2   117  ASP117     -0.2867
      9  CB        19.4730   -5.4960  -13.5970 C.3   117  ASP117      0.1410
     10  CG        18.2630   -6.1000  -14.3570 C.2   117  ASP117      0.3668
     11  OD1       17.8000   -7.2170  -14.0560 O.co2 117  ASP117     -0.2456
     12  OD2       17.7070   -5.3320  -15.1940 O.co2 117  ASP117     -0.2456
     13  N         22.3060   -7.1140   -7.6420 N.3   120  LEU120     -0.1231
     14  CA        22.7350   -8.4930   -7.3970 C.3   120  LEU120      0.1693
     15  C         23.8340   -8.9020   -8.4160 C.2   120  LEU120      0.2592
     16  O         23.5990   -9.7720   -9.3010 O.2   120  LEU120     -0.2718
     17  CB        21.5070   -9.4590   -7.4890 C.3   120  LEU120      0.0284
     18  CG        20.3550   -9.1030   -6.5340 C.3   120  LEU120      0.0019
     19  CD1       19.0690   -9.9070   -6.8590 C.3   120  LEU120      0.0001
     20  CD2       20.7630   -9.2910   -5.0720 C.3   120  LEU120      0.0001
     21  N         25.0600   -8.3260   -8.2750 N.am  121  CYS121     -0.1956
     22  CA        26.0660   -8.5780   -9.3080 C.3   121  CYS121      0.1843
     23  C         26.9310   -9.7770   -8.9570 C.2   121  CYS121      0.2625
     24  O         26.9410  -10.2980   -7.8160 O.2   121  CYS121     -0.2714
     25  CB        26.9960   -7.3640   -9.5200 C.3   121  CYS121      0.0997
     26  SG        28.0670   -6.9530   -8.1020 S.3   121  CYS121     -0.0797
     27  N         27.6180  -10.2390  -10.0050 N.am  122  GLN122     -0.1977
     28  CA        28.5800  -11.2890   -9.8380 C.3   122  GLN122      0.1601
     29  C         29.6470  -10.8550   -8.8250 C.2   122  GLN122      0.2287
     30  O         30.1580   -9.7320   -8.8290 O.2   122  GLN122     -0.2864
     31  CB        29.1790  -11.7040  -11.1860 C.3   122  GLN122      0.0394
     32  CG        30.0770  -12.9510  -11.0860 C.3   122  GLN122      0.0908
     33  CD        30.4300  -13.5550  -12.4820 C.2   122  GLN122      0.2608
     34  OE1       29.8400  -13.1210  -13.5350 O.2   122  GLN122     -0.2717
     35  NE2       31.3930  -14.4700  -12.4900 N.am  122  GLN122     -0.0878
     36  N         26.4240  -13.9610   -6.1730 N.3   126  PHE126     -0.1298
     37  CA        26.7540  -15.3040   -6.6830 C.3   126  PHE126      0.1290
     38  C         28.1170  -15.2680   -7.3620 C.3   126  PHE126      0.2013
     39  O         28.5940  -14.1230   -7.7030 O.3   126  PHE126     -0.2188
     40  CB        25.6750  -15.7470   -7.7430 C.3   126  PHE126      0.0480
     41  CG        25.6730  -14.8890   -8.9830 C.ar  126  PHE126     -0.0206
     42  CD1       24.9400  -13.7150   -8.9590 C.ar  126  PHE126     -0.0042
     43  CD2       26.5060  -15.2260  -10.1180 C.ar  126  PHE126     -0.0042
     44  CE1       24.9960  -12.8640  -10.0730 C.ar  126  PHE126     -0.0003
     45  CE2       26.5720  -14.4240  -11.1910 C.ar  126  PHE126     -0.0003
     46  CZ        25.8070  -13.2440  -11.1540 C.ar  126  PHE126     -0.0000
     47  N         30.4450  -17.4030  -10.6490 N.3   128  ILE128     -0.1245
     48  CA        30.2240  -18.4010  -11.7030 C.3   128  ILE128      0.1561
     49  C         31.4690  -19.2350  -11.7490 C.2   128  ILE128      0.2260
     50  O         32.5380  -18.7190  -12.1000 O.2   128  ILE128     -0.2867
     51  CB        29.9800  -17.7900  -13.1290 C.3   128  ILE128      0.0252
     52  CG1       28.7040  -16.8520  -13.2520 C.3   128  ILE128      0.0019
     53  CG2       29.9300  -18.9370  -14.2030 C.3   128  ILE128      0.0019
     54  CD1       27.3670  -17.5290  -13.0760 C.3   128  ILE128      0.0001
     55  N         26.4950  -20.6020   -7.6120 N.3   131  PHE131     -0.1227
     56  CA        25.0810  -20.1350   -7.6520 C.3   131  PHE131      0.1736
     57  C         24.0510  -21.1570   -7.1620 C.2   131  PHE131      0.2595
     58  O         24.4810  -22.3110   -6.8530 O.2   131  PHE131     -0.2718
     59  CB        24.7000  -19.5220   -9.0450 C.3   131  PHE131      0.0547
     60  CG        25.0090  -20.4110  -10.2100 C.ar  131  PHE131     -0.0202
     61  CD1       24.0900  -21.4000  -10.5700 C.ar  131  PHE131     -0.0042
     62  CD2       26.2180  -20.2830  -10.9500 C.ar  131  PHE131     -0.0042
     63  CE1       24.3350  -22.2630  -11.6700 C.ar  131  PHE131     -0.0003
     64  CE2       26.4750  -21.1110  -12.0580 C.ar  131  PHE131     -0.0003
     65  CZ        25.5580  -22.1490  -12.4060 C.ar  131  PHE131     -0.0000
     66  N         22.7450  -20.8220   -7.1750 N.am  132  TYR132     -0.1976
     67  CA        21.6960  -21.6330   -6.5020 C.3   132  TYR132      0.1639
     68  C         22.1910  -22.0120   -5.1280 C.2   132  TYR132      0.2290
     69  O         22.4530  -21.0910   -4.3040 O.2   132  TYR132     -0.2864
     70  CB        21.2050  -22.8970   -7.3620 C.3   132  TYR132      0.0560
     71  CG        20.4100  -22.4900   -8.5640 C.ar  132  TYR132     -0.0198
     72  CD1       19.2390  -21.7780   -8.4070 C.ar  132  TYR132     -0.0009
     73  CD2       20.8740  -22.7640   -9.8430 C.ar  132  TYR132     -0.0009
     74  CE1       18.5060  -21.3340   -9.5400 C.ar  132  TYR132      0.0417
     75  CE2       20.1570  -22.3060  -10.9900 C.ar  132  TYR132      0.0417
     76  CZ        18.9820  -21.6360  -10.8020 C.ar  132  TYR132      0.1957
     77  OH        18.2570  -21.2090  -11.9010 O.3   132  TYR132     -0.2866
     78  N         14.6540  -18.1280  -10.5260 N.3   174  GLY174     -0.1225
     79  CA        15.7960  -17.5990  -11.3540 C.3   174  GLY174      0.1811
     80  C         16.5830  -16.5010  -10.6950 C.2   174  GLY174      0.2280
     81  O         17.7240  -16.2430  -11.1100 O.2   174  GLY174     -0.2866
     82  N         18.6970  -18.4550   -7.0760 N.3   178  PHE178     -0.1241
     83  CA        20.0400  -18.4220   -7.7760 C.3   178  PHE178      0.1605
     84  C         21.1160  -17.7290   -6.9300 C.2   178  PHE178      0.2264
     85  O         22.2770  -18.1360   -6.9310 O.2   178  PHE178     -0.2867
     86  CB        19.8920  -17.7070   -9.1430 C.3   178  PHE178      0.0534
     87  CG        21.1290  -17.7100   -9.9950 C.ar  178  PHE178     -0.0203
     88  CD1       21.3390  -18.7140  -10.9180 C.ar  178  PHE178     -0.0042
     89  CD2       22.0200  -16.6120   -9.9440 C.ar  178  PHE178     -0.0042
     90  CE1       22.5450  -18.7530  -11.7230 C.ar  178  PHE178     -0.0003
     91  CE2       23.1930  -16.5900  -10.7820 C.ar  178  PHE178     -0.0003
     92  CZ        23.4040  -17.6480  -11.6710 C.ar  178  PHE178     -0.0000
@<TRIPOS>BOND
     1     1     2    1
     2     2     3    1
     3     3     4    2
     4    12    10   ar
     5    10    11   ar
     6    10     9    1
     7    53    51    1
     8     9     6    1
     9    34    33    2
    10    52    51    1
    11    52    54    1
    12    51    48    1
    13    35    33   am
    14    33    32    1
    15    65    64   ar
    16    65    63   ar
    17     6     7    1
    18     6     5    1
    19    50    49    2
    20     8     7    2
    21    64    62   ar
    22    77    76    1
    23    49    48    1
    24    90    92   ar
    25    90    88   ar
    26    48    47    1
    27    92    91   ar
    28    63    61   ar
    29    79    80    1
    30    79    78    1
    31    45    46   ar
    32    45    43   ar
    33    31    32    1
    34    31    28    1
    35    46    44   ar
    36    81    80    2
    37    75    76   ar
    38    75    73   ar
    39    62    60   ar
    40    88    87   ar
    41    76    74   ar
    42    91    89   ar
    43    61    60   ar
    44    60    59    1
    45    43    41   ar
    46    44    42   ar
    47    27    28    1
    48    27    23   am
    49    87    89   ar
    50    87    86    1
    51    73    71   ar
    52    28    29    1
    53    74    72   ar
    54    25    22    1
    55    25    26    1
    56    22    23    1
    57    22    21    1
    58    16    15    2
    59    86    83    1
    60    59    56    1
    61    41    42   ar
    62    41    40    1
    63    23    24    2
    64    30    29    2
    65    71    72   ar
    66    71    70    1
    67    15    21   am
    68    15    14    1
    69    83    82    1
    70    83    84    1
    71    40    37    1
    72    39    38    1
    73    56    55    1
    74    56    57    1
    75    13    14    1
    76    17    14    1
    77    17    18    1
    78    70    67    1
    79    38    37    1
    80    66    57   am
    81    66    67    1
    82    57    58    2
    83    85    84    2
    84    19    18    1
    85    37    36    1
    86    18    20    1
    87    67    68    1
    88    68    69    2
