@<TRIPOS>MOLECULE
tmp/3uxkA00.pdb
 139 127 0 0 0
SMALL
GASTEIGER

@<TRIPOS>ATOM
      1  N         49.4930  -46.4350   23.0700 N.3    20  VAL20      -0.1245
      2  CA        50.3930  -47.5320   22.7980 C.3    20  VAL20       0.1561
      3  C         51.8320  -47.0270   22.7120 C.2    20  VAL20       0.2260
      4  O         52.3220  -46.6730   21.6340 O.2    20  VAL20      -0.2867
      5  CB        49.9800  -48.3360   21.5550 C.3    20  VAL20       0.0252
      6  CG1       50.9030  -49.5470   21.3850 C.3    20  VAL20       0.0019
      7  CG2       48.5390  -48.7910   21.7090 C.3    20  VAL20       0.0019
      8  N         55.6620  -47.4140   22.4440 N.3    22  THR22      -0.1218
      9  CA        56.6520  -48.3810   21.9380 C.3    22  THR22       0.1862
     10  C         58.0740  -47.8220   22.1320 C.2    22  THR22       0.2287
     11  O         58.2500  -46.6260   22.3870 O.2    22  THR22      -0.2866
     12  CB        56.4310  -48.8020   20.4400 C.3    22  THR22       0.1770
     13  OG1       57.1060  -47.8930   19.5660 O.3    22  THR22      -0.2211
     14  CG2       54.9470  -48.8610   20.0530 C.3    22  THR22       0.0375
     15  N         52.0220  -44.3270   20.0030 N.3    27  VAL27      -0.1245
     16  CA        50.7730  -44.1700   19.2630 C.3    27  VAL27       0.1561
     17  C         49.7190  -43.7040   20.2920 C.2    27  VAL27       0.2260
     18  O         49.1470  -44.5170   21.0290 O.2    27  VAL27      -0.2867
     19  CB        50.3860  -45.4920   18.5440 C.3    27  VAL27       0.0252
     20  CG1       49.0060  -45.4060   17.9120 C.3    27  VAL27       0.0019
     21  CG2       51.4180  -45.8210   17.4790 C.3    27  VAL27       0.0019
     22  N         44.1200  -49.1370    9.7630 N.3    50  PHE50      -0.1241
     23  CA        44.8490  -48.4410   10.8260 C.3    50  PHE50       0.1605
     24  C         45.9760  -47.7030   10.1110 C.2    50  PHE50       0.2264
     25  O         46.7300  -48.3220    9.3710 O.2    50  PHE50      -0.2867
     26  CB        45.3680  -49.4560   11.8540 C.3    50  PHE50       0.0534
     27  CG        46.2540  -48.8660   12.9480 C.ar   50  PHE50      -0.0203
     28  CD1       45.9050  -47.7070   13.6250 C.ar   50  PHE50      -0.0042
     29  CD2       47.4160  -49.5280   13.3380 C.ar   50  PHE50      -0.0042
     30  CE1       46.7200  -47.2000   14.6430 C.ar   50  PHE50      -0.0003
     31  CE2       48.2260  -49.0400   14.3720 C.ar   50  PHE50      -0.0003
     32  CZ        47.8800  -47.8640   15.0220 C.ar   50  PHE50      -0.0000
     33  N         48.3880  -45.8340   11.6950 N.3    52  TYR52      -0.1241
     34  CA        49.5570  -45.8080   12.5860 C.3    52  TYR52       0.1605
     35  C         49.9200  -44.4740   13.1720 C.2    52  TYR52       0.2264
     36  O         50.0130  -44.3350   14.3450 O.2    52  TYR52      -0.2867
     37  CB        50.7880  -46.4060   11.9040 C.3    52  TYR52       0.0534
     38  CG        50.7910  -47.8790   11.8980 C.ar   52  TYR52      -0.0201
     39  CD1       51.2910  -48.5230   12.9370 C.ar   52  TYR52      -0.0009
     40  CD2       50.2070  -48.6170   10.8990 C.ar   52  TYR52      -0.0009
     41  CE1       51.2910  -49.8370   13.0080 C.ar   52  TYR52       0.0417
     42  CE2       50.1940  -49.9820   10.9820 C.ar   52  TYR52       0.0417
     43  CZ        50.7650  -50.5520   12.0730 C.ar   52  TYR52       0.1957
     44  OH        50.8730  -51.8640   12.3100 O.3    52  TYR52      -0.2866
     45  N         50.8180  -59.3920   26.4460 N.3   162  LYS162     -0.1245
     46  CA        52.0240  -58.9460   25.7570 C.3   162  LYS162      0.1561
     47  C         52.4030  -57.5670   26.2640 C.2   162  LYS162      0.2260
     48  O         51.5490  -56.6930   26.4140 O.2   162  LYS162     -0.2867
     49  CB        51.8080  -58.8860   24.2350 C.3   162  LYS162      0.0271
     50  CG        53.0710  -58.5560   23.4330 C.3   162  LYS162      0.0035
     51  CD        52.9380  -58.9280   21.9480 C.3   162  LYS162      0.0206
     52  CE        52.2160  -57.8440   21.1300 C.3   162  LYS162      0.1093
     53  NZ        51.9990  -58.3620   19.7450 N.3   162  LYS162     -0.1314
     54  N         55.3090  -54.3170   25.5900 N.3   164  LYS164     -0.1245
     55  CA        56.2970  -53.8020   24.6600 C.3   164  LYS164      0.1561
     56  C         57.5240  -53.3840   25.4530 C.2   164  LYS164      0.2260
     57  O         57.3980  -52.7290   26.4840 O.2   164  LYS164     -0.2867
     58  CB        55.7080  -52.6710   23.8250 C.3   164  LYS164      0.0271
     59  CG        54.6910  -53.2340   22.8390 C.3   164  LYS164      0.0035
     60  CD        53.9960  -52.1580   22.0190 C.3   164  LYS164      0.0206
     61  CE        52.8600  -52.7630   21.2110 C.3   164  LYS164      0.1093
     62  NZ        53.1450  -54.1420   20.7210 N.3   164  LYS164     -0.1314
     63  N         57.5520  -57.6240   23.0180 N.3   193  ASP193     -0.1239
     64  CA        57.6350  -57.0130   21.7040 C.3   193  ASP193      0.1674
     65  C         58.6770  -55.8850   21.7020 C.2   193  ASP193      0.2266
     66  O         58.5510  -54.9080   22.4360 O.2   193  ASP193     -0.2867
     67  CB        56.2280  -56.5130   21.3050 C.3   193  ASP193      0.1410
     68  CG        56.1620  -55.9800   19.8730 C.2   193  ASP193      0.3668
     69  OD1       55.0140  -55.7310   19.4030 O.co2 193  ASP193     -0.2456
     70  OD2       57.2410  -55.7920   19.2280 O.co2 193  ASP193     -0.2456
     71  N         59.4010  -54.0640   18.9220 N.3   195  ASN195     -0.1240
     72  CA        59.0430  -53.0640   17.8960 C.3   195  ASN195      0.1653
     73  C         60.2610  -52.5750   17.1090 C.2   195  ASN195      0.2266
     74  O         60.4200  -51.3640   16.9250 O.2   195  ASN195     -0.2867
     75  CB        58.3170  -51.8620   18.5330 C.3   195  ASN195      0.1155
     76  CG        56.9190  -52.2220   19.0110 C.2   195  ASN195      0.2627
     77  OD1       56.7000  -52.3590   20.2130 O.2   195  ASN195     -0.2716
     78  ND2       55.9880  -52.4570   18.0700 N.am  195  ASN195     -0.0877
     79  N         59.2180  -60.6700   19.8440 N.3   219  GLU219     -0.1245
     80  CA        58.5920  -60.1580   18.6370 C.3   219  GLU219      0.1567
     81  C         59.3490  -58.9480   18.0650 C.2   219  GLU219      0.2260
     82  O         59.7420  -58.0230   18.8080 O.2   219  GLU219     -0.2867
     83  CB        57.1440  -59.7840   18.9460 C.3   219  GLU219      0.0388
     84  CG        56.3210  -59.2530   17.7690 C.3   219  GLU219      0.1160
     85  CD        54.9040  -58.8850   18.1950 C.2   219  GLU219      0.3649
     86  OE1       54.3730  -57.8690   17.6920 O.co2 219  GLU219     -0.2457
     87  OE2       54.3060  -59.5970   19.0350 O.co2 219  GLU219     -0.2457
     88  N         53.7540  -58.7070   11.4370 N.3   245  GLU245     -0.1245
     89  CA        52.7900  -57.6010   11.3780 C.3   245  GLU245      0.1567
     90  C         53.1010  -56.5970   10.2780 C.2   245  GLU245      0.2260
     91  O         52.2110  -55.8730    9.8360 O.2   245  GLU245     -0.2867
     92  CB        52.7110  -56.8540   12.7030 C.3   245  GLU245      0.0388
     93  CG        53.8940  -55.9610   12.9970 C.3   245  GLU245      0.1160
     94  CD        53.8640  -55.5280   14.4330 C.2   245  GLU245      0.3649
     95  OE1       53.9090  -56.3980   15.3150 O.co2 245  GLU245     -0.2457
     96  OE2       53.7670  -54.3180   14.6940 O.co2 245  GLU245     -0.2457
     97  N         47.6170  -59.9810   14.1170 N.3   295  HIS295     -0.1226
     98  CA        48.0640  -58.6750   14.6130 C.3   295  HIS295      0.1752
     99  C         46.9530  -57.6870   14.4070 C.2   295  HIS295      0.2595
    100  O         46.5460  -57.4440   13.2520 O.2   295  HIS295     -0.2718
    101  CB        49.2810  -58.1900   13.8480 C.3   295  HIS295      0.0759
    102  CG        49.7450  -56.8190   14.2660 C.ar  295  HIS295      0.0818
    103  ND1       49.5710  -55.7100   13.4820 N.ar  295  HIS295     -0.2268
    104  CD2       50.4060  -56.3890   15.4160 C.ar  295  HIS295      0.1154
    105  CE1       50.1080  -54.6400   14.0950 C.ar  295  HIS295      0.1986
    106  NE2       50.6230  -55.0500   15.2810 N.ar  295  HIS295     -0.2212
    107  N         46.4740  -57.1150   15.5180 N.am  296  LEU296     -0.1980
    108  CA        45.3300  -56.1800   15.5280 C.3   296  LEU296      0.1596
    109  C         44.0980  -56.7490   14.7920 C.2   296  LEU296      0.2287
    110  O         43.9980  -57.9690   14.5890 O.2   296  LEU296     -0.2864
    111  CB        45.7530  -54.8090   14.9730 C.3   296  LEU296      0.0297
    112  CG        46.9440  -54.1630   15.6850 C.3   296  LEU296      0.0022
    113  CD1       47.3660  -52.9050   14.9320 C.3   296  LEU296      0.0001
    114  CD2       46.6490  -53.8480   17.1570 C.3   296  LEU296      0.0001
    115  N         45.5800  -61.5320   18.8910 N.3   315  GLU315     -0.1245
    116  CA        45.9930  -60.3440   19.6150 C.3   315  GLU315      0.1567
    117  C         44.7530  -59.5270   19.9560 C.2   315  GLU315      0.2260
    118  O         44.0060  -59.0840   19.0660 O.2   315  GLU315     -0.2867
    119  CB        46.9820  -59.4740   18.8360 C.3   315  GLU315      0.0388
    120  CG        47.3780  -58.2400   19.6640 C.3   315  GLU315      0.1160
    121  CD        48.3430  -57.3040   18.9470 C.2   315  GLU315      0.3649
    122  OE1       48.2690  -57.2280   17.7020 O.co2 315  GLU315     -0.2457
    123  OE2       49.1410  -56.6170   19.6290 O.co2 315  GLU315     -0.2457
    124  N         43.8860  -56.2050   21.0480 N.3   317  LEU317     -0.1245
    125  CA        44.1920  -54.7990   21.2190 C.3   317  LEU317      0.1561
    126  C         43.0530  -54.0560   20.5490 C.2   317  LEU317      0.2260
    127  O         42.9670  -53.9950   19.3230 O.2   317  LEU317     -0.2867
    128  CB        45.5530  -54.4630   20.6090 C.3   317  LEU317      0.0270
    129  CG        46.2900  -53.2720   21.2440 C.3   317  LEU317      0.0019
    130  CD1       47.7120  -53.1790   20.7200 C.3   317  LEU317      0.0001
    131  CD2       45.5630  -51.9530   20.9930 C.3   317  LEU317      0.0001
    132  N         41.6450  -51.4270   19.1430 N.3   319  LEU319     -0.1245
    133  CA        41.8160  -50.0970   18.5610 C.3   319  LEU319      0.1561
    134  C         40.5110  -49.4440   18.1240 C.2   319  LEU319      0.2260
    135  O         40.3860  -48.2250   18.2160 O.2   319  LEU319     -0.2867
    136  CB        42.7440  -50.1360   17.3430 C.3   319  LEU319      0.0270
    137  CG        44.2480  -50.2440   17.5140 C.3   319  LEU319      0.0019
    138  CD1       44.8330  -50.0700   16.1250 C.3   319  LEU319      0.0001
    139  CD2       44.7870  -49.1980   18.4760 C.3   319  LEU319      0.0001
@<TRIPOS>BOND
     1    25    24    2
     2    22    23    1
     3    91    90    2
     4    24    23    1
     5    90    89    1
     6    23    26    1
     7    40    42   ar
     8    40    38   ar
     9    42    43   ar
    10    89    88    1
    11    89    92    1
    12    33    34    1
    13    26    27    1
    14    38    37    1
    15    38    39   ar
    16    37    34    1
    17    43    44    1
    18    43    41   ar
    19    34    35    1
    20    92    93    1
    21    39    41   ar
    22    27    29   ar
    23    27    28   ar
    24    93    94    1
    25    35    36    2
    26   100    99    2
    27    29    31   ar
    28   103   105   ar
    29   103   102   ar
    30    28    30   ar
    31   101   102    1
    32   101    98    1
    33   105   106   ar
    34    97    98    1
    35   102   104   ar
    36    31    32   ar
    37    99    98    1
    38    99   107   am
    39    94    96   ar
    40    94    95   ar
    41   110   109    2
    42    30    32   ar
    43   109   108    1
    44   113   112    1
    45   111   108    1
    46   111   112    1
    47   106   104   ar
    48   107   108    1
    49   112   114    1
    50   138   137    1
    51    74    73    2
    52    73    72    1
    53   136   137    1
    54   136   133    1
    55    21    19    1
    56   137   139    1
    57    86    85   ar
    58   122   121   ar
    59    84    85    1
    60    84    83    1
    61    72    75    1
    62    72    71    1
    63    20    19    1
    64    81    80    1
    65    81    82    2
    66    78    76   am
    67   134   135    2
    68   134   133    1
    69    85    87   ar
    70    75    76    1
    71    19    16    1
    72   133   132    1
    73    80    83    1
    74    80    79    1
    75   119   116    1
    76   119   120    1
    77   115   116    1
    78   121   123   ar
    79   121   120    1
    80    76    77    2
    81   118   117    2
    82    70    68   ar
    83    16    15    1
    84    16    17    1
    85   127   126    2
    86    69    68   ar
    87    13    12    1
    88   116   117    1
    89    53    52    1
    90    68    67    1
    91    14    12    1
    92    17    18    2
    93    12     9    1
    94   126   125    1
    95   128   125    1
    96   128   129    1
    97   130   129    1
    98    62    61    1
    99   131   129    1
   100   124   125    1
   101    52    51    1
   102    61    60    1
   103    67    64    1
   104     6     5    1
   105     5     7    1
   106     5     2    1
   107     4     3    2
   108    65    64    1
   109    65    66    2
   110    64    63    1
   111     9    10    1
   112     9     8    1
   113    51    50    1
   114    60    59    1
   115    10    11    2
   116     3     2    1
   117     2     1    1
   118    59    58    1
   119    50    49    1
   120    58    55    1
   121    49    46    1
   122    55    56    1
   123    55    54    1
   124    56    57    2
   125    46    47    1
   126    46    45    1
   127    47    48    2
