@<TRIPOS>MOLECULE
tmp/3uxlB00.pdb
 139 127 0 0 0
SMALL
GASTEIGER

@<TRIPOS>ATOM
      1  N        -49.1520  -46.7060  -28.2540 N.3    20  VAL20      -0.1245
      2  CA       -50.0740  -47.7940  -27.9730 C.3    20  VAL20       0.1561
      3  C        -51.4820  -47.2330  -27.9070 C.2    20  VAL20       0.2260
      4  O        -51.9450  -46.7810  -26.8220 O.2    20  VAL20      -0.2867
      5  CB       -49.7090  -48.5050  -26.6610 C.3    20  VAL20       0.0252
      6  CG1      -50.6520  -49.6990  -26.4050 C.3    20  VAL20       0.0019
      7  CG2      -48.2470  -48.9550  -26.7260 C.3    20  VAL20       0.0019
      8  N        -55.4140  -47.6100  -27.7170 N.3    22  THR22      -0.1218
      9  CA       -56.3990  -48.6070  -27.2240 C.3    22  THR22       0.1862
     10  C        -57.7980  -48.0360  -27.3700 C.2    22  THR22       0.2287
     11  O        -57.9400  -46.8300  -27.5680 O.2    22  THR22      -0.2866
     12  CB       -56.2140  -48.9970  -25.7150 C.3    22  THR22       0.1770
     13  OG1      -56.7610  -47.9610  -24.8590 O.3    22  THR22      -0.2211
     14  CG2      -54.7550  -49.2980  -25.3680 C.3    22  THR22       0.0375
     15  N        -51.6630  -44.4270  -25.1790 N.3    27  VAL27      -0.1245
     16  CA       -50.4400  -44.2550  -24.4390 C.3    27  VAL27       0.1561
     17  C        -49.3220  -43.9280  -25.4660 C.2    27  VAL27       0.2260
     18  O        -48.8300  -44.8180  -26.1800 O.2    27  VAL27      -0.2867
     19  CB       -50.1700  -45.5460  -23.6160 C.3    27  VAL27       0.0252
     20  CG1      -48.8100  -45.5210  -22.9650 C.3    27  VAL27       0.0019
     21  CG2      -51.2530  -45.7170  -22.5420 C.3    27  VAL27       0.0019
     22  N        -43.9030  -49.2640  -15.0230 N.3    50  PHE50      -0.1241
     23  CA       -44.6210  -48.5580  -16.0990 C.3    50  PHE50       0.1605
     24  C        -45.7540  -47.8350  -15.3960 C.2    50  PHE50       0.2264
     25  O        -46.4720  -48.4480  -14.6320 O.2    50  PHE50      -0.2867
     26  CB       -45.1590  -49.5640  -17.1010 C.3    50  PHE50       0.0534
     27  CG       -45.9870  -48.9780  -18.1980 C.ar   50  PHE50      -0.0203
     28  CD1      -45.5800  -47.8380  -18.8810 C.ar   50  PHE50      -0.0042
     29  CD2      -47.1640  -49.6310  -18.6170 C.ar   50  PHE50      -0.0042
     30  CE1      -46.3390  -47.3280  -19.9220 C.ar   50  PHE50      -0.0003
     31  CE2      -47.9250  -49.1230  -19.6690 C.ar   50  PHE50      -0.0003
     32  CZ       -47.5030  -47.9630  -20.3210 C.ar   50  PHE50      -0.0000
     33  N        -48.1140  -45.9050  -16.9540 N.3    52  TYR52      -0.1241
     34  CA       -49.2580  -45.8920  -17.8550 C.3    52  TYR52       0.1605
     35  C        -49.4670  -44.5330  -18.4900 C.2    52  TYR52       0.2264
     36  O        -49.3830  -44.3910  -19.7150 O.2    52  TYR52      -0.2867
     37  CB       -50.5370  -46.4340  -17.1780 C.3    52  TYR52       0.0534
     38  CG       -50.5650  -47.9470  -17.1200 C.ar   52  TYR52      -0.0201
     39  CD1      -51.1290  -48.6670  -18.1620 C.ar   52  TYR52      -0.0009
     40  CD2      -50.0010  -48.6670  -16.0460 C.ar   52  TYR52      -0.0009
     41  CE1      -51.1550  -50.0470  -18.1550 C.ar   52  TYR52       0.0417
     42  CE2      -50.0340  -50.0800  -16.0260 C.ar   52  TYR52       0.0417
     43  CZ       -50.6060  -50.7530  -17.0990 C.ar   52  TYR52       0.1957
     44  OH       -50.6880  -52.1510  -17.1730 O.3    52  TYR52      -0.2866
     45  N        -50.5380  -59.6190  -31.5750 N.3   162  LYS162     -0.1245
     46  CA       -51.7510  -59.1920  -30.9030 C.3   162  LYS162      0.1561
     47  C        -52.1070  -57.8320  -31.3950 C.2   162  LYS162      0.2260
     48  O        -51.2470  -56.9550  -31.4750 O.2   162  LYS162     -0.2867
     49  CB       -51.5410  -59.1100  -29.3880 C.3   162  LYS162      0.0271
     50  CG       -52.7630  -58.5880  -28.6030 C.3   162  LYS162      0.0035
     51  CD       -52.6440  -58.9750  -27.1140 C.3   162  LYS162      0.0206
     52  CE       -51.8450  -57.9930  -26.2460 C.3   162  LYS162      0.1093
     53  NZ       -51.8170  -58.5340  -24.8330 N.3   162  LYS162     -0.1314
     54  N        -55.0260  -54.5480  -30.8240 N.3   164  LYS164     -0.1245
     55  CA       -56.0220  -54.0090  -29.8720 C.3   164  LYS164      0.1561
     56  C        -57.1710  -53.5350  -30.7310 C.2   164  LYS164      0.2260
     57  O        -56.9350  -52.9170  -31.7960 O.2   164  LYS164     -0.2867
     58  CB       -55.4220  -52.8870  -29.0220 C.3   164  LYS164      0.0271
     59  CG       -54.2460  -53.4170  -28.1810 C.3   164  LYS164      0.0035
     60  CD       -53.7360  -52.3940  -27.1750 C.3   164  LYS164      0.0206
     61  CE       -52.6330  -52.9390  -26.2810 C.3   164  LYS164      0.1093
     62  NZ       -52.7010  -54.3370  -25.7920 N.3   164  LYS164     -0.1314
     63  N        -57.3550  -57.7370  -28.2640 N.3   193  ASP193     -0.1239
     64  CA       -57.4420  -57.1050  -26.9730 C.3   193  ASP193      0.1674
     65  C        -58.4310  -55.9510  -27.0350 C.2   193  ASP193      0.2266
     66  O        -58.2410  -55.0080  -27.7950 O.2   193  ASP193     -0.2867
     67  CB       -56.0200  -56.6740  -26.5430 C.3   193  ASP193      0.1410
     68  CG       -55.9590  -56.0640  -25.1310 C.2   193  ASP193      0.3668
     69  OD1      -54.8110  -55.7790  -24.6950 O.co2 193  ASP193     -0.2456
     70  OD2      -57.0320  -55.7780  -24.5070 O.co2 193  ASP193     -0.2456
     71  N        -59.2180  -54.1310  -24.2500 N.3   195  ASN195     -0.1240
     72  CA       -58.9160  -53.0810  -23.2900 C.3   195  ASN195      0.1653
     73  C        -60.1430  -52.5870  -22.5100 C.2   195  ASN195      0.2266
     74  O        -60.3200  -51.3900  -22.3360 O.2   195  ASN195     -0.2867
     75  CB       -58.1880  -51.9220  -24.0170 C.3   195  ASN195      0.1155
     76  CG       -56.7860  -52.3070  -24.4030 C.2   195  ASN195      0.2627
     77  OD1      -56.5060  -52.5180  -25.5930 O.2   195  ASN195     -0.2716
     78  ND2      -55.9020  -52.5020  -23.3810 N.am  195  ASN195     -0.0877
     79  N        -58.9830  -60.6990  -25.1670 N.3   219  GLU219     -0.1245
     80  CA       -58.3740  -60.2070  -23.9340 C.3   219  GLU219      0.1567
     81  C        -59.1800  -59.0360  -23.3400 C.2   219  GLU219      0.2260
     82  O        -59.5950  -58.1370  -24.0790 O.2   219  GLU219     -0.2867
     83  CB       -56.9110  -59.7960  -24.2300 C.3   219  GLU219      0.0388
     84  CG       -56.1210  -59.2090  -23.0810 C.3   219  GLU219      0.1160
     85  CD       -54.6690  -58.9220  -23.4670 C.2   219  GLU219      0.3649
     86  OE1      -54.1050  -59.6790  -24.2860 O.co2 219  GLU219     -0.2457
     87  OE2      -54.0620  -57.9540  -22.9160 O.co2 219  GLU219     -0.2457
     88  N        -53.5320  -58.8560  -16.7370 N.3   245  GLU245     -0.1245
     89  CA       -52.5320  -57.7950  -16.6920 C.3   245  GLU245      0.1567
     90  C        -52.8770  -56.7930  -15.5930 C.2   245  GLU245      0.2260
     91  O        -52.0040  -56.0780  -15.1480 O.2   245  GLU245     -0.2867
     92  CB       -52.4630  -57.0240  -17.9930 C.3   245  GLU245      0.0388
     93  CG       -53.5220  -55.9610  -18.1640 C.3   245  GLU245      0.1160
     94  CD       -53.6270  -55.5820  -19.6380 C.2   245  GLU245      0.3649
     95  OE1      -53.7980  -56.5000  -20.4620 O.co2 245  GLU245     -0.2457
     96  OE2      -53.5070  -54.3970  -19.9810 O.co2 245  GLU245     -0.2457
     97  N        -47.4200  -60.1350  -19.3590 N.3   295  HIS295     -0.1226
     98  CA       -47.8340  -58.8140  -19.8520 C.3   295  HIS295      0.1752
     99  C        -46.7110  -57.8010  -19.6500 C.2   295  HIS295      0.2595
    100  O        -46.3090  -57.5100  -18.4790 O.2   295  HIS295     -0.2718
    101  CB       -49.0560  -58.3300  -19.1020 C.3   295  HIS295      0.0759
    102  CG       -49.4780  -56.9190  -19.4730 C.ar  295  HIS295      0.0818
    103  ND1      -49.2630  -55.8340  -18.6510 N.ar  295  HIS295     -0.2268
    104  CD2      -50.1500  -56.4450  -20.5650 C.ar  295  HIS295      0.1154
    105  CE1      -49.7610  -54.7400  -19.2280 C.ar  295  HIS295      0.1986
    106  NE2      -50.3220  -55.1060  -20.3890 N.ar  295  HIS295     -0.2212
    107  N        -46.1990  -57.2540  -20.7610 N.am  296  LEU296     -0.1980
    108  CA       -45.0340  -56.3530  -20.7470 C.3   296  LEU296      0.1596
    109  C        -43.8570  -56.9320  -19.9710 C.2   296  LEU296      0.2287
    110  O        -43.7820  -58.1380  -19.7600 O.2   296  LEU296     -0.2864
    111  CB       -45.4230  -54.9530  -20.2510 C.3   296  LEU296      0.0297
    112  CG       -46.6430  -54.2860  -20.9320 C.3   296  LEU296      0.0022
    113  CD1      -47.0600  -52.9890  -20.2380 C.3   296  LEU296      0.0001
    114  CD2      -46.4160  -54.0290  -22.4360 C.3   296  LEU296      0.0001
    115  N        -45.3080  -61.8170  -24.0060 N.3   315  GLU315     -0.1245
    116  CA       -45.6970  -60.6280  -24.7240 C.3   315  GLU315      0.1567
    117  C        -44.4870  -59.7630  -25.0410 C.2   315  GLU315      0.2260
    118  O        -43.7510  -59.3240  -24.1380 O.2   315  GLU315     -0.2867
    119  CB       -46.7220  -59.7930  -23.9780 C.3   315  GLU315      0.0388
    120  CG       -47.0810  -58.5510  -24.7920 C.3   315  GLU315      0.1160
    121  CD       -48.0280  -57.6110  -24.0770 C.2   315  GLU315      0.3649
    122  OE1      -47.9240  -57.5220  -22.8020 O.co2 315  GLU315     -0.2457
    123  OE2      -48.8190  -56.9450  -24.7960 O.co2 315  GLU315     -0.2457
    124  N        -43.5840  -56.3620  -26.2280 N.3   317  LEU317     -0.1245
    125  CA       -43.8980  -54.9590  -26.4750 C.3   317  LEU317      0.1561
    126  C        -42.8010  -54.2540  -25.7590 C.2   317  LEU317      0.2260
    127  O        -42.7600  -54.2650  -24.5130 O.2   317  LEU317     -0.2867
    128  CB       -45.2450  -54.5700  -25.8650 C.3   317  LEU317      0.0270
    129  CG       -45.9630  -53.3760  -26.5290 C.3   317  LEU317      0.0019
    130  CD1      -47.3920  -53.2410  -25.9930 C.3   317  LEU317      0.0001
    131  CD2      -45.1640  -52.0890  -26.3460 C.3   317  LEU317      0.0001
    132  N        -41.2960  -51.6110  -24.3480 N.3   319  LEU319     -0.1245
    133  CA       -41.4740  -50.2880  -23.7320 C.3   319  LEU319      0.1561
    134  C        -40.1810  -49.6310  -23.2420 C.2   319  LEU319      0.2260
    135  O        -40.0540  -48.4160  -23.3190 O.2   319  LEU319     -0.2867
    136  CB       -42.4210  -50.3490  -22.5330 C.3   319  LEU319      0.0270
    137  CG       -43.9230  -50.5400  -22.7170 C.3   319  LEU319      0.0019
    138  CD1      -44.4980  -50.5140  -21.3200 C.3   319  LEU319      0.0001
    139  CD2      -44.5680  -49.5060  -23.6260 C.3   319  LEU319      0.0001
@<TRIPOS>BOND
     1    57    56    2
     2    45    46    1
     3    48    47    2
     4    47    46    1
     5    46    49    1
     6    54    55    1
     7    56    55    1
     8    55    58    1
     9    49    50    1
    10    58    59    1
    11    50    51    1
    12    63    64    1
    13     1     2    1
    14    59    60    1
    15     2     3    1
    16     2     5    1
    17     3     4    2
    18    66    65    2
    19     8     9    1
    20    11    10    2
    21    10     9    1
    22     9    12    1
    23    60    61    1
    24    51    52    1
    25    65    64    1
    26    64    67    1
    27     7     5    1
    28     5     6    1
    29    67    68    1
    30   129   131    1
    31   129   130    1
    32   129   128    1
    33   125   124    1
    34   125   128    1
    35   125   126    1
    36    61    62    1
    37    52    53    1
    38    18    17    2
    39   126   127    2
    40    12    14    1
    41    12    13    1
    42    77    76    2
    43    17    16    1
    44    15    16    1
    45    79    80    1
    46    68    69   ar
    47    68    70   ar
    48   117   116    1
    49   117   118    2
    50   123   121   ar
    51   120   121    1
    52   120   119    1
    53   116   115    1
    54   116   119    1
    55    16    19    1
    56    76    75    1
    57    76    78   am
    58   132   133    1
    59    86    85   ar
    60    71    72    1
    61    83    80    1
    62    83    84    1
    63    82    81    2
    64   121   122   ar
    65    75    72    1
    66    80    81    1
    67   133   134    1
    68   133   136    1
    69   139   137    1
    70    19    20    1
    71    19    21    1
    72    85    84    1
    73    85    87   ar
    74   135   134    2
    75    72    73    1
    76   137   136    1
    77   137   138    1
    78    73    74    2
    79   114   112    1
    80   112   111    1
    81   112   113    1
    82   107   108    1
    83   107    99   am
    84   108   111    1
    85   108   109    1
    86   104   106   ar
    87   104   102   ar
    88    95    94   ar
    89   106   105   ar
    90    32    30   ar
    91    32    31   ar
    92    96    94   ar
    93   109   110    2
    94    30    28   ar
    95    98    99    1
    96    98    97    1
    97    98   101    1
    98    36    35    2
    99    31    29   ar
   100    99   100    2
   101    94    93    1
   102   102   101    1
   103   102   103   ar
   104   105   103   ar
   105    28    27   ar
   106    29    27   ar
   107    35    34    1
   108    27    26    1
   109    93    92    1
   110    39    41   ar
   111    39    38   ar
   112    41    43   ar
   113    92    89    1
   114    34    37    1
   115    34    33    1
   116    37    38    1
   117    44    43    1
   118    38    40   ar
   119    26    23    1
   120    43    42   ar
   121    88    89    1
   122    89    90    1
   123    23    24    1
   124    23    22    1
   125    40    42   ar
   126    90    91    2
   127    24    25    2
