@<TRIPOS>MOLECULE
tmp/3uxmC00.pdb
 145 138 0 0 0
SMALL
GASTEIGER

@<TRIPOS>ATOM
      1  N        -32.6160  -17.6650   36.8250 N.3    11  GLU11      -0.1245
      2  CA       -31.3930  -17.3450   36.0900 C.3    11  GLU11       0.1567
      3  C        -31.3940  -17.9300   34.6580 C.2    11  GLU11       0.2260
      4  O        -31.5690  -19.1510   34.4770 O.2    11  GLU11      -0.2867
      5  CB       -30.1740  -17.8650   36.8640 C.3    11  GLU11       0.0388
      6  CG       -28.8510  -17.4650   36.2570 C.3    11  GLU11       0.1160
      7  CD       -28.7130  -15.9610   36.2160 C.2    11  GLU11       0.3649
      8  OE1      -29.1900  -15.2940   37.1690 O.co2  11  GLU11      -0.2457
      9  OE2      -28.1630  -15.4580   35.2180 O.co2  11  GLU11      -0.2457
     10  N        -31.8770   -4.0450   35.4880 N.3    35  GLU35      -0.1231
     11  CA       -31.2630   -3.9080   36.8270 C.3    35  GLU35       0.1684
     12  C        -30.4720   -5.1740   37.2140 C.2    35  GLU35       0.2434
     13  O        -30.7280   -6.2530   36.6990 O.2    35  GLU35      -0.2733
     14  CB       -32.3560   -3.6690   37.8750 C.3    35  GLU35       0.0402
     15  CG       -32.9700   -2.2750   37.7730 C.3    35  GLU35       0.1161
     16  CD       -33.5140   -1.7670   39.0880 C.2    35  GLU35       0.3649
     17  OE1      -33.5720   -2.5710   40.0460 O.co2  35  GLU35      -0.2457
     18  OE2      -33.8770   -0.5620   39.1510 O.co2  35  GLU35      -0.2457
     19  N        -29.4700   -5.0330   38.0820 N.am   36  PRO36      -0.2729
     20  CA       -28.9340   -3.7160   38.4400 C.3    36  PRO36       0.1401
     21  C        -28.2490   -3.0580   37.2240 C.2    36  PRO36       0.2269
     22  O        -27.8070   -3.7610   36.2890 O.2    36  PRO36      -0.2865
     23  CB       -27.8480   -4.0580   39.4940 C.3    36  PRO36       0.0296
     24  CG       -27.4030   -5.4950   39.1180 C.3    36  PRO36       0.0237
     25  CD       -28.7190   -6.1500   38.7100 C.3    36  PRO36       0.0939
     26  N        -23.6690   -2.5590   39.1030 N.3    46  ARG46      -0.1245
     27  CA       -23.6920   -3.8510   38.3950 C.3    46  ARG46       0.1563
     28  C        -22.4160   -4.6700   38.3480 C.2    46  ARG46       0.2260
     29  O        -22.4250   -5.8490   38.7330 O.2    46  ARG46      -0.2867
     30  CB       -24.3620   -3.7360   36.9930 C.3    46  ARG46       0.0307
     31  CG       -24.4880   -5.0840   36.2720 C.3    46  ARG46       0.0489
     32  CD       -25.1220   -4.9150   34.8690 C.3    46  ARG46       0.2205
     33  NE       -25.3220   -6.2310   34.2490 N.pl3  46  ARG46      -0.0865
     34  CZ       -26.4500   -6.9160   34.3300 C.cat  46  ARG46       0.5346
     35  NH1      -27.4810   -6.3630   34.9520 N.pl3  46  ARG46       0.1354
     36  NH2      -26.5670   -8.1170   33.7420 N.pl3  46  ARG46       0.1354
     37  N        -21.5940   -8.3530   39.9560 N.3    50  LEU50      -0.1245
     38  CA       -21.5390   -9.5740   39.1310 C.3    50  LEU50       0.1561
     39  C        -20.1550  -10.2440   39.1000 C.2    50  LEU50       0.2260
     40  O        -20.0350  -11.4470   38.7760 O.2    50  LEU50      -0.2867
     41  CB       -22.0870   -9.3090   37.7170 C.3    50  LEU50       0.0270
     42  CG       -23.5430   -8.8480   37.6450 C.3    50  LEU50       0.0019
     43  CD1      -24.1170   -8.9520   36.2550 C.3    50  LEU50       0.0001
     44  CD2      -24.4360   -9.5280   38.6520 C.3    50  LEU50       0.0001
     45  N        -27.5770   -3.6010   45.5780 N.3    66  MET66      -0.1245
     46  CA       -28.7010   -3.8160   44.6600 C.3    66  MET66       0.1570
     47  C        -29.6710   -2.6480   44.7810 C.2    66  MET66       0.2261
     48  O        -30.1160   -2.1090   43.7620 O.2    66  MET66      -0.2867
     49  CB       -29.4790   -5.0980   44.9790 C.3    66  MET66       0.0387
     50  CG       -28.8900   -6.3380   44.3760 C.3    66  MET66       0.0595
     51  SD       -28.8760   -6.3180   42.5710 S.3    66  MET66      -0.1393
     52  CE       -27.8510   -7.7820   42.4390 C.3    66  MET66       0.0692
     53  N        -30.6570    0.5430   42.2690 N.3    70  ARG70      -0.1245
     54  CA       -32.1080    0.7650   42.1300 C.3    70  ARG70       0.1563
     55  C        -32.5470    2.2380   42.4010 C.2    70  ARG70       0.2260
     56  O        -33.2730    2.8320   41.5830 O.2    70  ARG70      -0.2867
     57  CB       -32.8910   -0.2240   43.0600 C.3    70  ARG70       0.0307
     58  CG       -34.4550   -0.1350   42.9210 C.3    70  ARG70       0.0489
     59  CD       -35.1540   -1.4340   43.2380 C.3    70  ARG70       0.2205
     60  NE       -34.5360   -2.5150   42.4680 N.pl3  70  ARG70      -0.0865
     61  CZ       -34.1050   -3.6800   42.9590 C.cat  70  ARG70       0.5346
     62  NH1      -34.2170   -3.9530   44.2390 N.pl3  70  ARG70       0.1354
     63  NH2      -33.5170   -4.5760   42.1530 N.pl3  70  ARG70       0.1354
     64  N        -35.7930   -5.0910   32.6900 N.3    91  ASP91      -0.1225
     65  CA       -35.2520   -6.4510   32.8640 C.3    91  ASP91       0.1805
     66  C        -34.7950   -6.6190   34.3190 C.2    91  ASP91       0.2598
     67  O        -33.6990   -6.2110   34.6300 O.2    91  ASP91      -0.2718
     68  CB       -34.0490   -6.5830   31.9370 C.3    91  ASP91       0.1424
     69  CG       -33.3020   -7.9250   32.0600 C.2    91  ASP91       0.3668
     70  OD1      -33.8610   -8.9270   32.5430 O.co2  91  ASP91      -0.2456
     71  OD2      -32.1160   -7.9570   31.6480 O.co2  91  ASP91      -0.2456
     72  N        -35.6410   -7.2460   35.1560 N.am   92  ARG92      -0.1966
     73  CA       -35.4160   -7.4550   36.6370 C.3    92  ARG92       0.1729
     74  C        -35.5620   -6.2150   37.5160 C.2    92  ARG92       0.2616
     75  O        -35.2120   -5.0990   37.1030 O.2    92  ARG92      -0.2715
     76  CB       -34.0760   -8.1190   36.9290 C.3    92  ARG92       0.0348
     77  CG       -33.9810   -9.5410   36.2730 C.3    92  ARG92       0.0492
     78  CD       -32.7110  -10.2640   36.6160 C.3    92  ARG92       0.2205
     79  NE       -32.6020  -11.5580   35.9180 N.pl3  92  ARG92      -0.0865
     80  CZ       -33.2550  -12.6720   36.2640 C.cat  92  ARG92       0.5346
     81  NH1      -34.1050  -12.6790   37.2930 N.pl3  92  ARG92       0.1354
     82  NH2      -33.0770  -13.7950   35.5600 N.pl3  92  ARG92       0.1354
     83  N        -36.0370   -6.4260   38.7370 N.am   93  PHE93      -0.1974
     84  CA       -36.3610   -5.3280   39.6710 C.3    93  PHE93       0.1639
     85  C        -36.5210   -5.9680   41.0700 C.2    93  PHE93       0.2290
     86  O        -35.9030   -6.9720   41.3620 O.2    93  PHE93      -0.2864
     87  CB       -37.6200   -4.5570   39.1890 C.3    93  PHE93       0.0560
     88  CG       -37.8060   -3.2020   39.8560 C.ar   93  PHE93      -0.0200
     89  CD1      -36.8980   -2.1680   39.6450 C.ar   93  PHE93      -0.0042
     90  CD2      -38.8820   -2.9750   40.7180 C.ar   93  PHE93      -0.0042
     91  CE1      -37.0640   -0.9090   40.2370 C.ar   93  PHE93      -0.0003
     92  CE2      -39.0420   -1.7380   41.3320 C.ar   93  PHE93      -0.0003
     93  CZ       -38.1180   -0.7000   41.0920 C.ar   93  PHE93      -0.0000
     94  N        -36.6630   -9.7520   41.8750 N.3    96  ALA96      -0.1231
     95  CA       -35.3870  -10.4530   41.7920 C.3    96  ALA96       0.1694
     96  C        -34.6220  -10.3680   43.1040 C.2    96  ALA96       0.2592
     97  O        -33.8820  -11.3150   43.4670 O.2    96  ALA96      -0.2718
     98  CB       -34.5180   -9.9090   40.6260 C.3    96  ALA96       0.0304
     99  N        -34.7780   -9.2370   43.7930 N.am   97  THR97      -0.1953
    100  CA       -34.1880   -9.0670   45.1370 C.3    97  THR97       0.1897
    101  C        -34.7920  -10.0620   46.1100 C.2    97  THR97       0.2313
    102  O        -34.0660  -10.7830   46.7690 O.2    97  THR97      -0.2863
    103  CB       -34.3090   -7.6190   45.6780 C.3    97  THR97       0.1794
    104  OG1      -33.8590   -6.7120   44.6520 O.3    97  THR97      -0.2208
    105  CG2      -33.3800   -7.4660   46.9270 C.3    97  THR97       0.0378
    106  N        -33.4480  -13.6390   44.6670 N.3   100  TYR100     -0.1227
    107  CA       -32.0130  -13.9130   44.7850 C.3   100  TYR100      0.1736
    108  C        -31.4580  -13.6520   46.1890 C.2   100  TYR100      0.2595
    109  O        -30.7600  -14.4920   46.7300 O.2   100  TYR100     -0.2718
    110  CB       -31.2060  -13.1350   43.7600 C.3   100  TYR100      0.0548
    111  CG       -31.2930  -13.6630   42.3290 C.ar  100  TYR100     -0.0200
    112  CD1      -32.4580  -13.5330   41.5940 C.ar  100  TYR100     -0.0009
    113  CD2      -30.1900  -14.2660   41.7190 C.ar  100  TYR100     -0.0009
    114  CE1      -32.5490  -14.0260   40.2890 C.ar  100  TYR100      0.0417
    115  CE2      -30.2580  -14.7460   40.4100 C.ar  100  TYR100      0.0417
    116  CZ       -31.4310  -14.6080   39.6970 C.ar  100  TYR100      0.1957
    117  OH       -31.5230  -15.0750   38.3770 O.3   100  TYR100     -0.2866
    118  N        -31.7450  -12.4720   46.7490 N.am  101  GLN101     -0.1979
    119  CA       -31.2330  -12.0640   48.0660 C.3   101  GLN101      0.1601
    120  C        -32.0350  -12.6510   49.2270 C.2   101  GLN101      0.2287
    121  O        -31.4570  -12.9870   50.2410 O.2   101  GLN101     -0.2864
    122  CB       -31.1550  -10.5120   48.2060 C.3   101  GLN101      0.0394
    123  CG       -29.9460   -9.8850   47.4810 C.3   101  GLN101      0.0908
    124  CD       -30.0270  -10.0440   45.9500 C.2   101  GLN101      0.2608
    125  OE1      -30.9560   -9.5370   45.3160 O.2   101  GLN101     -0.2717
    126  NE2      -29.0190  -10.7350   45.3490 N.am  101  GLN101     -0.0878
    127  N        -20.9240  -15.3560   35.6520 N.3   145  ASP145     -0.1239
    128  CA       -20.7420  -14.3340   36.6580 C.3   145  ASP145      0.1674
    129  C        -21.0410  -14.8740   38.0780 C.2   145  ASP145      0.2266
    130  O        -21.2990  -16.0810   38.2550 O.2   145  ASP145     -0.2867
    131  CB       -21.5310  -13.0690   36.2910 C.3   145  ASP145      0.1410
    132  CG       -23.0180  -13.1990   36.5830 C.2   145  ASP145      0.3668
    133  OD1      -23.3950  -14.0460   37.4030 O.co2 145  ASP145     -0.2456
    134  OD2      -23.8190  -12.4690   35.9890 O.co2 145  ASP145     -0.2456
    135  N        -23.3500  -14.7290   40.2630 N.3   147  PHE147     -0.1241
    136  CA       -24.6390  -15.3740   40.5260 C.3   147  PHE147      0.1605
    137  C        -24.8160  -16.6210   39.7200 C.2   147  PHE147      0.2264
    138  O        -25.3000  -17.6290   40.2190 O.2   147  PHE147     -0.2867
    139  CB       -25.7900  -14.4120   40.2560 C.3   147  PHE147      0.0534
    140  CG       -25.8680  -13.3110   41.2600 C.ar  147  PHE147     -0.0203
    141  CD1      -26.3330  -13.5700   42.5390 C.ar  147  PHE147     -0.0042
    142  CD2      -25.4400  -12.0400   40.9420 C.ar  147  PHE147     -0.0042
    143  CE1      -26.3900  -12.5700   43.4800 C.ar  147  PHE147     -0.0003
    144  CE2      -25.4930  -11.0310   41.8580 C.ar  147  PHE147     -0.0003
    145  CZ       -25.9570  -11.2730   43.1310 C.ar  147  PHE147     -0.0000
@<TRIPOS>BOND
     1    71    69   ar
     2    68    69    1
     3    68    65    1
     4    69    70   ar
     5    64    65    1
     6    65    66    1
     7    36    34    1
     8    33    34    2
     9    33    32    1
    10    66    67    2
    11    66    72   am
    12    34    35    1
    13     4     3    2
    14     3     2    1
    15    32    31    1
    16    72    73    1
    17     9     7   ar
    18    10    11    1
    19    82    80    1
    20   127   128    1
    21    79    80    2
    22    79    78    1
    23   134   132   ar
    24     2     1    1
    25     2     5    1
    26     7     6    1
    27     7     8   ar
    28    43    42    1
    29     6     5    1
    30    80    81    1
    31    31    30    1
    32    77    78    1
    33    77    76    1
    34    22    21    2
    35   131   132    1
    36   131   128    1
    37   132   133   ar
    38    73    76    1
    39    73    74    1
    40   128   129    1
    41    13    12    2
    42    11    12    1
    43    11    14    1
    44    30    27    1
    45    75    74    2
    46    12    19   am
    47    21    20    1
    48    74    83   am
    49    42    41    1
    50    42    44    1
    51    41    38    1
    52    15    14    1
    53    15    16    1
    54   129   130    2
    55    19    20    1
    56    19    25    1
    57    28    27    1
    58    28    29    2
    59   117   116    1
    60    27    26    1
    61    20    23    1
    62    25    24    1
    63    83    84    1
    64    40    39    2
    65    16    18   ar
    66    16    17   ar
    67    39    38    1
    68    24    23    1
    69    38    37    1
    70    87    84    1
    71    87    88    1
    72    89    88   ar
    73    89    91   ar
    74    84    85    1
    75   116   114   ar
    76   116   115   ar
    77   137   138    2
    78   137   136    1
    79    88    90   ar
    80    91    93   ar
    81   139   136    1
    82   139   140    1
    83   135   136    1
    84   114   112   ar
    85   115   113   ar
    86    98    95    1
    87    90    92   ar
    88   142   140   ar
    89   142   144   ar
    90    85    86    2
    91    93    92   ar
    92   140   141   ar
    93    56    55    2
    94   112   111   ar
    95   113   111   ar
    96    95    94    1
    97    95    96    1
    98   144   145   ar
    99    54    53    1
   100    54    55    1
   101    54    57    1
   102    63    61    1
   103   111   110    1
   104    52    51    1
   105    60    61    2
   106    60    59    1
   107   141   143   ar
   108    51    50    1
   109    58    57    1
   110    58    59    1
   111    61    62    1
   112    96    97    2
   113    96    99   am
   114   145   143   ar
   115   110   107    1
   116    48    47    2
   117    99   100    1
   118    50    49    1
   119   104   103    1
   120    46    47    1
   121    46    49    1
   122    46    45    1
   123   106   107    1
   124   107   108    1
   125   100   103    1
   126   100   101    1
   127   125   124    2
   128   126   124   am
   129   103   105    1
   130   124   123    1
   131   101   102    2
   132   108   109    2
   133   108   118   am
   134   118   119    1
   135   123   122    1
   136   119   122    1
   137   119   120    1
   138   120   121    2
