@<TRIPOS>MOLECULE
tmp/3uxvD00.pdb
 88 83 0 0 0
SMALL
GASTEIGER

@<TRIPOS>ATOM
      1  N        -14.6360   -9.2500   14.2280 N.3    66  GLU66      -0.1231
      2  CA       -15.4420   -8.3660   13.3580 C.3    66  GLU66       0.1699
      3  C        -15.0400   -6.9130   13.6640 C.2    66  GLU66       0.2593
      4  O        -14.8480   -6.5450   14.8340 O.2    66  GLU66      -0.2718
      5  CB       -16.9580   -8.5960   13.5420 C.3    66  GLU66       0.0402
      6  CG       -17.7960   -7.8210   12.4990 C.3    66  GLU66       0.1161
      7  CD       -18.0030   -6.3610   12.8770 C.2    66  GLU66       0.3649
      8  OE1      -18.1960   -6.1030   14.1040 O.co2  66  GLU66      -0.2457
      9  OE2      -17.9870   -5.5030   11.9530 O.co2  66  GLU66      -0.2457
     10  N        -14.8210   -6.1150   12.6190 N.am   67  SER67      -0.1938
     11  CA       -14.1660   -4.8030   12.8160 C.3    67  SER67       0.2055
     12  C        -14.9210   -3.7550   13.6210 C.2    67  SER67       0.2642
     13  O        -14.2940   -3.0310   14.3850 O.2    67  SER67      -0.2714
     14  CB       -13.6540   -4.2290   11.4850 C.3    67  SER67       0.2130
     15  OG       -14.7600   -3.9580   10.6890 O.3    67  SER67      -0.2179
     16  N        -16.2240   -3.6460   13.4160 N.am   68  LYS68      -0.1977
     17  CA       -17.0010   -2.6860   14.2250 C.3    68  LYS68       0.1596
     18  C        -16.8990   -3.0710   15.6930 C.2    68  LYS68       0.2287
     19  O        -16.7240   -2.2030   16.5470 O.2    68  LYS68      -0.2864
     20  CB       -18.4520   -2.6180   13.7610 C.3    68  LYS68       0.0298
     21  CG       -19.2110   -1.5040   14.4690 C.3    68  LYS68       0.0038
     22  CD       -20.6260   -1.4620   13.9200 C.3    68  LYS68       0.0206
     23  CE       -21.4450   -0.3800   14.6270 C.3    68  LYS68       0.1093
     24  NZ       -20.6650    0.8830   14.7300 N.3    68  LYS68      -0.1314
     25  N        -13.5900   -1.9690   17.0560 N.3    71  LYS71      -0.1245
     26  CA       -13.6220   -0.5250   17.3340 C.3    71  LYS71       0.1561
     27  C        -14.3650   -0.2290   18.6560 C.2    71  LYS71       0.2260
     28  O        -13.8460    0.5370   19.4800 O.2    71  LYS71      -0.2867
     29  CB       -14.2980    0.2330   16.1930 C.3    71  LYS71       0.0271
     30  CG       -14.3070    1.7600   16.4140 C.3    71  LYS71       0.0035
     31  CD       -15.2950    2.4350   15.5050 C.3    71  LYS71       0.0206
     32  CE       -16.6570    1.7830   15.6500 C.3    71  LYS71       0.1093
     33  NZ       -17.7000    2.7930   15.6080 N.3    71  LYS71      -0.1314
     34  N        -21.3240    0.8850    2.8030 N.3   165  GLN165     -0.1245
     35  CA       -20.2810    1.8890    2.6050 C.3   165  GLN165      0.1566
     36  C        -19.0150    1.2820    2.0350 C.2   165  GLN165      0.2260
     37  O        -18.6560    0.1520    2.3710 O.2   165  GLN165     -0.2867
     38  CB       -19.9580    2.5960    3.9130 C.3   165  GLN165      0.0367
     39  CG       -21.0790    3.4890    4.3910 C.3   165  GLN165      0.0905
     40  CD       -21.2030    4.7710    3.5760 C.2   165  GLN165      0.2608
     41  OE1      -20.5960    4.9060    2.5050 O.2   165  GLN165     -0.2717
     42  NE2      -22.0000    5.7230    4.0830 N.am  165  GLN165     -0.0878
     43  N        -15.2950    0.0570    1.1920 N.3   167  ASP167     -0.1239
     44  CA       -13.9500   -0.1210    1.7100 C.3   167  ASP167      0.1674
     45  C        -12.9390   -0.1830    0.5850 C.2   167  ASP167      0.2266
     46  O        -13.2970   -0.4650   -0.5620 O.2   167  ASP167     -0.2867
     47  CB       -13.8570   -1.3470    2.5840 C.3   167  ASP167      0.1410
     48  CG       -14.7320   -1.2330    3.8060 C.2   167  ASP167      0.3668
     49  OD1      -14.9550   -0.1000    4.3370 O.co2 167  ASP167     -0.2456
     50  OD2      -15.2280   -2.2780    4.2260 O.co2 167  ASP167     -0.2456
     51  N         -8.3520    2.3420    6.7850 N.3   225  ARG225     -0.1231
     52  CA        -9.0800    2.1210    8.0560 C.3   225  ARG225      0.1694
     53  C        -10.5430    2.4270    7.9180 C.2   225  ARG225      0.2592
     54  O        -10.9720    3.2760    7.1160 O.2   225  ARG225     -0.2718
     55  CB        -8.5150    3.0460    9.1460 C.3   225  ARG225      0.0321
     56  CG        -8.8210    4.5740    8.9360 C.3   225  ARG225      0.0489
     57  CD        -8.0840    5.4220    9.9690 C.3   225  ARG225      0.2205
     58  NE        -6.6840    5.6040    9.5810 N.pl3 225  ARG225     -0.0865
     59  CZ        -5.8620    6.4450   10.1990 C.cat 225  ARG225      0.5346
     60  NH1       -6.3450    7.1840   11.1810 N.pl3 225  ARG225      0.1354
     61  NH2       -4.5990    6.5560    9.7960 N.pl3 225  ARG225      0.1354
     62  N        -11.3090    1.7460    8.7590 N.am  226  ARG226     -0.1966
     63  CA       -12.7040    2.0720    8.9470 C.3   226  ARG226      0.1729
     64  C        -12.8550    2.1320   10.4540 C.2   226  ARG226      0.2617
     65  O        -12.4780    1.2040   11.1840 O.2   226  ARG226     -0.2715
     66  CB       -13.5010    0.8910    8.3420 C.3   226  ARG226      0.0348
     67  CG       -14.9750    1.0610    8.3830 C.3   226  ARG226      0.0492
     68  CD       -15.4190    2.2890    7.5750 C.3   226  ARG226      0.2205
     69  NE       -14.9460    2.2530    6.1850 N.pl3 226  ARG226     -0.0865
     70  CZ       -14.4270    3.3000    5.5450 C.cat 226  ARG226      0.5346
     71  NH1      -14.2830    4.4880    6.1670 N.pl3 226  ARG226      0.1354
     72  NH2      -14.0520    3.1750    4.2800 N.pl3 226  ARG226      0.1354
     73  N        -13.3840    3.2300   10.9260 N.am  227  GLY227     -0.1940
     74  CA       -13.6700    3.3360   12.3590 C.3   227  GLY227      0.2014
     75  C        -12.3420    3.3650   13.1430 C.2   227  GLY227      0.2639
     76  O        -12.2950    2.9580   14.3150 O.2   227  GLY227     -0.2714
     77  N        -11.2760    3.8280   12.5180 N.am  228  GLY228     -0.1939
     78  CA       -10.0470    4.1060   13.2640 C.3   228  GLY228      0.2014
     79  C         -9.0390    2.9700   13.2910 C.2   228  GLY228      0.2638
     80  O         -7.9460    3.1160   13.9010 O.2   228  GLY228     -0.2714
     81  N         -9.4050    1.8240   12.7100 N.am  229  LEU229     -0.1977
     82  CA        -8.5290    0.6550   12.6500 C.3   229  LEU229      0.1596
     83  C         -8.4910    0.0770   11.2420 C.2   229  LEU229      0.2287
     84  O         -9.5080    0.1090   10.5360 O.2   229  LEU229     -0.2864
     85  CB        -8.9300   -0.4630   13.6420 C.3   229  LEU229      0.0297
     86  CG       -10.1930   -0.4620   14.5090 C.3   229  LEU229      0.0022
     87  CD1      -11.4050   -0.4160   13.6370 C.3   229  LEU229      0.0001
     88  CD2      -10.2600   -1.7320   15.4080 C.3   229  LEU229      0.0001
@<TRIPOS>BOND
     1    46    45    2
     2    45    44    1
     3    43    44    1
     4    44    47    1
     5    36    37    2
     6    36    35    1
     7    41    40    2
     8    47    48    1
     9    35    34    1
    10    35    38    1
    11    40    42   am
    12    40    39    1
    13    48    50   ar
    14    48    49   ar
    15    38    39    1
    16    72    70    1
    17    70    71    1
    18    70    69    2
    19    69    68    1
    20    51    52    1
    21    54    53    2
    22    68    67    1
    23    53    52    1
    24    53    62   am
    25    52    55    1
    26    66    67    1
    27    66    63    1
    28    62    63    1
    29    56    55    1
    30    56    57    1
    31    63    64    1
    32    58    57    1
    33    58    59    2
    34    61    59    1
    35    59    60    1
    36    64    73   am
    37    64    65    2
    38    84    83    2
    39    15    14    1
    40    73    74    1
    41    83    82    1
    42    14    11    1
    43     9     7   ar
    44    74    75    1
    45     6     7    1
    46     6     5    1
    47    77    75   am
    48    77    78    1
    49    10    11    1
    50    10     3   am
    51    82    81    1
    52    82    85    1
    53    81    79   am
    54    11    12    1
    55     7     8   ar
    56    75    76    2
    57    78    79    1
    58    79    80    2
    59     2     5    1
    60     2     3    1
    61     2     1    1
    62    16    12   am
    63    16    17    1
    64    12    13    2
    65    87    86    1
    66    85    86    1
    67     3     4    2
    68    20    17    1
    69    20    21    1
    70    22    21    1
    71    22    23    1
    72    17    18    1
    73    86    88    1
    74    23    24    1
    75    31    32    1
    76    31    30    1
    77    33    32    1
    78    18    19    2
    79    29    30    1
    80    29    26    1
    81    25    26    1
    82    26    27    1
    83    27    28    2
