@<TRIPOS>MOLECULE
tmp/3uy4A00.pdb
 180 173 0 0 0
SMALL
GASTEIGER

@<TRIPOS>ATOM
      1  N          5.4480   81.0210   14.6220 N.3    28  PRO28      -0.2102
      2  CA         6.3990   81.4840   13.5980 C.3    28  PRO28       0.1504
      3  C          7.7670   80.8180   13.7590 C.2    28  PRO28       0.2576
      4  O          8.2610   80.7250   14.8850 O.2    28  PRO28      -0.2718
      5  CB         6.4970   82.9920   13.8610 C.3    28  PRO28       0.0282
      6  CG         6.1390   83.1490   15.3190 C.3    28  PRO28       0.0208
      7  CD         5.1110   82.0760   15.5990 C.3    28  PRO28       0.0893
      8  N          8.3460   80.3350   12.6600 N.am   29  THR29      -0.1953
      9  CA         9.6570   79.6730   12.6890 C.3    29  THR29       0.1897
     10  C         10.4700   80.0070   11.4440 C.2    29  THR29       0.2313
     11  O          9.9440   80.5640   10.4690 O.2    29  THR29      -0.2863
     12  CB         9.5500   78.1220   12.7190 C.3    29  THR29       0.1794
     13  OG1        9.2660   77.6380   11.3980 O.3    29  THR29      -0.2208
     14  CG2        8.4760   77.6340   13.6900 C.3    29  THR29       0.0378
     15  N         12.1220   77.3710   10.0440 N.3    30  GLY30      -0.1225
     16  CA        12.2190   76.0740    9.3970 C.3    30  GLY30       0.1811
     17  C         13.2900   75.1660    9.9660 C.2    30  GLY30       0.2280
     18  O         13.8620   75.4500   11.0210 O.2    30  GLY30      -0.2866
     19  N         12.6030   71.1510   14.7850 N.3    33  HIS33      -0.1241
     20  CA        13.0570   70.2160   15.8090 C.3    33  HIS33       0.1621
     21  C         12.0480   70.1690   16.9570 C.2    33  HIS33       0.2264
     22  O         11.0090   70.8300   16.9000 O.2    33  HIS33      -0.2867
     23  CB        14.4430   70.6160   16.3210 C.3    33  HIS33       0.0745
     24  CG        14.5460   72.0540   16.7250 C.ar   33  HIS33       0.0817
     25  ND1       13.9200   72.5590   17.8450 N.ar   33  HIS33      -0.2268
     26  CD2       15.2030   73.0970   16.1600 C.ar   33  HIS33       0.1154
     27  CE1       14.1870   73.8480   17.9540 C.ar   33  HIS33       0.1986
     28  NE2       14.9620   74.2020   16.9420 N.ar   33  HIS33      -0.2212
     29  N         11.9250   71.4970   19.7610 N.3    35  GLY35      -0.1210
     30  CA        11.6150   72.7910   20.3420 C.3    35  GLY35       0.1956
     31  C         10.3850   73.3750   19.6720 C.2    35  GLY35       0.2611
     32  O          9.4350   73.7950   20.3390 O.2    35  GLY35      -0.2717
     33  N         10.3970   73.3920   18.3430 N.am   36  HIS36      -0.1975
     34  CA         9.2640   73.9060   17.5830 C.3    36  HIS36       0.1656
     35  C          8.0270   73.0700   17.8630 C.2    36  HIS36       0.2291
     36  O          6.9240   73.6000   17.9760 O.2    36  HIS36      -0.2864
     37  CB         9.5470   73.8660   16.0840 C.3    36  HIS36       0.0771
     38  CG        10.7570   74.6410   15.6660 C.ar   36  HIS36       0.0820
     39  ND1       11.8600   74.0430   15.0950 N.ar   36  HIS36      -0.2267
     40  CD2       11.0320   75.9670   15.7070 C.ar   36  HIS36       0.1154
     41  CE1       12.7580   74.9620   14.8010 C.ar   36  HIS36       0.1986
     42  NE2       12.2840   76.1420   15.1680 N.ar   36  HIS36      -0.2212
     43  N          7.1980   71.5030   20.5290 N.3    38  SER38      -0.1202
     44  CA         6.6080   71.7950   21.8370 C.3    38  SER38       0.2020
     45  C          5.6930   73.0200   21.7450 C.2    38  SER38       0.2618
     46  O          4.7010   73.1170   22.4690 O.2    38  SER38      -0.2717
     47  CB         7.6840   71.9930   22.9130 C.3    38  SER38       0.2103
     48  OG         8.3530   73.2380   22.7560 O.3    38  SER38      -0.2182
     49  N          6.0240   73.9430   20.8430 N.am   39  LEU39      -0.1979
     50  CA         5.1950   75.1300   20.6170 C.3    39  LEU39       0.1596
     51  C          3.8980   74.7420   19.9230 C.2    39  LEU39       0.2287
     52  O          2.8240   75.2350   20.2730 O.2    39  LEU39      -0.2864
     53  CB         5.9280   76.1750   19.7650 C.3    39  LEU39       0.0297
     54  CG         7.3100   76.6740   20.1960 C.3    39  LEU39       0.0022
     55  CD1        7.7630   77.8200   19.2940 C.3    39  LEU39       0.0001
     56  CD2        7.3040   77.1080   21.6390 C.3    39  LEU39       0.0001
     57  N         16.3240   90.0300    9.0160 N.3    58  GLN58      -0.1245
     58  CA        16.9130   89.8810   10.3440 C.3    58  GLN58       0.1566
     59  C         18.2990   89.2330   10.3570 C.2    58  GLN58       0.2260
     60  O         18.8110   88.8740   11.4180 O.2    58  GLN58      -0.2867
     61  CB        15.9520   89.1660   11.3010 C.3    58  GLN58       0.0367
     62  CG        15.6800   87.7130   10.9930 C.3    58  GLN58       0.0905
     63  CD        14.5190   87.1890   11.8280 C.2    58  GLN58       0.2608
     64  OE1       13.3570   87.4740   11.5400 O.2    58  GLN58      -0.2717
     65  NE2       14.8340   86.4570   12.8950 N.am   58  GLN58      -0.0878
     66  N         22.0000   78.8770    6.3960 N.3    68  TYR68      -0.1241
     67  CA        20.9220   78.4650    7.2970 C.3    68  TYR68       0.1605
     68  C         20.2590   77.1870    6.7980 C.2    68  TYR68       0.2264
     69  O         19.8790   77.0970    5.6250 O.2    68  TYR68      -0.2867
     70  CB        19.8750   79.5730    7.5100 C.3    68  TYR68       0.0534
     71  CG        19.1080   79.3490    8.7900 C.ar   68  TYR68      -0.0201
     72  CD1       19.6200   79.7840   10.0040 C.ar   68  TYR68      -0.0009
     73  CD2       17.8990   78.6590    8.7950 C.ar   68  TYR68      -0.0009
     74  CE1       18.9460   79.5580   11.1930 C.ar   68  TYR68       0.0417
     75  CE2       17.2090   78.4280    9.9910 C.ar   68  TYR68       0.0417
     76  CZ        17.7420   78.8820   11.1820 C.ar   68  TYR68       0.1957
     77  OH        17.0810   78.6590   12.3790 O.3    68  TYR68      -0.2866
     78  N          2.7140   81.5190   19.7870 N.3   138  TYR138     -0.1241
     79  CA         3.5470   80.7240   20.6840 C.3   138  TYR138      0.1605
     80  C          5.0220   80.8870   20.3450 C.2   138  TYR138      0.2264
     81  O          5.4520   80.6090   19.2260 O.2   138  TYR138     -0.2867
     82  CB         3.1150   79.2540   20.6490 C.3   138  TYR138      0.0534
     83  CG         1.6830   79.0680   21.0940 C.ar  138  TYR138     -0.0201
     84  CD1        1.3790   78.7100   22.4030 C.ar  138  TYR138     -0.0009
     85  CD2        0.6280   79.3000   20.2150 C.ar  138  TYR138     -0.0009
     86  CE1        0.0640   78.5660   22.8150 C.ar  138  TYR138      0.0417
     87  CE2       -0.6810   79.1610   20.6160 C.ar  138  TYR138      0.0417
     88  CZ        -0.9610   78.7880   21.9120 C.ar  138  TYR138      0.1957
     89  OH        -2.2720   78.6580   22.2950 O.3   138  TYR138     -0.2866
     90  N          9.2870   80.7160   21.9730 N.3   139  GLY139     -0.1225
     91  CA        10.1380   80.0330   22.9270 C.3   139  GLY139      0.1811
     92  C         10.9250   80.9790   23.8100 C.2   139  GLY139      0.2280
     93  O         11.4550   82.0020   23.3530 O.2   139  GLY139     -0.2866
     94  N         13.6850   80.3890   24.7310 N.3   141  LYS141     -0.1231
     95  CA        15.0750   80.3140   24.2740 C.3   141  LYS141      0.1693
     96  C         15.5480   81.6330   23.6650 C.2   141  LYS141      0.2592
     97  O         16.6830   82.0480   23.8810 O.2   141  LYS141     -0.2718
     98  CB        15.3100   79.1740   23.2850 C.3   141  LYS141      0.0285
     99  CG        16.7990   78.9890   23.0100 C.3   141  LYS141      0.0035
    100  CD        17.0740   78.1240   21.8230 C.3   141  LYS141      0.0206
    101  CE        18.5640   78.1290   21.5070 C.3   141  LYS141      0.1093
    102  NZ        18.9020   79.1000   20.4310 N.3   141  LYS141     -0.1314
    103  N         14.6740   82.2900   22.9110 N.am  142  ASP142     -0.1974
    104  CA        14.9620   83.6450   22.4560 C.3   142  ASP142      0.1709
    105  C         14.2530   84.6380   23.3640 C.2   142  ASP142      0.2293
    106  O         13.2410   85.2320   22.9920 O.2   142  ASP142     -0.2864
    107  CB        14.5530   83.8150   21.0030 C.3   142  ASP142      0.1436
    108  CG        15.2540   82.8190   20.0990 C.2   142  ASP142      0.3671
    109  OD1       16.4030   83.0860   19.6880 O.co2 142  ASP142     -0.2456
    110  OD2       14.6690   81.7500   19.8310 O.co2 142  ASP142     -0.2456
    111  N         13.7660   88.3540   22.3680 N.3   145  GLN145     -0.1245
    112  CA        12.7530   88.3770   21.3210 C.3   145  GLN145      0.1566
    113  C         11.3270   88.3300   21.8780 C.2   145  GLN145      0.2260
    114  O         10.4640   89.0960   21.4420 O.2   145  GLN145     -0.2867
    115  CB        12.9650   87.2350   20.3360 C.3   145  GLN145      0.0367
    116  CG        11.8790   87.1400   19.2770 C.3   145  GLN145      0.0905
    117  CD        12.2240   86.1380   18.1890 C.2   145  GLN145      0.2608
    118  OE1       12.7600   86.5060   17.1380 O.2   145  GLN145     -0.2717
    119  NE2       11.9280   84.8590   18.4380 N.am  145  GLN145     -0.0878
    120  N          6.9560   79.8140   25.9500 N.3   164  CYS164     -0.1221
    121  CA         7.0800   78.3920   26.2640 C.3   164  CYS164      0.1794
    122  C          8.5140   78.0220   26.6600 C.2   164  CYS164      0.2443
    123  O          9.4700   78.6520   26.2040 O.2   164  CYS164     -0.2733
    124  CB         6.6330   77.5600   25.0600 C.3   164  CYS164      0.0970
    125  SG         4.9850   78.0060   24.4430 S.3   164  CYS164     -0.0800
    126  N          8.6680   76.9940   27.5130 N.am  165  PRO165     -0.2718
    127  CA         9.9800   76.6450   28.0820 C.3   165  PRO165      0.1535
    128  C         10.9940   76.1460   27.0460 C.2   165  PRO165      0.2598
    129  O         10.6150   75.6240   25.9990 O.2   165  PRO165     -0.2715
    130  CB         9.6530   75.5060   29.0580 C.3   165  PRO165      0.0310
    131  CG         8.1950   75.6160   29.3260 C.3   165  PRO165      0.0237
    132  CD         7.5850   76.1650   28.0730 C.3   165  PRO165      0.0939
    133  N         12.2760   76.2910   27.3650 N.am  166  ILE166     -0.1964
    134  CA        13.3530   75.8160   26.5000 C.3   166  ILE166      0.1727
    135  C         13.3940   74.2930   26.4410 C.2   166  ILE166      0.2616
    136  O         13.4440   73.6210   27.4740 O.2   166  ILE166     -0.2715
    137  CB        14.7240   76.3410   26.9770 C.3   166  ILE166      0.0290
    138  CG1       14.7250   77.8730   27.0110 C.3   166  ILE166      0.0022
    139  CG2       15.8410   75.8280   26.0730 C.3   166  ILE166      0.0023
    140  CD1       16.0520   78.4800   27.4930 C.3   166  ILE166      0.0001
    141  N         13.3700   73.7490   25.2300 N.am  167  ILE167     -0.1977
    142  CA        13.4880   72.3080   25.0470 C.3   167  ILE167      0.1596
    143  C         14.9520   71.9780   24.7780 C.2   167  ILE167      0.2287
    144  O         15.6090   72.6630   23.9950 O.2   167  ILE167     -0.2864
    145  CB        12.6050   71.8160   23.8890 C.3   167  ILE167      0.0276
    146  CG1       11.1480   72.2270   24.1370 C.3   167  ILE167      0.0022
    147  CG2       12.7010   70.3010   23.7380 C.3   167  ILE167      0.0022
    148  CD1       10.6090   71.7510   25.4960 C.3   167  ILE167      0.0001
    149  N         17.9440   73.0650   22.1250 N.3   175  LYS175     -0.1231
    150  CA        17.6930   72.7090   20.7300 C.3   175  LYS175      0.1693
    151  C         17.6940   73.9400   19.8360 C.2   175  LYS175      0.2593
    152  O         17.1500   74.9850   20.1900 O.2   175  LYS175     -0.2718
    153  CB        16.3880   71.9230   20.5840 C.3   175  LYS175      0.0285
    154  CG        16.4730   70.5280   21.1910 C.3   175  LYS175      0.0035
    155  CD        15.2340   69.7040   20.9010 C.3   175  LYS175      0.0206
    156  CE        15.3280   68.3250   21.5460 C.3   175  LYS175      0.1093
    157  NZ        15.9870   67.3260   20.6560 N.3   175  LYS175     -0.1314
    158  N         18.3210   73.8050   18.6740 N.am  176  SER176     -0.1938
    159  CA        18.3950   74.8940   17.7160 C.3   176  SER176      0.2055
    160  C         18.7320   74.3080   16.3620 C.2   176  SER176      0.2644
    161  O         19.5290   73.3770   16.2640 O.2   176  SER176     -0.2714
    162  CB        19.4890   75.8860   18.1100 C.3   176  SER176      0.2130
    163  OG        19.6320   76.8990   17.1250 O.3   176  SER176     -0.2179
    164  N         18.1360   74.8630   15.3180 N.am  177  SER177     -0.1935
    165  CA        18.4830   74.4510   13.9680 C.3   177  SER177      0.2055
    166  C         19.9660   74.6850   13.6960 C.2   177  SER177      0.2642
    167  O         20.5720   73.9630   12.9130 O.2   177  SER177     -0.2714
    168  CB        17.6150   75.1890   12.9490 C.3   177  SER177      0.2130
    169  OG        16.2470   74.9030   13.1860 O.3   177  SER177     -0.2179
    170  N         20.5530   75.6790   14.3600 N.am  178  ARG178     -0.1977
    171  CA        21.9700   75.9810   14.1760 C.3   178  ARG178      0.1597
    172  C         22.9080   74.9360   14.7870 C.2   178  ARG178      0.2287
    173  O         24.1020   74.9370   14.4930 O.2   178  ARG178     -0.2864
    174  CB        22.3190   77.3760   14.7000 C.3   178  ARG178      0.0334
    175  CG        21.7200   78.5100   13.8700 C.3   178  ARG178      0.0492
    176  CD        22.2530   79.8620   14.3120 C.3   178  ARG178      0.2205
    177  NE        21.9410   80.9220   13.3560 N.pl3 178  ARG178     -0.0865
    178  CZ        21.0180   81.8640   13.5410 C.cat 178  ARG178      0.5346
    179  NH1       20.2890   81.8940   14.6570 N.pl3 178  ARG178      0.1354
    180  NH2       20.8280   82.7850   12.6090 N.pl3 178  ARG178      0.1354
@<TRIPOS>BOND
     1    69    68    2
     2    66    67    1
     3    68    67    1
     4    67    70    1
     5    70    71    1
     6    71    73   ar
     7    71    72   ar
     8    73    75   ar
     9    57    58    1
    10    16    17    1
    11    16    15    1
    12    17    18    2
    13    75    76   ar
    14    72    74   ar
    15    58    59    1
    16    58    61    1
    17    59    60    2
    18    11    10    2
    19    62    61    1
    20    62    63    1
    21    76    74   ar
    22    76    77    1
    23    13    12    1
    24    10     9    1
    25    64    63    2
    26    63    65   am
    27   180   178    1
    28     8     9    1
    29     8     3   am
    30     9    12    1
    31    12    14    1
    32   167   166    2
    33   168   169    1
    34   168   165    1
    35   177   178    2
    36   177   176    1
    37   178   179    1
    38     2     3    1
    39     2     5    1
    40     2     1    1
    41   166   165    1
    42   166   170   am
    43     3     4    2
    44     5     6    1
    45   175   176    1
    46   175   174    1
    47   165   164    1
    48   171   170    1
    49   171   174    1
    50   171   172    1
    51   173   172    2
    52     1     7    1
    53    19    20    1
    54    41    39   ar
    55    41    42   ar
    56    39    38   ar
    57    42    40   ar
    58   164   160   am
    59     6     7    1
    60    38    40   ar
    61    38    37    1
    62    20    23    1
    63    20    21    1
    64    37    34    1
    65    26    24   ar
    66    26    28   ar
    67   161   160    2
    68    23    24    1
    69   160   159    1
    70    24    25   ar
    71    22    21    2
    72    28    27   ar
    73   163   162    1
    74   118   117    2
    75    34    35    1
    76    34    33    1
    77   159   162    1
    78   159   158    1
    79    25    27   ar
    80    35    36    2
    81   117   119   am
    82   117   116    1
    83    33    31   am
    84   158   151   am
    85    81    80    2
    86   116   115    1
    87    55    54    1
    88    31    32    2
    89    31    30    1
    90   109   108   ar
    91    29    30    1
    92    53    54    1
    93    53    50    1
    94    78    79    1
    95   110   108   ar
    96   151   152    2
    97   151   150    1
    98    51    52    2
    99    51    50    1
   100   108   107    1
   101    54    56    1
   102    85    87   ar
   103    85    83   ar
   104   115   112    1
   105    80    79    1
   106   102   101    1
   107    43    44    1
   108   153   150    1
   109   153   154    1
   110    87    88   ar
   111    50    49    1
   112    82    79    1
   113    82    83    1
   114   157   156    1
   115   150   149    1
   116    49    45   am
   117   155   154    1
   118   155   156    1
   119   107   104    1
   120    83    84   ar
   121   112   113    1
   122   112   111    1
   123   114   113    2
   124   101   100    1
   125    45    44    1
   126    45    46    2
   127   100    99    1
   128    44    47    1
   129    88    89    1
   130    88    86   ar
   131    90    91    1
   132    84    86   ar
   133   104   103    1
   134   104   105    1
   135    48    47    1
   136   103    96   am
   137    91    92    1
   138   106   105    2
   139    99    98    1
   140    98    95    1
   141    93    92    2
   142    96    97    2
   143    96    95    1
   144   147   145    1
   145   145   146    1
   146   145   142    1
   147   144   143    2
   148   146   148    1
   149    95    94    1
   150   125   124    1
   151   143   142    1
   152   142   141    1
   153   124   121    1
   154   141   135   am
   155   120   121    1
   156   129   128    2
   157   139   137    1
   158   123   122    2
   159   121   122    1
   160   135   134    1
   161   135   136    2
   162   134   137    1
   163   134   133    1
   164   122   126   am
   165   137   138    1
   166   138   140    1
   167   128   133   am
   168   128   127    1
   169   126   132    1
   170   126   127    1
   171   132   131    1
   172   127   130    1
   173   130   131    1
