@<TRIPOS>MOLECULE
tmp/3uy4A01.pdb
 155 147 0 0 0
SMALL
GASTEIGER

@<TRIPOS>ATOM
      1  N          5.4480   81.0210   14.6220 N.3    28  PRO28      -0.2102
      2  CA         6.3990   81.4840   13.5980 C.3    28  PRO28       0.1504
      3  C          7.7670   80.8180   13.7590 C.2    28  PRO28       0.2576
      4  O          8.2610   80.7250   14.8850 O.2    28  PRO28      -0.2718
      5  CB         6.4970   82.9920   13.8610 C.3    28  PRO28       0.0282
      6  CG         6.1390   83.1490   15.3190 C.3    28  PRO28       0.0208
      7  CD         5.1110   82.0760   15.5990 C.3    28  PRO28       0.0893
      8  N          8.3460   80.3350   12.6600 N.am   29  THR29      -0.1953
      9  CA         9.6570   79.6730   12.6890 C.3    29  THR29       0.1897
     10  C         10.4700   80.0070   11.4440 C.2    29  THR29       0.2313
     11  O          9.9440   80.5640   10.4690 O.2    29  THR29      -0.2863
     12  CB         9.5500   78.1220   12.7190 C.3    29  THR29       0.1794
     13  OG1        9.2660   77.6380   11.3980 O.3    29  THR29      -0.2208
     14  CG2        8.4760   77.6340   13.6900 C.3    29  THR29       0.0378
     15  N          9.8500   80.7450    7.3080 N.3    54  PHE54      -0.1241
     16  CA        10.3800   81.8260    6.4840 C.3    54  PHE54       0.1605
     17  C         11.7260   82.2660    7.0360 C.2    54  PHE54       0.2264
     18  O         11.8050   82.8030    8.1490 O.2    54  PHE54      -0.2867
     19  CB         9.3970   83.0040    6.4530 C.3    54  PHE54       0.0534
     20  CG         9.8450   84.1610    5.5940 C.ar   54  PHE54      -0.0203
     21  CD1       10.1780   83.9670    4.2590 C.ar   54  PHE54      -0.0042
     22  CD2        9.9090   85.4500    6.1170 C.ar   54  PHE54      -0.0042
     23  CE1       10.5830   85.0350    3.4600 C.ar   54  PHE54      -0.0003
     24  CE2       10.3100   86.5200    5.3250 C.ar   54  PHE54      -0.0003
     25  CZ        10.6490   86.3130    3.9940 C.ar   54  PHE54      -0.0000
     26  N         13.8250   84.8390    7.2550 N.3    56  ASN56      -0.1240
     27  CA        13.5790   86.2550    7.0030 C.3    56  ASN56       0.1653
     28  C         14.8760   87.0220    6.7510 C.2    56  ASN56       0.2266
     29  O         15.6570   87.2320    7.6720 O.2    56  ASN56      -0.2867
     30  CB        12.8230   86.8540    8.1940 C.3    56  ASN56       0.1155
     31  CG        12.6660   88.3540    8.0910 C.2    56  ASN56       0.2627
     32  OD1       12.5550   88.9050    6.9950 O.2    56  ASN56      -0.2716
     33  ND2       12.6780   89.0280    9.2350 N.am   56  ASN56      -0.0877
     34  N         16.3240   90.0300    9.0160 N.3    58  GLN58      -0.1231
     35  CA        16.9130   89.8810   10.3440 C.3    58  GLN58       0.1698
     36  C         18.2990   89.2330   10.3570 C.2    58  GLN58       0.2592
     37  O         18.8110   88.8740   11.4180 O.2    58  GLN58      -0.2718
     38  CB        15.9520   89.1660   11.3010 C.3    58  GLN58       0.0381
     39  CG        15.6800   87.7130   10.9930 C.3    58  GLN58       0.0905
     40  CD        14.5190   87.1890   11.8280 C.2    58  GLN58       0.2608
     41  OE1       13.3570   87.4740   11.5400 O.2    58  GLN58      -0.2717
     42  NE2       14.8340   86.4570   12.8950 N.am   58  GLN58      -0.0878
     43  N         18.9000   89.0940    9.1780 N.am   59  PHE59      -0.1976
     44  CA        20.2820   88.6260    9.0520 C.3    59  PHE59       0.1639
     45  C         21.1650   89.7560    8.5250 C.2    59  PHE59       0.2290
     46  O         20.7800   90.4690    7.5970 O.2    59  PHE59      -0.2864
     47  CB        20.3860   87.4600    8.0630 C.3    59  PHE59       0.0560
     48  CG        19.8120   86.1520    8.5590 C.ar   59  PHE59      -0.0200
     49  CD1       18.4450   85.9150    8.5220 C.ar   59  PHE59      -0.0042
     50  CD2       20.6520   85.1350    9.0010 C.ar   59  PHE59      -0.0042
     51  CE1       17.9220   84.6970    8.9530 C.ar   59  PHE59      -0.0003
     52  CE2       20.1430   83.9140    9.4260 C.ar   59  PHE59      -0.0003
     53  CZ        18.7770   83.6950    9.4050 C.ar   59  PHE59      -0.0000
     54  N         22.0000   78.8770    6.3960 N.3    68  TYR68      -0.1241
     55  CA        20.9220   78.4650    7.2970 C.3    68  TYR68       0.1605
     56  C         20.2590   77.1870    6.7980 C.2    68  TYR68       0.2264
     57  O         19.8790   77.0970    5.6250 O.2    68  TYR68      -0.2867
     58  CB        19.8750   79.5730    7.5100 C.3    68  TYR68       0.0534
     59  CG        19.1080   79.3490    8.7900 C.ar   68  TYR68      -0.0201
     60  CD1       19.6200   79.7840   10.0040 C.ar   68  TYR68      -0.0009
     61  CD2       17.8990   78.6590    8.7950 C.ar   68  TYR68      -0.0009
     62  CE1       18.9460   79.5580   11.1930 C.ar   68  TYR68       0.0417
     63  CE2       17.2090   78.4280    9.9910 C.ar   68  TYR68       0.0417
     64  CZ        17.7420   78.8820   11.1820 C.ar   68  TYR68       0.1957
     65  OH        17.0810   78.6590   12.3790 O.3    68  TYR68      -0.2866
     66  N         23.7740   92.7470   17.1680 N.3   114  ARG114     -0.1245
     67  CA        23.1870   92.4400   15.8680 C.3   114  ARG114      0.1563
     68  C         22.3580   93.6110   15.3430 C.2   114  ARG114      0.2260
     69  O         21.1300   93.5680   15.3850 O.2   114  ARG114     -0.2867
     70  CB        22.2950   91.1940   15.9650 C.3   114  ARG114      0.0307
     71  CG        22.9800   89.9550   16.5400 C.3   114  ARG114      0.0489
     72  CD        22.0430   88.7460   16.4930 C.3   114  ARG114      0.2205
     73  NE        21.7740   88.3230   15.1210 N.pl3 114  ARG114     -0.0865
     74  CZ        20.9530   87.3330   14.7940 C.cat 114  ARG114      0.5346
     75  NH1       20.2960   86.6650   15.7430 N.pl3 114  ARG114      0.1354
     76  NH2       20.7830   87.0150   13.5140 N.pl3 114  ARG114      0.1354
     77  N         18.6770   93.6410   13.5640 N.3   117  HIS117     -0.1241
     78  CA        18.0470   92.3340   13.7480 C.3   117  HIS117      0.1621
     79  C         16.5980   92.4660   14.2070 C.2   117  HIS117      0.2264
     80  O         15.6890   91.8810   13.6090 O.2   117  HIS117     -0.2867
     81  CB        18.8360   91.4760   14.7490 C.3   117  HIS117      0.0745
     82  CG        18.1880   90.1560   15.0580 C.ar  117  HIS117      0.0817
     83  ND1       18.1860   89.1020   14.1730 N.ar  117  HIS117     -0.2268
     84  CD2       17.5080   89.7350   16.1530 C.ar  117  HIS117      0.1154
     85  CE1       17.5380   88.0790   14.7110 C.ar  117  HIS117      0.1986
     86  NE2       17.1150   88.4390   15.9090 N.ar  117  HIS117     -0.2212
     87  N         12.8290   91.4320   12.8470 N.3   121  VAL121     -0.1245
     88  CA        11.8780   90.6140   13.5950 C.3   121  VAL121      0.1561
     89  C         10.5150   91.2990   13.7590 C.2   121  VAL121      0.2260
     90  O          9.4710   90.6930   13.4920 O.2   121  VAL121     -0.2867
     91  CB        12.4300   90.2500   14.9920 C.3   121  VAL121      0.0252
     92  CG1       11.3730   89.5350   15.8300 C.3   121  VAL121      0.0019
     93  CG2       13.6950   89.3950   14.8590 C.3   121  VAL121      0.0019
     94  N          8.7270   91.7220   10.2290 N.3   124  VAL124     -0.1231
     95  CA         8.1700   90.5070    9.6390 C.3   124  VAL124      0.1692
     96  C          6.9990   89.9580   10.4610 C.2   124  VAL124      0.2591
     97  O          6.0400   89.4540    9.8930 O.2   124  VAL124     -0.2718
     98  CB         9.2390   89.4200    9.3430 C.3   124  VAL124      0.0266
     99  CG1        9.5780   88.6020   10.5910 C.3   124  VAL124      0.0020
    100  CG2        8.7580   88.4830    8.1990 C.3   124  VAL124      0.0020
    101  N          7.0510   90.0830   11.7890 N.am  125  LEU125     -0.1980
    102  CA         5.9540   89.5730   12.6100 C.3   125  LEU125      0.1596
    103  C          4.7070   90.4550   12.5090 C.2   125  LEU125      0.2287
    104  O          3.5940   89.9550   12.5710 O.2   125  LEU125     -0.2864
    105  CB         6.3750   89.3890   14.0690 C.3   125  LEU125      0.0297
    106  CG         7.3400   88.2160   14.2920 C.3   125  LEU125      0.0022
    107  CD1        7.7920   88.1650   15.7430 C.3   125  LEU125      0.0001
    108  CD2        6.6920   86.8860   13.8740 C.3   125  LEU125      0.0001
    109  N          3.1900   89.0220    9.3590 N.3   128  PHE128     -0.1241
    110  CA         2.5690   87.7260    9.6360 C.3   128  PHE128      0.1605
    111  C          1.3120   87.8790   10.4970 C.2   128  PHE128      0.2264
    112  O          0.3020   87.2260   10.2350 O.2   128  PHE128     -0.2867
    113  CB         3.5470   86.7830   10.3420 C.3   128  PHE128      0.0534
    114  CG         4.4970   86.0550    9.4140 C.ar  128  PHE128     -0.0203
    115  CD1        4.0250   85.3240    8.3320 C.ar  128  PHE128     -0.0042
    116  CD2        5.8650   86.0870    9.6450 C.ar  128  PHE128     -0.0042
    117  CE1        4.9060   84.6390    7.4930 C.ar  128  PHE128     -0.0003
    118  CE2        6.7510   85.4040    8.8100 C.ar  128  PHE128     -0.0003
    119  CZ         6.2700   84.6840    7.7350 C.ar  128  PHE128     -0.0000
    120  N         14.6740   82.2900   22.9110 N.3   142  ASP142     -0.1239
    121  CA        14.9620   83.6450   22.4560 C.3   142  ASP142      0.1674
    122  C         14.2530   84.6380   23.3640 C.2   142  ASP142      0.2266
    123  O         13.2410   85.2320   22.9920 O.2   142  ASP142     -0.2867
    124  CB        14.5530   83.8150   21.0030 C.3   142  ASP142      0.1410
    125  CG        15.2540   82.8190   20.0990 C.2   142  ASP142      0.3668
    126  OD1       16.4030   83.0860   19.6880 O.co2 142  ASP142     -0.2456
    127  OD2       14.6690   81.7500   19.8310 O.co2 142  ASP142     -0.2456
    128  N         13.7660   88.3540   22.3680 N.3   145  GLN145     -0.1245
    129  CA        12.7530   88.3770   21.3210 C.3   145  GLN145      0.1566
    130  C         11.3270   88.3300   21.8780 C.2   145  GLN145      0.2260
    131  O         10.4640   89.0960   21.4420 O.2   145  GLN145     -0.2867
    132  CB        12.9650   87.2350   20.3360 C.3   145  GLN145      0.0367
    133  CG        11.8790   87.1400   19.2770 C.3   145  GLN145      0.0905
    134  CD        12.2240   86.1380   18.1890 C.2   145  GLN145      0.2608
    135  OE1       12.7600   86.5060   17.1380 O.2   145  GLN145     -0.2717
    136  NE2       11.9280   84.8590   18.4380 N.am  145  GLN145     -0.0878
    137  N         20.5530   75.6790   14.3600 N.3   178  ARG178     -0.1245
    138  CA        21.9700   75.9810   14.1760 C.3   178  ARG178      0.1563
    139  C         22.9080   74.9360   14.7870 C.2   178  ARG178      0.2260
    140  O         24.1020   74.9370   14.4930 O.2   178  ARG178     -0.2867
    141  CB        22.3190   77.3760   14.7000 C.3   178  ARG178      0.0307
    142  CG        21.7200   78.5100   13.8700 C.3   178  ARG178      0.0489
    143  CD        22.2530   79.8620   14.3120 C.3   178  ARG178      0.2205
    144  NE        21.9410   80.9220   13.3560 N.pl3 178  ARG178     -0.0865
    145  CZ        21.0180   81.8640   13.5410 C.cat 178  ARG178      0.5346
    146  NH1       20.2890   81.8940   14.6570 N.pl3 178  ARG178      0.1354
    147  NH2       20.8280   82.7850   12.6090 N.pl3 178  ARG178      0.1354
    148  N         22.9590   80.6390   21.8040 N.3   263  ILE263     -0.1245
    149  CA        22.4400   81.3860   22.9490 C.3   263  ILE263      0.1561
    150  C         21.6690   80.4570   23.8860 C.2   263  ILE263      0.2260
    151  O         21.1740   79.4050   23.4760 O.2   263  ILE263     -0.2867
    152  CB        21.5460   82.5910   22.5420 C.3   263  ILE263      0.0252
    153  CG1       20.2120   82.1210   21.9540 C.3   263  ILE263      0.0019
    154  CG2       22.2950   83.5380   21.5830 C.3   263  ILE263      0.0019
    155  CD1       19.2400   83.2700   21.6540 C.3   263  ILE263      0.0001
@<TRIPOS>BOND
     1    23    25   ar
     2    23    21   ar
     3    25    24   ar
     4    21    20   ar
     5    24    22   ar
     6    20    22   ar
     7    20    19    1
     8    57    56    2
     9    54    55    1
    10    19    16    1
    11    16    17    1
    12    16    15    1
    13    28    27    1
    14    28    29    2
    15    56    55    1
    16    32    31    2
    17    27    26    1
    18    27    30    1
    19    17    18    2
    20    55    58    1
    21   117   119   ar
    22   117   115   ar
    23    58    59    1
    24    46    45    2
    25   119   118   ar
    26    47    48    1
    27    47    44    1
    28    31    30    1
    29    31    33   am
    30   100    98    1
    31   115   114   ar
    32    49    48   ar
    33    49    51   ar
    34    45    44    1
    35    48    50   ar
    36    59    61   ar
    37    59    60   ar
    38    61    63   ar
    39   118   116   ar
    40    51    53   ar
    41    50    52   ar
    42    34    35    1
    43    44    43    1
    44    43    36   am
    45    98    95    1
    46    98    99    1
    47   109   110    1
    48    53    52   ar
    49   114   116   ar
    50   114   113    1
    51   110   113    1
    52   110   111    1
    53    95    94    1
    54    95    96    1
    55    97    96    2
    56    63    64   ar
    57    60    62   ar
    58   112   111    2
    59    35    36    1
    60    35    38    1
    61    36    37    2
    62    96   101   am
    63    11    10    2
    64    39    38    1
    65    39    40    1
    66    64    62   ar
    67    64    65    1
    68    13    12    1
    69    10     9    1
    70    41    40    2
    71   101   102    1
    72    40    42   am
    73   103   104    2
    74   103   102    1
    75   147   145    1
    76   102   105    1
    77     8     9    1
    78     8     3   am
    79     9    12    1
    80    12    14    1
    81    87    88    1
    82   144   145    2
    83   144   143    1
    84    90    89    2
    85    76    74    1
    86   145   146    1
    87    77    78    1
    88    88    89    1
    89    88    91    1
    90     2     3    1
    91     2     5    1
    92     2     1    1
    93    80    79    2
    94    78    79    1
    95    78    81    1
    96     3     4    2
    97     5     6    1
    98   142   143    1
    99   142   141    1
   100   108   106    1
   101   105   106    1
   102    83    85   ar
   103    83    82   ar
   104   138   137    1
   105   138   141    1
   106   138   139    1
   107   106   107    1
   108   140   139    2
   109     1     7    1
   110    85    86   ar
   111    81    82    1
   112    74    73    2
   113    74    75    1
   114    93    91    1
   115    91    92    1
   116    82    84   ar
   117    73    72    1
   118     6     7    1
   119    68    69    2
   120    68    67    1
   121    67    70    1
   122    67    66    1
   123    86    84   ar
   124    70    71    1
   125    72    71    1
   126   135   134    2
   127   134   136   am
   128   134   133    1
   129   133   132    1
   130   126   125   ar
   131   127   125   ar
   132   125   124    1
   133   132   129    1
   134   124   121    1
   135   129   130    1
   136   129   128    1
   137   131   130    2
   138   154   152    1
   139   155   153    1
   140   148   149    1
   141   153   152    1
   142   121   120    1
   143   121   122    1
   144   152   149    1
   145   149   150    1
   146   123   122    2
   147   151   150    2
