@<TRIPOS>MOLECULE
tmp/3uykB00.pdb
 145 144 0 0 0
SMALL
GASTEIGER

@<TRIPOS>ATOM
      1  N          3.5830   60.4430  -10.7750 N.3     8  LEU8       -0.1231
      2  CA         2.5270   60.0000  -11.6690 C.3     8  LEU8        0.1678
      3  C          2.3690   58.4660  -11.6130 C.2     8  LEU8        0.2434
      4  O          3.3210   57.7860  -11.3300 O.2     8  LEU8       -0.2733
      5  CB         2.9560   60.3200  -13.0970 C.3     8  LEU8        0.0284
      6  CG         2.6040   61.6840  -13.6120 C.3     8  LEU8        0.0019
      7  CD1        2.8690   61.6760  -15.1230 C.3     8  LEU8        0.0001
      8  CD2        1.1730   62.0820  -13.3410 C.3     8  LEU8        0.0001
      9  N          1.1820   57.9100  -11.9150 N.am    9  PRO9       -0.2718
     10  CA         1.0090   56.4660  -11.6820 C.3     9  PRO9        0.1535
     11  C          1.5840   55.5710  -12.7540 C.2     9  PRO9        0.2598
     12  O          0.8880   54.6910  -13.2710 O.2     9  PRO9       -0.2715
     13  CB        -0.5210   56.2900  -11.6110 C.3     9  PRO9        0.0310
     14  CG        -1.0230   57.3690  -12.4820 C.3     9  PRO9        0.0237
     15  CD        -0.1010   58.5480  -12.2420 C.3     9  PRO9        0.0939
     16  N          2.8590   55.7960  -13.0800 N.am   10  TYR10      -0.1974
     17  CA         3.5830   55.0140  -14.0670 C.3    10  TYR10       0.1639
     18  C          4.9230   54.6190  -13.4600 C.2    10  TYR10       0.2290
     19  O          5.6520   55.5070  -12.9640 O.2    10  TYR10      -0.2864
     20  CB         3.8170   55.7940  -15.3350 C.3    10  TYR10       0.0560
     21  CG         2.4820   56.2480  -15.8860 C.ar   10  TYR10      -0.0198
     22  CD1        1.6480   55.3230  -16.5240 C.ar   10  TYR10      -0.0009
     23  CD2        1.9930   57.5250  -15.6480 C.ar   10  TYR10      -0.0009
     24  CE1        0.3890   55.6740  -16.9720 C.ar   10  TYR10       0.0417
     25  CE2        0.7280   57.8950  -16.0930 C.ar   10  TYR10       0.0417
     26  CZ        -0.0640   56.9720  -16.7580 C.ar   10  TYR10       0.1957
     27  OH        -1.3210   57.2970  -17.1990 O.3    10  TYR10      -0.2866
     28  N          7.7900   53.8440  -14.5820 N.3    12  THR12      -0.1203
     29  CA         8.9990   54.5300  -14.9830 C.3    12  THR12       0.1994
     30  C          9.2390   55.9500  -14.3570 C.2    12  THR12       0.2617
     31  O         10.3840   56.4370  -14.1640 O.2    12  THR12      -0.2717
     32  CB         9.0530   54.5960  -16.5150 C.3    12  THR12       0.1784
     33  OG1       10.1330   55.4600  -16.8800 O.3    12  THR12      -0.2211
     34  CG2        7.8570   55.2550  -16.9510 C.3    12  THR12       0.0376
     35  N          8.1620   56.6820  -14.0780 N.am   13  HIS13      -0.1975
     36  CA         8.2750   57.9650  -13.3590 C.3    13  HIS13       0.1656
     37  C          8.7600   57.7990  -11.9180 C.2    13  HIS13       0.2291
     38  O          9.5740   58.5680  -11.4630 O.2    13  HIS13      -0.2864
     39  CB         6.9040   58.6180  -13.3610 C.3    13  HIS13       0.0771
     40  CG         6.5160   59.1410  -14.7380 C.ar   13  HIS13       0.0820
     41  ND1        6.4010   60.4650  -15.0020 N.ar   13  HIS13      -0.2267
     42  CD2        6.2610   58.4680  -15.9390 C.ar   13  HIS13       0.1154
     43  CE1        6.0890   60.6250  -16.3090 C.ar   13  HIS13       0.1986
     44  NE2        5.9890   59.4060  -16.8780 N.ar   13  HIS13      -0.2212
     45  N         -0.9130   68.3640  -25.3930 N.3    72  TRP72      -0.1241
     46  CA        -0.3560   68.6600  -24.1230 C.3    72  TRP72       0.1605
     47  C         -1.3870   69.3400  -23.2330 C.2    72  TRP72       0.2264
     48  O         -1.3590   69.1200  -21.9920 O.2    72  TRP72      -0.2867
     49  CB         0.8690   69.6000  -24.3320 C.3    72  TRP72       0.0550
     50  CG         2.0600   68.7410  -24.7800 C.ar   72  TRP72       0.0003
     51  CD1        2.5710   68.5280  -26.0890 C.ar   72  TRP72       0.0946
     52  CD2        2.8960   67.9250  -23.9070 C.ar   72  TRP72       0.0152
     53  NE1        3.6480   67.6770  -26.0200 N.ar   72  TRP72      -0.2442
     54  CE2        3.9030   67.2920  -24.7570 C.ar   72  TRP72       0.0810
     55  CE3        2.9570   67.7160  -22.5110 C.ar   72  TRP72       0.0012
     56  CZ2        4.9320   66.4700  -24.2390 C.ar   72  TRP72       0.0191
     57  CZ3        3.9500   66.8370  -21.9820 C.ar   72  TRP72       0.0001
     58  CH2        4.9330   66.1910  -22.8380 C.ar   72  TRP72       0.0015
     59  N         -3.4540   66.4230  -21.8850 N.3    75  THR75      -0.1218
     60  CA        -2.7030   65.7250  -20.8270 C.3    75  THR75       0.1862
     61  C         -2.8590   66.5060  -19.5000 C.2    75  THR75       0.2287
     62  O         -3.1460   65.9220  -18.4200 O.2    75  THR75      -0.2866
     63  CB        -1.2190   65.7070  -21.1960 C.3    75  THR75       0.1770
     64  OG1       -1.0650   65.0910  -22.4880 O.3    75  THR75      -0.2211
     65  CG2       -0.3720   64.9120  -20.1700 C.3    75  THR75       0.0375
     66  N         -6.3520   65.9920  -18.1100 N.3    78  ASN78      -0.1225
     67  CA        -6.4730   64.6510  -17.5200 C.3    78  ASN78       0.1785
     68  C         -5.9210   64.6180  -16.0920 C.2    78  ASN78       0.2597
     69  O         -6.5720   64.0770  -15.1520 O.2    78  ASN78      -0.2718
     70  CB        -5.7740   63.5890  -18.3880 C.3    78  ASN78       0.1169
     71  CG        -6.4540   63.3460  -19.6980 C.2    78  ASN78       0.2627
     72  OD1       -7.5580   63.7470  -19.8960 O.2    78  ASN78      -0.2716
     73  ND2       -5.7390   62.6350  -20.6430 N.am   78  ASN78      -0.0877
     74  N         -4.7220   65.1410  -15.9260 N.am   79  VAL79      -0.1980
     75  CA        -4.0500   65.1430  -14.6790 C.3    79  VAL79       0.1595
     76  C         -4.7740   66.0620  -13.6850 C.2    79  VAL79       0.2287
     77  O         -4.9040   65.7020  -12.4780 O.2    79  VAL79      -0.2864
     78  CB        -2.5650   65.5570  -14.8350 C.3    79  VAL79       0.0276
     79  CG1       -1.8260   65.4210  -13.5200 C.3    79  VAL79       0.0022
     80  CG2       -1.8620   64.4850  -15.6680 C.3    79  VAL79       0.0022
     81  N         -8.0680   64.2370  -12.5690 N.3    82  SER82      -0.1217
     82  CA        -7.6250   63.2360  -11.5970 C.3    82  SER82       0.1889
     83  C         -7.1230   63.8450  -10.2390 C.2    82  SER82       0.2288
     84  O         -7.4040   63.2740   -9.1250 O.2    82  SER82      -0.2866
     85  CB        -6.5820   62.3420  -12.2910 C.3    82  SER82       0.2089
     86  OG        -6.0630   61.4100  -11.4010 O.3    82  SER82      -0.2183
     87  N          4.9290   66.3180  -13.5840 N.3   107  CYS107     -0.1235
     88  CA         3.6090   66.1950  -14.1680 C.3   107  CYS107      0.1677
     89  C          2.4550   65.8980  -13.1650 C.2   107  CYS107      0.2270
     90  O          1.2950   65.9530  -13.5840 O.2   107  CYS107     -0.2867
     91  CB         3.5930   65.1590  -15.2340 C.3   107  CYS107      0.0956
     92  SG         4.4190   65.8720  -16.7520 S.3   107  CYS107     -0.0801
     93  N         11.9220   63.8430  -14.8730 N.3   127  TRP127     -0.1241
     94  CA        12.4710   62.5160  -15.1030 C.3   127  TRP127      0.1605
     95  C         13.4470   62.5290  -16.2440 C.2   127  TRP127      0.2264
     96  O         14.2220   61.5920  -16.4840 O.2   127  TRP127     -0.2867
     97  CB        11.3260   61.5200  -15.3370 C.3   127  TRP127      0.0550
     98  CG        10.7110   61.8410  -16.6460 C.ar  127  TRP127      0.0003
     99  CD1       11.1870   61.5580  -17.9440 C.ar  127  TRP127      0.0946
    100  CD2        9.5190   62.6110  -16.8170 C.ar  127  TRP127      0.0152
    101  NE1       10.3430   62.1020  -18.8990 N.ar  127  TRP127     -0.2442
    102  CE2        9.3260   62.7750  -18.2720 C.ar  127  TRP127      0.0810
    103  CE3        8.6580   63.2530  -15.9410 C.ar  127  TRP127      0.0012
    104  CZ2        8.2680   63.4880  -18.7810 C.ar  127  TRP127      0.0191
    105  CZ3        7.5890   63.9660  -16.4750 C.ar  127  TRP127      0.0001
    106  CH2        7.4030   64.0880  -17.8570 C.ar  127  TRP127      0.0015
    107  N          5.5440   49.7310  -20.9210 N.3   212  MET212     -0.1245
    108  CA         4.5990   50.7970  -21.1150 C.3   212  MET212      0.1570
    109  C          4.4980   51.2280  -22.5730 C.2   212  MET212      0.2261
    110  O          3.3910   51.4190  -23.1010 O.2   212  MET212     -0.2867
    111  CB         4.9480   52.0130  -20.2700 C.3   212  MET212      0.0387
    112  CG         3.9140   53.1100  -20.3380 C.3   212  MET212      0.0595
    113  SD         4.4360   54.4930  -19.2710 S.3   212  MET212     -0.1393
    114  CE         5.6950   55.3040  -20.2870 C.3   212  MET212      0.0692
    115  N          5.7100   58.9610  -28.1730 N.3   299  TYR299     -0.1227
    116  CA         4.7590   59.9350  -27.5140 C.3   299  TYR299      0.1736
    117  C          5.4770   60.8490  -26.4990 C.2   299  TYR299      0.2595
    118  O          6.6860   60.6770  -26.2190 O.2   299  TYR299     -0.2718
    119  CB         3.6110   59.1460  -26.8010 C.3   299  TYR299      0.0548
    120  CG         4.0910   58.0080  -25.9280 C.ar  299  TYR299     -0.0200
    121  CD1        5.0440   58.1820  -24.9050 C.ar  299  TYR299     -0.0009
    122  CD2        3.6690   56.7180  -26.1790 C.ar  299  TYR299     -0.0009
    123  CE1        5.4710   57.1480  -24.0630 C.ar  299  TYR299      0.0417
    124  CE2        4.1160   55.6960  -25.3750 C.ar  299  TYR299      0.0417
    125  CZ         5.0270   55.9060  -24.3480 C.ar  299  TYR299      0.1957
    126  OH         5.4220   54.8150  -23.5790 O.3   299  TYR299     -0.2866
    127  N          4.6980   61.8180  -25.9760 N.am  300  PHE300     -0.1962
    128  CA         5.1730   62.7250  -24.9130 C.3   300  PHE300      0.1771
    129  C          6.5540   63.2850  -25.2200 C.2   300  PHE300      0.2619
    130  O          6.7120   63.8600  -26.3030 O.2   300  PHE300     -0.2715
    131  CB         5.0190   62.0340  -23.5530 C.3   300  PHE300      0.0574
    132  CG         3.5870   61.7950  -23.2640 C.ar  300  PHE300     -0.0200
    133  CD1        3.0350   60.5020  -23.4000 C.ar  300  PHE300     -0.0042
    134  CD2        2.7330   62.8990  -22.9710 C.ar  300  PHE300     -0.0042
    135  CE1        1.6360   60.3140  -23.2050 C.ar  300  PHE300     -0.0003
    136  CE2        1.3600   62.6930  -22.7200 C.ar  300  PHE300     -0.0003
    137  CZ         0.8230   61.4120  -22.8880 C.ar  300  PHE300     -0.0000
    138  N          7.5200   63.0740  -24.3250 N.am  301  ASP301     -0.1971
    139  CA         8.8300   63.7420  -24.4390 C.3   301  ASP301      0.1709
    140  C          9.8040   63.0890  -25.3970 C.2   301  ASP301      0.2293
    141  O         10.9180   63.5270  -25.5370 O.2   301  ASP301     -0.2864
    142  CB         9.4570   63.8690  -23.0520 C.3   301  ASP301      0.1436
    143  CG         9.5230   62.5630  -22.3690 C.2   301  ASP301      0.3671
    144  OD1        8.4350   61.8940  -22.2080 O.co2 301  ASP301     -0.2456
    145  OD2       10.6140   62.2700  -21.9600 O.co2 301  ASP301     -0.2456
@<TRIPOS>BOND
     1   115   116    1
     2   116   119    1
     3   116   117    1
     4   119   120    1
     5   117   118    2
     6   117   127   am
     7   130   129    2
     8   122   120   ar
     9   122   124   ar
    10    51    53   ar
    11    51    50   ar
    12    53    54   ar
    13   127   128    1
    14   120   121   ar
    15   141   140    2
    16   140   139    1
    17    45    46    1
    18   124   125   ar
    19   129   128    1
    20   129   138   am
    21   128   131    1
    22   121   123   ar
    23    50    49    1
    24    50    52   ar
    25    54    56   ar
    26    54    52   ar
    27   139   138    1
    28   139   142    1
    29   125   123   ar
    30   125   126    1
    31    49    46    1
    32    56    58   ar
    33    46    47    1
    34    52    55   ar
    35   131   132    1
    36   133   132   ar
    37   133   135   ar
    38   132   134   ar
    39    47    48    2
    40   135   137   ar
    41   110   109    2
    42   142   143    1
    43   134   136   ar
    44   137   136   ar
    45    58    57   ar
    46   109   108    1
    47    55    57   ar
    48    64    63    1
    49   143   144   ar
    50   143   145   ar
    51    59    60    1
    52    63    60    1
    53    63    65    1
    54   108   107    1
    55   108   111    1
    56    60    61    1
    57    73    71   am
    58   112   111    1
    59   112   113    1
    60   114   113    1
    61    72    71    2
    62    71    70    1
    63    61    62    2
    64   101   102   ar
    65   101    99   ar
    66   104   102   ar
    67   104   106   ar
    68    70    67    1
    69   102   100   ar
    70    66    67    1
    71    99    98   ar
    72   106   105   ar
    73    67    68    1
    74    27    26    1
    75    24    26   ar
    76    24    22   ar
    77    34    32    1
    78    33    32    1
    79    44    43   ar
    80    44    42   ar
    81   100    98   ar
    82   100   103   ar
    83    26    25   ar
    84    92    91    1
    85    98    97    1
    86    22    21   ar
    87    32    29    1
    88    96    95    2
    89   105   103   ar
    90    43    41   ar
    91    95    94    1
    92    25    23   ar
    93    68    74   am
    94    68    69    2
    95    42    40   ar
    96    74    75    1
    97    21    23   ar
    98    21    20    1
    99    80    78    1
   100    97    94    1
   101    20    17    1
   102    91    88    1
   103     7     6    1
   104    94    93    1
   105    41    40   ar
   106    29    28    1
   107    29    30    1
   108    78    75    1
   109    78    79    1
   110    40    39    1
   111    75    76    1
   112    30    31    2
   113    30    35   am
   114    88    87    1
   115    88    89    1
   116    35    36    1
   117    17    18    1
   118    17    16    1
   119    76    77    2
   120     6     8    1
   121     6     5    1
   122    90    89    2
   123    18    19    2
   124    39    36    1
   125    36    37    1
   126    12    11    2
   127     5     2    1
   128    16    11   am
   129    11    10    1
   130    81    82    1
   131    14    15    1
   132    14    13    1
   133    85    82    1
   134    85    86    1
   135    15     9    1
   136    37    38    2
   137     9    10    1
   138     9     3   am
   139    10    13    1
   140     2     3    1
   141     2     1    1
   142     3     4    2
   143    82    83    1
   144    83    84    2
