@<TRIPOS>MOLECULE
tmp/3uylB00.pdb
 171 167 0 0 0
SMALL
GASTEIGER

@<TRIPOS>ATOM
      1  N          5.9660   54.1890  -13.7870 N.3    11  PRO11      -0.2102
      2  CA         7.2590   53.7060  -13.2270 C.3    11  PRO11       0.1504
      3  C          8.4820   54.5780  -13.4840 C.2    11  PRO11       0.2576
      4  O          9.1270   54.9760  -12.5450 O.2    11  PRO11      -0.2718
      5  CB         7.4260   52.3430  -13.8950 C.3    11  PRO11       0.0282
      6  CG         6.0310   51.8290  -13.8880 C.3    11  PRO11       0.0208
      7  CD         5.1470   53.0460  -14.2370 C.3    11  PRO11       0.0893
      8  N          8.7910   54.9200  -14.7400 N.am   12  THR12      -0.1953
      9  CA         9.9680   55.7680  -15.0180 C.3    12  THR12       0.1897
     10  C         10.0400   57.0620  -14.2420 C.2    12  THR12       0.2313
     11  O         11.1320   57.4770  -13.8490 O.2    12  THR12      -0.2863
     12  CB        10.1760   55.9920  -16.5130 C.3    12  THR12       0.1794
     13  OG1       10.5050   54.7290  -17.0620 O.3    12  THR12      -0.2208
     14  CG2       11.3860   56.9550  -16.8040 C.3    12  THR12       0.0378
     15  N         11.1300   55.8860  -10.7250 N.3    15  MET15      -0.1245
     16  CA        12.5080   55.3900  -10.7830 C.3    15  MET15       0.1570
     17  C         13.5330   56.5060  -10.9060 C.2    15  MET15       0.2261
     18  O         14.6560   56.3600  -10.4450 O.2    15  MET15      -0.2867
     19  CB        12.6860   54.4320  -11.9570 C.3    15  MET15       0.0387
     20  CG        12.2320   53.0560  -11.5130 C.3    15  MET15       0.0595
     21  SD        11.8070   52.0150  -12.9080 S.3    15  MET15      -0.1393
     22  CE        13.4350   51.2820  -13.1540 C.3    15  MET15       0.0692
     23  N         19.3550   53.9860  -12.2500 N.3   187  TYR187     -0.1227
     24  CA        18.5270   52.9250  -11.6050 C.3   187  TYR187      0.1736
     25  C         17.5890   52.2270  -12.5820 C.2   187  TYR187      0.2595
     26  O         16.6160   52.8340  -13.0720 O.2   187  TYR187     -0.2718
     27  CB        17.7520   53.4710  -10.3700 C.3   187  TYR187      0.0548
     28  CG        16.8980   52.4080   -9.7330 C.ar  187  TYR187     -0.0200
     29  CD1       17.5040   51.2680   -9.1590 C.ar  187  TYR187     -0.0009
     30  CD2       15.4980   52.5050   -9.6830 C.ar  187  TYR187     -0.0009
     31  CE1       16.7420   50.2710   -8.5990 C.ar  187  TYR187      0.0417
     32  CE2       14.7480   51.4930   -9.1400 C.ar  187  TYR187      0.0417
     33  CZ        15.3950   50.3930   -8.5690 C.ar  187  TYR187      0.1957
     34  OH        14.6980   49.3090   -8.0480 O.3   187  TYR187     -0.2866
     35  N         17.8000   50.9230  -12.8300 N.am  188  ASN188     -0.1974
     36  CA        16.9960   50.2430  -13.8760 C.3   188  ASN188      0.1688
     37  C         16.2330   49.0890  -13.2690 C.2   188  ASN188      0.2292
     38  O         15.7200   48.2200  -13.9950 O.2   188  ASN188     -0.2864
     39  CB        17.8750   49.6920  -15.0090 C.3   188  ASN188      0.1181
     40  CG        18.8120   50.7330  -15.6400 C.2   188  ASN188      0.2629
     41  OD1       20.0000   50.4630  -15.8870 O.2   188  ASN188     -0.2716
     42  ND2       18.2800   51.8870  -15.9640 N.am  188  ASN188     -0.0877
     43  N         15.9540   47.9210  -26.5270 N.3   209  CYS209     -0.1221
     44  CA        15.0860   47.9990  -25.3510 C.3   209  CYS209      0.1808
     45  C         14.0660   49.1360  -25.5660 C.2   209  CYS209      0.2601
     46  O         14.4430   50.3430  -25.7000 O.2   209  CYS209     -0.2717
     47  CB        15.9000   48.2150  -24.0780 C.3   209  CYS209      0.0970
     48  SG        14.7930   48.2260  -22.6020 S.3   209  CYS209     -0.0800
     49  N         12.8070   48.7270  -25.6150 N.am  210  MET210     -0.1965
     50  CA        11.6490   49.6310  -25.7880 C.3   210  MET210      0.1736
     51  C         10.8630   49.8960  -24.4480 C.2   210  MET210      0.2617
     52  O          9.9420   50.7210  -24.4360 O.2   210  MET210     -0.2715
     53  CB        10.6420   49.0830  -26.8210 C.3   210  MET210      0.0427
     54  CG        11.0130   49.1060  -28.2980 C.3   210  MET210      0.0599
     55  SD        11.6530   50.6930  -28.9110 S.3   210  MET210     -0.1393
     56  CE        12.8840   50.0220  -30.0570 C.3   210  MET210      0.0692
     57  N         11.1870   49.1950  -23.3600 N.am  211  GLY211     -0.1940
     58  CA        10.2920   49.1610  -22.1370 C.3   211  GLY211      0.2014
     59  C          8.7640   48.8600  -22.1770 C.2   211  GLY211      0.2639
     60  O          8.0100   49.0100  -23.2360 O.2   211  GLY211     -0.2714
     61  N          8.2800   48.4340  -21.0010 N.am  212  ARG212     -0.1963
     62  CA         6.9170   47.9060  -20.8590 C.3   212  ARG212      0.1729
     63  C          5.9110   48.9030  -21.2820 C.2   212  ARG212      0.2616
     64  O          5.0150   48.5960  -22.0710 O.2   212  ARG212     -0.2715
     65  CB         6.6680   47.5210  -19.4010 C.3   212  ARG212      0.0348
     66  CG         5.2450   47.1430  -19.0070 C.3   212  ARG212      0.0492
     67  CD         5.2320   46.8410  -17.5060 C.3   212  ARG212      0.2205
     68  NE         5.9510   45.5800  -17.2670 N.pl3 212  ARG212     -0.0865
     69  CZ         6.3960   45.1090  -16.0910 C.cat 212  ARG212      0.5346
     70  NH1        6.2330   45.8080  -14.9730 N.pl3 212  ARG212      0.1354
     71  NH2        6.9880   43.9060  -16.0390 N.pl3 212  ARG212      0.1354
     72  N          6.0420   50.1190  -20.7710 N.am  213  MET213     -0.1963
     73  CA         4.9640   51.0560  -20.9690 C.3   213  MET213      0.1736
     74  C          4.8530   51.3610  -22.4500 C.2   213  MET213      0.2616
     75  O          3.7660   51.4370  -22.9700 O.2   213  MET213     -0.2715
     76  CB         5.0930   52.3180  -20.0880 C.3   213  MET213      0.0427
     77  CG         5.4530   52.0050  -18.6270 C.3   213  MET213      0.0599
     78  SD         4.3440   50.8660  -17.7100 S.3   213  MET213     -0.1393
     79  CE         2.9900   52.0250  -17.4640 C.3   213  MET213      0.0692
     80  N          5.9650   51.5000  -23.1610 N.am  214  VAL214     -0.1977
     81  CA         5.8450   51.9230  -24.5440 C.3   214  VAL214      0.1596
     82  C          5.0250   50.9340  -25.3460 C.2   214  VAL214      0.2287
     83  O          4.0070   51.3040  -25.9710 O.2   214  VAL214     -0.2864
     84  CB         7.2020   52.1730  -25.2330 C.3   214  VAL214      0.0276
     85  CG1        6.9340   52.4220  -26.7010 C.3   214  VAL214      0.0022
     86  CG2        7.8430   53.4040  -24.6230 C.3   214  VAL214      0.0022
     87  N         16.1360   43.4050  -24.7510 N.3   241  ALA241     -0.1231
     88  CA        15.7570   43.4790  -23.3470 C.3   241  ALA241      0.1694
     89  C         14.2680   43.7170  -23.2710 C.2   241  ALA241      0.2592
     90  O         13.7940   44.7600  -23.6940 O.2   241  ALA241     -0.2718
     91  CB        16.5290   44.5950  -22.6600 C.3   241  ALA241      0.0304
     92  N         13.5320   42.7590  -22.7060 N.am  242  VAL242     -0.1966
     93  CA        12.0710   42.7800  -22.7000 C.3   242  VAL242      0.1712
     94  C         11.6140   42.3830  -21.3150 C.2   242  VAL242      0.2458
     95  O         12.3320   41.6030  -20.6830 O.2   242  VAL242     -0.2730
     96  CB        11.5150   41.7430  -23.7370 C.3   242  VAL242      0.0289
     97  CG1       11.4390   42.3990  -25.1120 C.3   242  VAL242      0.0023
     98  CG2       12.3470   40.4660  -23.7590 C.3   242  VAL242      0.0023
     99  N         10.4570   42.8930  -20.8220 N.am  243  PRO243     -0.2727
    100  CA         9.8130   42.3560  -19.5690 C.3   243  PRO243      0.1402
    101  C          9.2610   40.9440  -19.9420 C.2   243  PRO243      0.2269
    102  O          9.1830   40.6670  -21.1240 O.2   243  PRO243     -0.2865
    103  CB         8.6770   43.3500  -19.2970 C.3   243  PRO243      0.0296
    104  CG         8.3770   43.9440  -20.6290 C.3   243  PRO243      0.0237
    105  CD         9.6630   43.9790  -21.4300 C.3   243  PRO243      0.0939
    106  N         17.3920   39.2470  -23.1350 N.3   260  ALA260     -0.1245
    107  CA        17.7430   39.6360  -21.7470 C.3   260  ALA260      0.1562
    108  C         16.4400   40.0120  -21.0480 C.2   260  ALA260      0.2260
    109  O         15.9180   41.1520  -21.2220 O.2   260  ALA260     -0.2867
    110  CB        18.7130   40.7830  -21.7140 C.3   260  ALA260      0.0290
    111  N         14.0530   41.2260  -18.2490 N.3   262  SER262     -0.1202
    112  CA        14.2110   42.0150  -17.0300 C.3   262  SER262      0.2020
    113  C         15.6700   42.0520  -16.4850 C.2   262  SER262      0.2619
    114  O         15.8650   41.7540  -15.3040 O.2   262  SER262     -0.2717
    115  CB        13.2320   41.4630  -15.9440 C.3   262  SER262      0.2103
    116  OG        11.9130   41.7710  -16.3310 O.3   262  SER262     -0.2182
    117  N         16.6870   42.3180  -17.3240 N.am  263  VAL263     -0.1966
    118  CA        18.0860   42.4620  -16.8580 C.3   263  VAL263      0.1712
    119  C         18.4400   43.9770  -16.7870 C.2   263  VAL263      0.2458
    120  O         18.3250   44.6660  -17.8020 O.2   263  VAL263     -0.2730
    121  CB        19.1030   41.7040  -17.8010 C.3   263  VAL263      0.0289
    122  CG1       20.5730   41.9670  -17.4020 C.3   263  VAL263      0.0023
    123  CG2       18.8580   40.2030  -17.8110 C.3   263  VAL263      0.0023
    124  N         18.7310   44.5300  -15.5610 N.am  264  PRO264     -0.2716
    125  CA        19.0500   45.9910  -15.5130 C.3   264  PRO264      0.1536
    126  C         20.0960   46.3290  -16.5610 C.2   264  PRO264      0.2598
    127  O         21.1640   45.7140  -16.6880 O.2   264  PRO264     -0.2715
    128  CB        19.5010   46.2310  -14.0680 C.3   264  PRO264      0.0310
    129  CG        18.7950   45.1280  -13.2770 C.3   264  PRO264      0.0237
    130  CD        18.6910   43.9270  -14.2130 C.3   264  PRO264      0.0939
    131  N         19.7530   47.3140  -17.3710 N.am  265  LEU265     -0.1978
    132  CA        20.6250   47.6950  -18.4680 C.3   265  LEU265      0.1596
    133  C         22.0690   48.0210  -18.1160 C.2   265  LEU265      0.2287
    134  O         22.9490   47.6590  -18.8650 O.2   265  LEU265     -0.2864
    135  CB        20.0150   48.8570  -19.1810 C.3   265  LEU265      0.0297
    136  CG        19.1940   48.7060  -20.4280 C.3   265  LEU265      0.0022
    137  CD1       18.4030   47.4190  -20.5790 C.3   265  LEU265      0.0001
    138  CD2       18.2550   49.9090  -20.4880 C.3   265  LEU265      0.0001
    139  N         12.2720   56.8910  -24.1100 N.3   280  GLY280     -0.1210
    140  CA        11.9330   56.8000  -22.6570 C.3   280  GLY280      0.1956
    141  C         13.2280   57.0780  -21.9010 C.2   280  GLY280      0.2613
    142  O         14.3220   56.5090  -22.2210 O.2   280  GLY280     -0.2717
    143  N         13.1230   57.9490  -20.9250 N.am  281  SER281     -0.1938
    144  CA        14.2680   58.5040  -20.2990 C.3   281  SER281      0.2055
    145  C         15.0730   57.4760  -19.4610 C.2   281  SER281      0.2644
    146  O         16.2690   57.6790  -19.1930 O.2   281  SER281     -0.2714
    147  CB        13.8230   59.7230  -19.4840 C.3   281  SER281      0.2130
    148  OG        13.3940   59.3850  -18.1700 O.3   281  SER281     -0.2179
    149  N         14.4350   56.3800  -19.0030 N.am  282  GLY282     -0.1939
    150  CA        15.2420   55.4220  -18.1870 C.3   282  GLY282      0.2014
    151  C         16.2640   54.6850  -19.0740 C.2   282  GLY282      0.2639
    152  O         17.4690   54.6960  -18.8150 O.2   282  GLY282     -0.2714
    153  N         15.7930   54.1330  -20.1860 N.am  283  THR283     -0.1950
    154  CA        16.7620   53.5040  -21.1330 C.3   283  THR283      0.1897
    155  C         17.7520   54.4850  -21.7400 C.2   283  THR283      0.2313
    156  O         18.9790   54.2430  -21.7620 O.2   283  THR283     -0.2863
    157  CB        16.0170   52.7510  -22.2210 C.3   283  THR283      0.1794
    158  OG1       15.2340   51.7630  -21.5940 O.3   283  THR283     -0.2208
    159  CG2       16.9930   51.9960  -23.1710 C.3   283  THR283      0.0378
    160  N          5.7830   59.2480  -28.2000 N.3   300  TYR300     -0.1241
    161  CA         4.8840   60.1560  -27.4930 C.3   300  TYR300      0.1605
    162  C          5.5720   61.1060  -26.4930 C.2   300  TYR300      0.2264
    163  O          6.7380   60.9390  -26.1940 O.2   300  TYR300     -0.2867
    164  CB         3.7710   59.3750  -26.7940 C.3   300  TYR300      0.0534
    165  CG         4.1620   58.2120  -25.9070 C.ar  300  TYR300     -0.0201
    166  CD1        5.0930   58.3450  -24.9110 C.ar  300  TYR300     -0.0009
    167  CD2        3.5440   56.9630  -26.0520 C.ar  300  TYR300     -0.0009
    168  CE1        5.4080   57.3090  -24.0580 C.ar  300  TYR300      0.0417
    169  CE2        3.8710   55.9040  -25.2220 C.ar  300  TYR300      0.0417
    170  CZ         4.7830   56.0870  -24.2240 C.ar  300  TYR300      0.1957
    171  OH         5.1260   55.0760  -23.3700 O.3   300  TYR300     -0.2866
@<TRIPOS>BOND
     1    56    55    1
     2    55    54    1
     3    54    53    1
     4   160   161    1
     5   161   164    1
     6   161   162    1
     7    53    50    1
     8   164   165    1
     9    85    84    1
    10    43    44    1
    11   162   163    2
    12   167   165   ar
    13   167   169   ar
    14    83    82    2
    15   165   166   ar
    16    50    49    1
    17    50    51    1
    18    46    45    2
    19    49    45   am
    20    45    44    1
    21    44    47    1
    22    82    81    1
    23    84    86    1
    24    84    81    1
    25   169   170   ar
    26    97    96    1
    27   166   168   ar
    28    87    88    1
    29    81    80    1
    30    51    52    2
    31    51    57   am
    32   170   168   ar
    33   170   171    1
    34   139   140    1
    35    47    48    1
    36    98    96    1
    37    96    93    1
    38    90    89    2
    39    57    58    1
    40    88    89    1
    41    88    91    1
    42    89    92   am
    43    60    59    2
    44   159   157    1
    45    80    74   am
    46   106   107    1
    47    75    74    2
    48    92    93    1
    49    93    94    1
    50   140   141    1
    51    74    73    1
    52   157   158    1
    53   157   154    1
    54   142   141    2
    55    59    58    1
    56    59    61   am
    57    64    63    2
    58   141   143   am
    59   156   155    2
    60   107   110    1
    61   107   108    1
    62   155   154    1
    63   105    99    1
    64   105   104    1
    65    94    99   am
    66    94    95    2
    67    63    62    1
    68    63    72   am
    69   109   108    2
    70   154   153    1
    71   102   101    2
    72    61    62    1
    73    73    72    1
    74    73    76    1
    75   143   144    1
    76    62    65    1
    77    99   100    1
    78   104   103    1
    79   137   136    1
    80   138   136    1
    81   136   135    1
    82   144   147    1
    83   144   145    1
    84   153   151   am
    85    76    77    1
    86   101   100    1
    87   100   103    1
    88   147   148    1
    89   145   146    2
    90   145   149   am
    91    65    66    1
    92   135   132    1
    93   151   152    2
    94   151   150    1
    95    66    67    1
    96   149   150    1
    97   134   133    2
    98    77    78    1
    99   132   133    1
   100   132   131    1
   101   111   112    1
   102   123   121    1
   103   120   119    2
   104   121   122    1
   105   121   118    1
   106    78    79    1
   107    67    68    1
   108   131   126   am
   109   117   118    1
   110   117   113   am
   111    68    69    2
   112    13    12    1
   113   112   113    1
   114   112   115    1
   115   118   119    1
   116    14    12    1
   117   119   124   am
   118   127   126    2
   119   126   125    1
   120    12     9    1
   121   113   114    2
   122   116   115    1
   123    69    71    1
   124    69    70    1
   125    42    40   am
   126    41    40    2
   127    40    39    1
   128   124   125    1
   129   124   130    1
   130   125   128    1
   131     9     8    1
   132     9    10    1
   133    39    36    1
   134     8     3   am
   135    10    11    2
   136     7     6    1
   137     7     1    1
   138   130   129    1
   139   128   129    1
   140    38    37    2
   141     5     6    1
   142     5     2    1
   143    36    37    1
   144    36    35    1
   145     1     2    1
   146     3     2    1
   147     3     4    2
   148    22    21    1
   149    26    25    2
   150    21    20    1
   151    35    25   am
   152    25    24    1
   153    23    24    1
   154    19    20    1
   155    19    16    1
   156    24    27    1
   157    17    16    1
   158    17    18    2
   159    16    15    1
   160    27    28    1
   161    28    30   ar
   162    28    29   ar
   163    30    32   ar
   164    29    31   ar
   165    32    33   ar
   166    31    33   ar
   167    33    34    1
