@<TRIPOS>MOLECULE
tmp/3uytA00.pdb
 163 151 0 0 0
SMALL
GASTEIGER

@<TRIPOS>ATOM
      1  N         -3.0340  -12.2750  -15.4100 N.3    11  ILE11      -0.1231
      2  CA        -2.0900  -11.1710  -15.2790 C.3    11  ILE11       0.1696
      3  C         -1.6480  -11.0210  -13.8310 C.2    11  ILE11       0.2632
      4  O         -0.8250  -10.1510  -13.5210 O.2    11  ILE11      -0.2714
      5  CB        -2.6800   -9.8160  -15.7750 C.3    11  ILE11       0.0266
      6  CG1       -3.9200   -9.4580  -14.9590 C.3    11  ILE11       0.0019
      7  CG2       -2.9730   -9.8970  -17.2850 C.3    11  ILE11       0.0020
      8  CD1       -4.4620   -8.0520  -15.2550 C.3    11  ILE11       0.0001
      9  N         -2.1880  -11.8660  -12.9490 N.am   12  GLY12      -0.1718
     10  CA        -1.8090  -11.7880  -11.5490 C.2    12  GLY12       0.1480
     11  C         -2.6720  -12.4870  -10.4970 C.2    12  GLY12       0.2821
     12  O         -3.5000  -13.3490  -10.8070 O.2    12  GLY12      -0.2669
     13  N         -2.4680  -12.0990   -9.2380 N.am   13  SER13      -0.1901
     14  CA        -3.1900  -12.6730   -8.0990 C.3    13  SER13       0.2058
     15  C         -3.5260  -11.6430   -7.0320 C.2    13  SER13       0.2643
     16  O         -2.7710  -10.6980   -6.8110 O.2    13  SER13      -0.2714
     17  CB        -2.3550  -13.7620   -7.4230 C.3    13  SER13       0.2130
     18  OG        -2.6770  -15.0560   -7.8980 O.3    13  SER13      -0.2179
     19  N         -4.6520  -11.8510   -6.3520 N.am   14  GLY14      -0.1954
     20  CA        -5.0620  -10.9560   -5.2840 C.3    14  GLY14       0.1869
     21  C         -4.7360  -11.6280   -3.9590 C.2    14  GLY14       0.2309
     22  O         -3.8850  -12.5170   -3.9300 O.2    14  GLY14      -0.2863
     23  N         -6.2680  -13.4340  -11.0680 N.3    19  ILE19      -0.1245
     24  CA        -6.6820  -12.3700  -11.9950 C.3    19  ILE19       0.1561
     25  C         -6.3170  -12.5840  -13.4660 C.2    19  ILE19       0.2260
     26  O         -5.1850  -12.9170  -13.8000 O.2    19  ILE19      -0.2867
     27  CB        -6.1170  -10.9990  -11.5340 C.3    19  ILE19       0.0252
     28  CG1       -6.2780  -10.8450  -10.0120 C.3    19  ILE19       0.0019
     29  CG2       -6.8490   -9.8640  -12.2440 C.3    19  ILE19       0.0019
     30  CD1       -7.6850  -11.1170   -9.4880 C.3    19  ILE19       0.0001
     31  N        -10.4540   -6.9150  -16.0970 N.3    32  ALA32      -0.1245
     32  CA        -9.7020   -7.8800  -15.3010 C.3    32  ALA32       0.1562
     33  C        -10.7370   -8.7570  -14.5700 C.2    32  ALA32       0.2260
     34  O        -11.7190   -8.2550  -14.0260 O.2    32  ALA32      -0.2867
     35  CB        -8.7980   -7.1610  -14.2990 C.3    32  ALA32       0.0290
     36  N        -11.5470  -11.8730  -11.6590 N.3    34  LYS34      -0.1245
     37  CA       -11.1270  -12.6470  -10.4860 C.3    34  LYS34       0.1561
     38  C        -12.0210  -13.8960  -10.3330 C.2    34  LYS34       0.2260
     39  O        -13.2420  -13.7900  -10.2810 O.2    34  LYS34      -0.2867
     40  CB       -11.2370  -11.7740   -9.2290 C.3    34  LYS34       0.0271
     41  CG       -10.4730  -12.3280   -8.0170 C.3    34  LYS34       0.0035
     42  CD       -10.6790  -11.4260   -6.8090 C.3    34  LYS34       0.0206
     43  CE        -9.6030  -11.6780   -5.7730 C.3    34  LYS34       0.1093
     44  NZ        -9.7680  -10.7760   -4.6010 N.3    34  LYS34      -0.1314
     45  N        -16.4560   -4.5450   -2.0250 N.3    49  TYR49      -0.1241
     46  CA       -16.1880   -3.6650   -3.1770 C.3    49  TYR49       0.1605
     47  C        -17.4350   -2.8330   -3.4600 C.2    49  TYR49       0.2264
     48  O        -17.3610   -1.6330   -3.7410 O.2    49  TYR49      -0.2867
     49  CB       -15.8730   -4.4660   -4.4330 C.3    49  TYR49       0.0534
     50  CG       -14.4030   -4.6970   -4.6510 C.ar   49  TYR49      -0.0201
     51  CD1      -13.5350   -3.6280   -4.8960 C.ar   49  TYR49      -0.0009
     52  CD2      -13.8740   -5.9840   -4.6240 C.ar   49  TYR49      -0.0009
     53  CE1      -12.1850   -3.8400   -5.1120 C.ar   49  TYR49       0.0417
     54  CE2      -12.5260   -6.2060   -4.8370 C.ar   49  TYR49       0.0417
     55  CZ       -11.6860   -5.1310   -5.0820 C.ar   49  TYR49       0.1957
     56  OH       -10.3520   -5.3580   -5.3040 O.3    49  TYR49      -0.2866
     57  N        -16.7450   -2.8100  -10.0260 N.3    61  ILE61      -0.1245
     58  CA       -17.0960   -4.2260  -10.2360 C.3    61  ILE61       0.1561
     59  C        -18.1490   -4.2920  -11.3420 C.2    61  ILE61       0.2260
     60  O        -19.2320   -3.7340  -11.2010 O.2    61  ILE61      -0.2867
     61  CB       -17.7060   -4.8630   -8.9590 C.3    61  ILE61       0.0252
     62  CG1      -16.6730   -4.9170   -7.8250 C.3    61  ILE61       0.0019
     63  CG2      -18.2590   -6.2500   -9.2800 C.3    61  ILE61       0.0019
     64  CD1      -15.4300   -5.7540   -8.1180 C.3    61  ILE61       0.0001
     65  N        -15.9780  -12.7190  -10.4660 N.3    73  MET73      -0.1245
     66  CA       -16.0670  -11.2810  -10.1830 C.3    73  MET73       0.1570
     67  C        -15.2490  -10.5510  -11.2720 C.2    73  MET73       0.2261
     68  O        -14.0770  -10.8600  -11.5140 O.2    73  MET73      -0.2867
     69  CB       -15.5260  -10.9410   -8.7940 C.3    73  MET73       0.0387
     70  CG       -15.7120   -9.4710   -8.4380 C.3    73  MET73       0.0595
     71  SD       -15.4440   -9.0890   -6.6980 S.3    73  MET73      -0.1393
     72  CE       -13.6540   -9.1510   -6.6340 C.3    73  MET73       0.0692
     73  N        -13.9120   -6.8020  -13.1560 N.3    75  MET75      -0.1230
     74  CA       -13.6580   -5.3520  -13.0140 C.3    75  MET75       0.1702
     75  C        -12.9100   -4.6990  -14.1870 C.2    75  MET75       0.2592
     76  O        -12.2950   -5.3680  -14.9960 O.2    75  MET75      -0.2718
     77  CB       -12.9190   -5.0350  -11.6860 C.3    75  MET75       0.0401
     78  CG       -11.3860   -5.0600  -11.7440 C.3    75  MET75       0.0596
     79  SD       -10.6000   -4.1660  -10.3430 S.3    75  MET75      -0.1393
     80  CE       -11.7840   -4.5530   -8.9850 C.3    75  MET75       0.0692
     81  N        -12.9810   -3.3770  -14.2420 N.am   76  GLU76      -0.1966
     82  CA       -12.3280   -2.5670  -15.2650 C.3    76  GLU76       0.1733
     83  C        -10.8140   -2.7730  -15.2440 C.2    76  GLU76       0.2616
     84  O        -10.2370   -3.0300  -14.1870 O.2    76  GLU76      -0.2715
     85  CB       -12.6300   -1.0800  -15.0250 C.3    76  GLU76       0.0429
     86  CG       -12.1880   -0.5820  -13.6200 C.3    76  GLU76       0.1163
     87  CD       -12.4090    0.9200  -13.3950 C.2    76  GLU76       0.3649
     88  OE1      -12.2970    1.6910  -14.3700 O.co2  76  GLU76      -0.2457
     89  OE2      -12.6850    1.3410  -12.2490 O.co2  76  GLU76      -0.2457
     90  N        -10.1710   -2.6340  -16.4020 N.am   77  LEU77      -0.1963
     91  CA        -8.7200   -2.8140  -16.5210 C.3    77  LEU77       0.1728
     92  C         -7.8800   -1.6340  -16.0320 C.2    77  LEU77       0.2616
     93  O         -8.0950   -0.5000  -16.4390 O.2    77  LEU77      -0.2715
     94  CB        -8.3470   -3.0890  -17.9720 C.3    77  LEU77       0.0311
     95  CG        -6.8460   -3.2860  -18.1470 C.3    77  LEU77       0.0022
     96  CD1       -6.4270   -4.5240  -17.3540 C.3    77  LEU77       0.0001
     97  CD2       -6.4940   -3.4510  -19.6130 C.3    77  LEU77       0.0001
     98  N         -6.9060   -1.9130  -15.1750 N.am   78  LEU78      -0.1963
     99  CA        -6.0300   -0.8700  -14.6540 C.3    78  LEU78       0.1728
    100  C         -4.5970   -1.0540  -15.1770 C.2    78  LEU78       0.2616
    101  O         -4.2530   -2.1040  -15.7140 O.2    78  LEU78      -0.2715
    102  CB        -6.0330   -0.9090  -13.1180 C.3    78  LEU78       0.0311
    103  CG        -7.3740   -0.7920  -12.3790 C.3    78  LEU78       0.0022
    104  CD1       -7.1680   -0.9780  -10.8720 C.3    78  LEU78       0.0001
    105  CD2       -7.9790    0.5580  -12.6590 C.3    78  LEU78       0.0001
    106  N         -3.7600   -0.0380  -14.9950 N.am   79  GLY79      -0.1955
    107  CA        -2.3790   -0.1230  -15.4480 C.3    79  GLY79       0.1869
    108  C         -1.4070   -0.7420  -14.4510 C.2    79  GLY79       0.2309
    109  O         -1.8230   -1.4870  -13.5570 O.2    79  GLY79      -0.2863
    110  N          1.2190   -1.4610  -11.3060 N.3    81  SER81      -0.1217
    111  CA         1.1510   -1.1630   -9.8830 C.3    81  SER81       0.1889
    112  C          2.3260   -0.2130   -9.6270 C.2    81  SER81       0.2288
    113  O          3.1790   -0.0400  -10.5020 O.2    81  SER81      -0.2866
    114  CB         1.3250   -2.4420   -9.0570 C.3    81  SER81       0.2089
    115  OG         2.6300   -2.9540   -9.1900 O.3    81  SER81      -0.2183
    116  N          5.5890   -2.0030   -9.8600 N.3    84  ASP84      -0.1239
    117  CA         6.0570   -2.1810  -11.2320 C.3    84  ASP84       0.1674
    118  C          6.6760   -0.9020  -11.8340 C.2    84  ASP84       0.2266
    119  O          7.7220   -0.9560  -12.4670 O.2    84  ASP84      -0.2867
    120  CB         4.9110   -2.6720  -12.1300 C.3    84  ASP84       0.1410
    121  CG         4.4860   -4.1030  -11.8220 C.2    84  ASP84       0.3668
    122  OD1        5.3310   -5.0250  -11.9240 O.co2  84  ASP84      -0.2456
    123  OD2        3.2960   -4.3150  -11.4870 O.co2  84  ASP84      -0.2456
    124  N          2.0580   -2.7360   -4.2720 N.3   125  ASP125     -0.1225
    125  CA         1.3420   -3.6760   -5.1310 C.3   125  ASP125      0.1805
    126  C         -0.1780   -3.5180   -5.1400 C.2   125  ASP125      0.2597
    127  O         -0.8450   -3.9340   -6.0910 O.2   125  ASP125     -0.2718
    128  CB         1.7100   -5.1130   -4.7590 C.3   125  ASP125      0.1424
    129  CG         3.0680   -5.5210   -5.3050 C.2   125  ASP125      0.3668
    130  OD1        3.2330   -5.5120   -6.5460 O.co2 125  ASP125     -0.2456
    131  OD2        3.9690   -5.8450   -4.4990 O.co2 125  ASP125     -0.2456
    132  N         -0.7350   -2.9400   -4.0850 N.am  126  ASN126     -0.1974
    133  CA        -2.1710   -2.7310   -4.0590 C.3   126  ASN126      0.1688
    134  C         -2.5480   -1.3240   -4.5380 C.2   126  ASN126      0.2292
    135  O         -3.6630   -0.8590   -4.3000 O.2   126  ASN126     -0.2864
    136  CB        -2.7400   -3.0160   -2.6610 C.3   126  ASN126      0.1181
    137  CG        -2.9790   -4.5100   -2.4250 C.2   126  ASN126      0.2629
    138  OD1       -3.2510   -5.2530   -3.3690 O.2   126  ASN126     -0.2716
    139  ND2       -2.8980   -4.9440   -1.1730 N.am  126  ASN126     -0.0877
    140  N         -2.4960    0.7830   -8.1300 N.3   128  LEU128     -0.1245
    141  CA        -2.2690    0.7140   -9.5760 C.3   128  LEU128      0.1561
    142  C         -2.5360    2.0310  -10.2750 C.2   128  LEU128      0.2260
    143  O         -3.5000    2.7040   -9.9550 O.2   128  LEU128     -0.2867
    144  CB        -3.1650   -0.3640  -10.1920 C.3   128  LEU128      0.0270
    145  CG        -2.8280   -1.8350   -9.9180 C.3   128  LEU128      0.0019
    146  CD1       -3.0080   -2.1320   -8.4260 C.3   128  LEU128      0.0001
    147  CD2       -3.7420   -2.7360  -10.7680 C.3   128  LEU128      0.0001
    148  N         -6.5200   -1.3060   -4.5260 N.3   141  ILE141     -0.1231
    149  CA        -7.2940   -2.5280   -4.7140 C.3   141  ILE141      0.1692
    150  C         -7.1550   -3.5210   -3.5750 C.2   141  ILE141      0.2592
    151  O         -6.3830   -3.3150   -2.6400 O.2   141  ILE141     -0.2718
    152  CB        -6.8750   -3.2760   -6.0030 C.3   141  ILE141      0.0266
    153  CG1       -5.3940   -3.6440   -5.9260 C.3   141  ILE141      0.0019
    154  CG2       -7.1460   -2.4160   -7.2360 C.3   141  ILE141      0.0020
    155  CD1       -4.9490   -4.6480   -6.9630 C.3   141  ILE141      0.0001
    156  N         -7.9250   -4.6000   -3.7030 N.am  142  ASP142     -0.1974
    157  CA        -7.9600   -5.7400   -2.7930 C.3   142  ASP142      0.1709
    158  C         -8.5070   -5.5800   -1.3790 C.2   142  ASP142      0.2293
    159  O         -7.8570   -5.0190   -0.5000 O.2   142  ASP142     -0.2864
    160  CB        -6.5890   -6.3730   -2.7030 C.3   142  ASP142      0.1436
    161  CG        -6.6710   -7.8410   -2.3600 C.2   142  ASP142      0.3671
    162  OD1       -7.3680   -8.1720   -1.3790 O.co2 142  ASP142     -0.2456
    163  OD2       -6.0410   -8.6470   -3.0730 O.co2 142  ASP142     -0.2456
@<TRIPOS>BOND
     1    97    95    1
     2    95    94    1
     3    95    96    1
     4    94    91    1
     5     7     5    1
     6    91    90    1
     7    91    92    1
     8    93    92    2
     9    90    83   am
    10    31    32    1
    11    92    98   am
    12     5     2    1
    13     5     6    1
    14   101   100    2
    15   107   106    1
    16   107   108    1
    17     1     2    1
    18    32    33    1
    19    32    35    1
    20     2     3    1
    21    82    83    1
    22    82    85    1
    23    82    81    1
    24     8     6    1
    25    83    84    2
    26   100   106   am
    27   100    99    1
    28    98    99    1
    29    85    86    1
    30    76    75    2
    31    99   102    1
    32    33    34    2
    33   108   109    2
    34    88    87   ar
    35    81    75   am
    36    75    74    1
    37     3     4    2
    38     3     9    1
    39    26    25    2
    40    86    87    1
    41    25    24    1
    42    87    89   ar
    43    73    74    1
    44   102   103    1
    45    74    77    1
    46     9    10    2
    47   105   103    1
    48   119   118    2
    49   103   104    1
    50    29    27    1
    51   120   121    1
    52   120   117    1
    53    24    27    1
    54    24    23    1
    55   122   121   ar
    56   118   117    1
    57   121   123   ar
    58    78    77    1
    59    78    79    1
    60    36    37    1
    61    10    11    1
    62    27    28    1
    63    68    67    2
    64    59    60    2
    65    59    58    1
    66   110   111    1
    67    67    66    1
    68   117   116    1
    69    12    11    2
    70   147   145    1
    71   113   112    2
    72    11    13   am
    73    37    38    1
    74    37    40    1
    75    65    66    1
    76    79    80    1
    77    38    39    2
    78   142   143    2
    79   142   141    1
    80    58    57    1
    81    58    61    1
    82   144   145    1
    83   144   141    1
    84    66    69    1
    85    28    30    1
    86   145   146    1
    87   111   112    1
    88   111   114    1
    89   141   140    1
    90    63    61    1
    91    13    14    1
    92    40    41    1
    93   115   114    1
    94    61    62    1
    95    69    70    1
    96    70    71    1
    97    64    62    1
    98    14    17    1
    99    14    15    1
   100    41    42    1
   101    18    17    1
   102   154   152    1
   103    15    16    2
   104    15    19   am
   105   155   153    1
   106    42    43    1
   107    71    72    1
   108   130   129   ar
   109    19    20    1
   110   127   126    2
   111   152   153    1
   112   152   149    1
   113    43    44    1
   114   129   128    1
   115   129   131   ar
   116    56    55    1
   117    20    21    1
   118   126   125    1
   119   126   132   am
   120   125   128    1
   121   125   124    1
   122    53    55   ar
   123    53    51   ar
   124    55    54   ar
   125    51    50   ar
   126    54    52   ar
   127   149   148    1
   128   149   150    1
   129    50    52   ar
   130    50    49    1
   131   134   135    2
   132   134   133    1
   133    49    46    1
   134   132   133    1
   135   133   136    1
   136    21    22    2
   137    48    47    2
   138   156   150   am
   139   156   157    1
   140   150   151    2
   141    47    46    1
   142   138   137    2
   143    46    45    1
   144   163   161   ar
   145   157   160    1
   146   157   158    1
   147   160   161    1
   148   136   137    1
   149   137   139   am
   150   161   162   ar
   151   158   159    2
