@<TRIPOS>MOLECULE
tmp/3uytD00.pdb
 154 145 0 0 0
SMALL
GASTEIGER

@<TRIPOS>ATOM
      1  N         22.8810   11.3340   55.5410 N.3    12  ILE12      -0.1231
      2  CA        21.4550   11.3720   55.2580 C.3    12  ILE12       0.1692
      3  C         21.0740   10.8250   53.9030 C.2    12  ILE12       0.2593
      4  O         19.8860   10.7450   53.5810 O.2    12  ILE12      -0.2718
      5  CB        20.9590   12.8090   55.3290 C.3    12  ILE12       0.0266
      6  CG1       21.8110   13.6720   54.3830 C.3    12  ILE12       0.0019
      7  CG2       21.0500   13.2830   56.7570 C.3    12  ILE12       0.0020
      8  CD1       21.2820   15.0820   54.1780 C.3    12  ILE12       0.0001
      9  N         22.0630   10.4680   53.0970 N.am   13  GLY13      -0.1942
     10  CA        21.7520    9.9380   51.7880 C.3    13  GLY13       0.2014
     11  C         22.9670    9.9740   50.8980 C.2    13  GLY13       0.2640
     12  O         24.0860   10.1200   51.3890 O.2    13  GLY13      -0.2714
     13  N         22.7300    9.8700   49.5910 N.am   14  SER14      -0.1935
     14  CA        23.7850    9.8570   48.5850 C.3    14  SER14       0.2055
     15  C         23.3570   10.4870   47.2760 C.2    14  SER14       0.2643
     16  O         22.1830   10.4280   46.9010 O.2    14  SER14      -0.2714
     17  CB        24.1970    8.4210   48.2630 C.3    14  SER14       0.2130
     18  OG        24.4510    7.6810   49.4380 O.3    14  SER14      -0.2179
     19  N         24.3290   11.0690   46.5810 N.am   15  GLY15      -0.1954
     20  CA        24.0760   11.6640   45.2820 C.3    15  GLY15       0.1869
     21  C         25.0240   10.9460   44.3470 C.2    15  GLY15       0.2309
     22  O         25.2630    9.7430   44.5120 O.2    15  GLY15      -0.2863
     23  N         26.1470   12.4970   51.0440 N.3    20  ILE20      -0.1245
     24  CA        25.7450   13.7650   51.6010 C.3    20  ILE20       0.1561
     25  C         25.5970   13.7390   53.1130 C.2    20  ILE20       0.2260
     26  O         25.0160   12.8210   53.6960 O.2    20  ILE20      -0.2867
     27  CB        24.4290   14.1960   50.9550 C.3    20  ILE20       0.0252
     28  CG1       24.5110   13.9410   49.4390 C.3    20  ILE20       0.0019
     29  CG2       24.1300   15.6430   51.3000 C.3    20  ILE20       0.0019
     30  CD1       25.7140   14.5510   48.7350 C.3    20  ILE20       0.0001
     31  N         24.2130   21.2720   53.6530 N.3    33  ALA33      -0.1245
     32  CA        24.3630   19.9250   53.1340 C.3    33  ALA33       0.1562
     33  C         25.8040   19.9540   52.6460 C.2    33  ALA33       0.2260
     34  O         26.2340   20.9140   52.0040 O.2    33  ALA33      -0.2867
     35  CB        23.3940   19.6700   51.9830 C.3    33  ALA33       0.0290
     36  N         28.7640   17.8330   50.5790 N.3    35  LYS35      -0.1245
     37  CA        29.1130   16.7270   49.7160 C.3    35  LYS35       0.1561
     38  C         30.6050   16.5260   49.8420 C.2    35  LYS35       0.2260
     39  O         31.4040   17.4500   49.6080 O.2    35  LYS35      -0.2867
     40  CB        28.7330   17.0320   48.2650 C.3    35  LYS35       0.0271
     41  CG        28.6930   15.8000   47.3610 C.3    35  LYS35       0.0035
     42  CD        28.2140   16.1710   45.9490 C.3    35  LYS35       0.0206
     43  CE        28.1000   14.9260   45.0770 C.3    35  LYS35       0.1093
     44  NZ        27.5410   15.2400   43.7180 N.3    35  LYS35      -0.1314
     45  N         28.3240   24.3290   38.6500 N.3    53  TYR53      -0.1241
     46  CA        27.4190   25.0240   39.5690 C.3    53  TYR53       0.1605
     47  C         27.6950   26.5420   39.5030 C.2    53  TYR53       0.2264
     48  O         26.7590   27.3350   39.4310 O.2    53  TYR53      -0.2867
     49  CB        27.6090   24.5100   41.0030 C.3    53  TYR53       0.0534
     50  CG        26.7770   23.2900   41.3900 C.ar   53  TYR53      -0.0201
     51  CD1       25.4050   23.4050   41.6350 C.ar   53  TYR53      -0.0009
     52  CD2       27.3760   22.0360   41.5820 C.ar   53  TYR53      -0.0009
     53  CE1       24.6500   22.3100   42.0700 C.ar   53  TYR53       0.0417
     54  CE2       26.6300   20.9360   42.0200 C.ar   53  TYR53       0.0417
     55  CZ        25.2680   21.0820   42.2650 C.ar   53  TYR53       0.1957
     56  OH        24.5290   20.0200   42.7400 O.3    53  TYR53      -0.2866
     57  N         32.4830   20.3200   49.2240 N.3    77  MET77      -0.1245
     58  CA        31.6120   21.2680   48.5670 C.3    77  MET77       0.1570
     59  C         30.4490   21.4690   49.5230 C.2    77  MET77       0.2261
     60  O         29.7950   20.5120   49.9530 O.2    77  MET77      -0.2867
     61  CB        31.1420   20.7540   47.2120 C.3    77  MET77       0.0387
     62  CG        30.3230   21.7760   46.4780 C.3    77  MET77       0.0595
     63  SD        30.1720   21.4160   44.7420 S.3    77  MET77      -0.1393
     64  CE        29.1660   19.8660   44.8140 C.3    77  MET77       0.0692
     65  N         26.8460   23.2750   50.3830 N.3    79  MET79      -0.1230
     66  CA        25.6400   23.8090   49.7880 C.3    79  MET79       0.1702
     67  C         24.6080   24.0470   50.8730 C.2    79  MET79       0.2592
     68  O         24.6360   23.3960   51.9080 O.2    79  MET79      -0.2718
     69  CB        25.1230   22.7900   48.7640 C.3    79  MET79       0.0401
     70  CG        23.6620   22.8970   48.3860 C.3    79  MET79       0.0596
     71  SD        23.2540   21.6250   47.1820 S.3    79  MET79      -0.1393
     72  CE        24.4540   22.0700   45.8880 C.3    79  MET79       0.0692
     73  N         23.6980   24.9830   50.6440 N.am   80  GLU80      -0.1966
     74  CA        22.6530   25.2370   51.6240 C.3    80  GLU80       0.1733
     75  C         21.7940   23.9800   51.7300 C.2    80  GLU80       0.2616
     76  O         21.5270   23.3430   50.7220 O.2    80  GLU80      -0.2715
     77  CB        21.7970   26.4450   51.2010 C.3    80  GLU80       0.0429
     78  CG        20.8340   26.1860   50.0260 C.3    80  GLU80       0.1163
     79  CD        20.1470   27.4670   49.5580 C.2    80  GLU80       0.3649
     80  OE1       20.0130   28.4040   50.3830 O.co2  80  GLU80      -0.2457
     81  OE2       19.7350   27.5310   48.3750 O.co2  80  GLU80      -0.2457
     82  N         21.3760   23.6280   52.9470 N.am   81  LEU81      -0.1963
     83  CA        20.5510   22.4300   53.1670 C.3    81  LEU81       0.1728
     84  C         19.1690   22.5230   52.5290 C.2    81  LEU81       0.2616
     85  O         18.5040   23.5480   52.6160 O.2    81  LEU81      -0.2715
     86  CB        20.3530   22.1560   54.6640 C.3    81  LEU81       0.0311
     87  CG        19.4330   20.9510   54.9140 C.3    81  LEU81       0.0022
     88  CD1       20.1990   19.6670   54.6070 C.3    81  LEU81       0.0001
     89  CD2       18.9140   20.9490   56.3520 C.3    81  LEU81       0.0001
     90  N         18.7440   21.4320   51.9080 N.am   82  LEU82      -0.1963
     91  CA        17.4410   21.3540   51.2620 C.3    82  LEU82       0.1728
     92  C         16.5490   20.3450   51.9720 C.2    82  LEU82       0.2617
     93  O         16.9970   19.6540   52.8890 O.2    82  LEU82      -0.2715
     94  CB        17.5920   20.9620   49.7860 C.3    82  LEU82       0.0311
     95  CG        18.4390   21.9220   48.9400 C.3    82  LEU82       0.0022
     96  CD1       18.7390   21.3250   47.5660 C.3    82  LEU82       0.0001
     97  CD2       17.6920   23.2480   48.8170 C.3    82  LEU82       0.0001
     98  N         15.2880   20.2590   51.5420 N.am   83  GLY83      -0.1941
     99  CA        14.3400   19.3380   52.1560 C.3    83  GLY83       0.1998
    100  C         14.2530   17.9450   51.5480 C.2    83  GLY83       0.2481
    101  O         15.1730   17.5050   50.8440 O.2    83  GLY83      -0.2729
    102  N         13.1390   17.2330   51.7860 N.am   84  PRO84      -0.2715
    103  CA        12.8950   15.8750   51.2850 C.3    84  PRO84       0.1536
    104  C         12.8380   15.7970   49.7590 C.2    84  PRO84       0.2599
    105  O         12.5030   16.7740   49.1000 O.2    84  PRO84      -0.2715
    106  CB        11.5420   15.5110   51.9000 C.3    84  PRO84       0.0310
    107  CG        11.3120   16.5390   52.9630 C.3    84  PRO84       0.0237
    108  CD        11.9150   17.7760   52.3910 C.3    84  PRO84       0.0939
    109  N         13.1480   14.6240   49.2120 N.am   85  SER85      -0.1950
    110  CA        13.0850   14.4090   47.7660 C.3    85  SER85       0.1924
    111  C         11.6360   14.0700   47.4140 C.2    85  SER85       0.2314
    112  O         10.8250   13.7890   48.2990 O.2    85  SER85      -0.2863
    113  CB        13.9440   13.2210   47.3590 C.3    85  SER85       0.2116
    114  OG        13.2340   12.0240   47.6340 O.3    85  SER85      -0.2180
    115  N         10.8170   10.5770   48.4980 N.3    88  ASP88      -0.1239
    116  CA        10.5760   10.5040   49.9390 C.3    88  ASP88       0.1674
    117  C          9.1220   10.8630   50.2440 C.2    88  ASP88       0.2266
    118  O          8.4120   10.1620   50.9740 O.2    88  ASP88      -0.2867
    119  CB        11.5000   11.4780   50.6970 C.3    88  ASP88       0.1410
    120  CG        12.9660   11.0320   50.6980 C.2    88  ASP88       0.3668
    121  OD1       13.2040    9.8020   50.7390 O.co2  88  ASP88      -0.2456
    122  OD2       13.8830   11.9020   50.6830 O.co2  88  ASP88      -0.2456
    123  N         14.3750   11.2640   42.9550 N.3   129  ASP129     -0.1239
    124  CA        15.3930   11.5310   43.9820 C.3   129  ASP129      0.1674
    125  C         16.3140   12.7280   43.7320 C.2   129  ASP129      0.2266
    126  O         17.0200   13.1780   44.6450 O.2   129  ASP129     -0.2867
    127  CB        16.2550   10.2810   44.2080 C.3   129  ASP129      0.1410
    128  CG        15.4990    9.1860   44.9160 C.2   129  ASP129      0.3668
    129  OD1       15.0650    9.4370   46.0590 O.co2 129  ASP129     -0.2456
    130  OD2       15.3330    8.0870   44.3470 O.co2 129  ASP129     -0.2456
    131  N         14.4780   17.9390   45.0170 N.3   132  LEU132     -0.1245
    132  CA        14.2350   18.1050   46.4430 C.3   132  LEU132      0.1561
    133  C         13.5100   19.4060   46.6970 C.2   132  LEU132      0.2260
    134  O         13.7740   20.4140   46.0510 O.2   132  LEU132     -0.2867
    135  CB        15.5530   18.1360   47.2160 C.3   132  LEU132      0.0270
    136  CG        16.3180   16.8470   47.4910 C.3   132  LEU132      0.0019
    137  CD1       16.6550   16.1270   46.1940 C.3   132  LEU132      0.0001
    138  CD2       17.5990   17.2090   48.2530 C.3   132  LEU132      0.0001
    139  N         19.1770   18.8160   41.7440 N.3   145  ILE145     -0.1231
    140  CA        20.5170   18.6740   42.2310 C.3   145  ILE145      0.1692
    141  C         21.2810   17.6990   41.3760 C.2   145  ILE145      0.2592
    142  O         20.7290   17.0440   40.4870 O.2   145  ILE145     -0.2718
    143  CB        20.5600   18.1630   43.6820 C.3   145  ILE145      0.0266
    144  CG1       19.8470   16.8150   43.7670 C.3   145  ILE145      0.0019
    145  CG2       19.9850   19.2160   44.6250 C.3   145  ILE145      0.0020
    146  CD1       19.9770   16.1430   45.0900 C.3   145  ILE145      0.0001
    147  N         22.5720   17.6440   41.6600 N.am  146  ASP146     -0.1974
    148  CA        23.4920   16.7480   41.0100 C.3   146  ASP146      0.1709
    149  C         23.8210   17.0210   39.5410 C.2   146  ASP146      0.2293
    150  O         23.0030   16.7950   38.6410 O.2   146  ASP146     -0.2864
    151  CB        22.9920   15.3190   41.1940 C.3   146  ASP146      0.1436
    152  CG        24.1090   14.3680   41.4770 C.2   146  ASP146      0.3671
    153  OD1       25.0400   14.3260   40.6530 O.co2 146  ASP146     -0.2456
    154  OD2       24.0620   13.6800   42.5150 O.co2 146  ASP146     -0.2456
@<TRIPOS>BOND
     1   150   149    2
     2    45    46    1
     3    48    47    2
     4    47    46    1
     5   149   148    1
     6    46    49    1
     7   142   141    2
     8   153   152   ar
     9    49    50    1
    10   148   151    1
    11   148   147    1
    12   151   152    1
    13   141   147   am
    14   141   140    1
    15    50    52   ar
    16    50    51   ar
    17   152   154   ar
    18    52    54   ar
    19    51    53   ar
    20   139   140    1
    21    54    55   ar
    22    53    55   ar
    23   140   143    1
    24    55    56    1
    25   123   124    1
    26   143   144    1
    27   143   145    1
    28    44    43    1
    29   125   124    1
    30   125   126    2
    31   144   146    1
    32   124   127    1
    33   127   128    1
    34    21    22    2
    35    21    20    1
    36   130   128   ar
    37    63    64    1
    38    63    62    1
    39   128   129   ar
    40   131   132    1
    41    43    42    1
    42    20    19    1
    43    72    71    1
    44    42    41    1
    45   134   133    2
    46   137   136    1
    47   132   133    1
    48   132   135    1
    49    62    61    1
    50    19    15   am
    51    16    15    2
    52    71    70    1
    53    61    58    1
    54   135   136    1
    55    15    14    1
    56   113   114    1
    57   113   110    1
    58    41    40    1
    59   111   110    1
    60   111   112    2
    61   136   138    1
    62    96    95    1
    63   110   109    1
    64    17    14    1
    65    17    18    1
    66    40    37    1
    67    81    79   ar
    68    70    69    1
    69   115   116    1
    70    58    57    1
    71    58    59    1
    72    14    13    1
    73    30    28    1
    74    69    66    1
    75    97    95    1
    76    95    94    1
    77   105   104    2
    78   109   104   am
    79    28    27    1
    80    59    60    2
    81    79    78    1
    82    79    80   ar
    83    13    11   am
    84    39    38    2
    85    37    38    1
    86    37    36    1
    87   104   103    1
    88    94    91    1
    89    66    65    1
    90    66    67    1
    91   116   117    1
    92   116   119    1
    93    78    77    1
    94   117   118    2
    95    73    67   am
    96    73    74    1
    97   122   120   ar
    98   119   120    1
    99   120   121   ar
   100    76    75    2
   101   101   100    2
   102    67    68    2
   103    11    12    2
   104    11    10    1
   105    27    29    1
   106    27    24    1
   107    23    24    1
   108    77    74    1
   109    91    90    1
   110    91    92    1
   111   103   102    1
   112   103   106    1
   113    98    92   am
   114    98    99    1
   115   100   102   am
   116   100    99    1
   117    24    25    1
   118    74    75    1
   119    75    82   am
   120   102   108    1
   121    10     9    1
   122   106   107    1
   123    90    84   am
   124    92    93    2
   125    35    32    1
   126    34    33    2
   127   108   107    1
   128    84    85    2
   129    84    83    1
   130    33    32    1
   131    82    83    1
   132     9     3   am
   133    25    26    2
   134    32    31    1
   135    83    86    1
   136     4     3    2
   137     3     2    1
   138     8     6    1
   139     6     5    1
   140    88    87    1
   141    86    87    1
   142    87    89    1
   143     2     5    1
   144     2     1    1
   145     5     7    1
