@<TRIPOS>MOLECULE
tmp/3uyvA00.pdb
 70 67 0 0 0
SMALL
GASTEIGER

@<TRIPOS>ATOM
      1  N         19.6940  -35.6660   -3.7490 N.3   137  GLY137     -0.1225
      2  CA        20.7340  -34.9870   -4.5320 C.3   137  GLY137      0.1811
      3  C         20.2460  -34.5160   -5.8890 C.2   137  GLY137      0.2280
      4  O         20.9430  -33.7390   -6.5650 O.2   137  GLY137     -0.2866
      5  N         20.2170  -34.4970    1.5500 N.3   162  GLY162     -0.1210
      6  CA        21.0500  -34.4630    0.3310 C.3   162  GLY162      0.1956
      7  C         20.6720  -33.4060   -0.6980 C.2   162  GLY162      0.2612
      8  O         21.2430  -33.3790   -1.7730 O.2   162  GLY162     -0.2717
      9  N         19.7060  -32.5460   -0.3700 N.am  163  ALA163     -0.1965
     10  CA        19.3680  -31.3800   -1.1860 C.3   163  ALA163      0.1728
     11  C         20.6140  -30.6380   -1.6640 C.2   163  ALA163      0.2616
     12  O         21.5760  -30.4910   -0.9230 O.2   163  ALA163     -0.2715
     13  CB        18.5120  -30.4580   -0.3930 C.3   163  ALA163      0.0334
     14  N         20.5640  -30.1910   -2.9140 N.am  164  ASN164     -0.1972
     15  CA        21.6550  -29.5230   -3.6430 C.3   164  ASN164      0.1688
     16  C         21.1200  -28.1460   -4.0740 C.2   164  ASN164      0.2292
     17  O         20.0370  -28.0660   -4.6880 O.2   164  ASN164     -0.2864
     18  CB        22.0320  -30.3590   -4.8920 C.3   164  ASN164      0.1181
     19  CG        23.3510  -29.9300   -5.5100 C.2   164  ASN164      0.2629
     20  OD1       23.7640  -28.7990   -5.3040 O.2   164  ASN164     -0.2716
     21  ND2       24.0230  -30.8200   -6.2970 N.am  164  ASN164     -0.0877
     22  N         22.2370  -26.1530   -6.3220 N.3   166  THR166     -0.1203
     23  CA        22.2610  -26.0060   -7.7880 C.3   166  THR166      0.1994
     24  C         20.8860  -26.3770   -8.3160 C.2   166  THR166      0.2617
     25  O         20.5210  -25.9550   -9.4200 O.2   166  THR166     -0.2717
     26  CB        23.3280  -26.8900   -8.5020 C.3   166  THR166      0.1784
     27  OG1       23.1500  -28.2520   -8.0910 O.3   166  THR166     -0.2211
     28  CG2       24.7500  -26.4500   -8.1570 C.3   166  THR166      0.0376
     29  N         20.1110  -27.1110   -7.5090 N.am  167  ASN167     -0.1974
     30  CA        18.7100  -27.4690   -7.8520 C.3   167  ASN167      0.1688
     31  C         17.5830  -26.6100   -7.2050 C.2   167  ASN167      0.2292
     32  O         16.3890  -26.9620   -7.2530 O.2   167  ASN167     -0.2864
     33  CB        18.4830  -28.9480   -7.5460 C.3   167  ASN167      0.1181
     34  CG        19.4550  -29.8410   -8.2690 C.2   167  ASN167      0.2629
     35  OD1       19.8970  -29.5170   -9.3750 O.2   167  ASN167     -0.2716
     36  ND2       19.8140  -30.9670   -7.6480 N.am  167  ASN167     -0.0877
     37  N         29.0070  -22.2550   -7.4070 N.3   222  PRO222     -0.2102
     38  CA        29.7110  -23.4580   -7.8580 C.3   222  PRO222      0.1504
     39  C         30.8010  -23.1920   -8.9010 C.2   222  PRO222      0.2575
     40  O         30.6550  -22.3440   -9.7880 O.2   222  PRO222     -0.2718
     41  CB        28.6100  -24.3140   -8.4850 C.3   222  PRO222      0.0282
     42  CG        27.3170  -23.8310   -7.8710 C.3   222  PRO222      0.0208
     43  CD        27.5380  -22.3450   -7.5910 C.3   222  PRO222      0.0893
     44  N         31.8770  -23.9500   -8.7670 N.am  223  PHE223     -0.1977
     45  CA        33.0090  -23.9620   -9.6780 C.3   223  PHE223      0.1639
     46  C         32.6220  -24.2310  -11.1360 C.2   223  PHE223      0.2290
     47  O         31.6800  -24.9600  -11.4300 O.2   223  PHE223     -0.2864
     48  CB        33.9770  -25.0570   -9.2300 C.3   223  PHE223      0.0560
     49  CG        33.7290  -26.4040   -9.8960 C.ar  223  PHE223     -0.0200
     50  CD1       34.5770  -26.8590  -10.9040 C.ar  223  PHE223     -0.0042
     51  CD2       32.6630  -27.1980   -9.5190 C.ar  223  PHE223     -0.0042
     52  CE1       34.3690  -28.0790  -11.5130 C.ar  223  PHE223     -0.0003
     53  CE2       32.4520  -28.4310  -10.1260 C.ar  223  PHE223     -0.0003
     54  CZ        33.3110  -28.8710  -11.1280 C.ar  223  PHE223     -0.0000
     55  N         33.7860  -25.8920  -14.7070 N.3   225  PRO225     -0.2116
     56  CA        34.7730  -26.8190  -15.2390 C.3   225  PRO225      0.1372
     57  C         35.6580  -26.1220  -16.2830 C.2   225  PRO225      0.2244
     58  O         35.1530  -25.3970  -17.1610 O.2   225  PRO225     -0.2868
     59  CB        33.9270  -27.9320  -15.8760 C.3   225  PRO225      0.0268
     60  CG        32.5500  -27.7630  -15.2970 C.3   225  PRO225      0.0207
     61  CD        32.4100  -26.2970  -15.0400 C.3   225  PRO225      0.0892
     62  N         38.2890  -28.3390  -21.7400 N.3   228  GLU228     -0.1245
     63  CA        39.5830  -29.0330  -21.8680 C.3   228  GLU228      0.1567
     64  C         40.1700  -28.9960  -23.2840 C.2   228  GLU228      0.2260
     65  O         39.6780  -29.6890  -24.1760 O.2   228  GLU228     -0.2867
     66  CB        39.5580  -30.4750  -21.2640 C.3   228  GLU228      0.0388
     67  CG        38.2450  -31.3270  -21.4880 C.3   228  GLU228      0.1160
     68  CD        38.3820  -32.8330  -21.0970 C.2   228  GLU228      0.3649
     69  OE1       38.8190  -33.1480  -19.9480 O.co2 228  GLU228     -0.2457
     70  OE2       38.0380  -33.7050  -21.9480 O.co2 228  GLU228     -0.2457
@<TRIPOS>BOND
     1    65    64    2
     2    64    63    1
     3    70    68   ar
     4    63    62    1
     5    63    66    1
     6    67    66    1
     7    67    68    1
     8    68    69   ar
     9    58    57    2
    10    57    56    1
    11    59    60    1
    12    59    56    1
    13    60    61    1
    14    56    55    1
    15    61    55    1
    16    52    54   ar
    17    52    50   ar
    18    47    46    2
    19    46    45    1
    20    54    53   ar
    21    50    49   ar
    22    53    51   ar
    23    49    51   ar
    24    49    48    1
    25    40    39    2
    26    45    48    1
    27    45    44    1
    28    25    24    2
    29    35    34    2
    30    39    44   am
    31    39    38    1
    32    26    28    1
    33    26    27    1
    34    26    23    1
    35    41    42    1
    36    41    38    1
    37    24    23    1
    38    24    29   am
    39    34    36   am
    40    34    33    1
    41    42    43    1
    42    38    37    1
    43    30    33    1
    44    30    29    1
    45    30    31    1
    46    23    22    1
    47    43    37    1
    48    32    31    2
    49     4     3    2
    50    21    19   am
    51     3     2    1
    52    19    20    2
    53    19    18    1
    54    18    15    1
    55    17    16    2
    56     2     1    1
    57    16    15    1
    58    15    14    1
    59    14    11   am
    60     8     7    2
    61    11    10    1
    62    11    12    2
    63    10    13    1
    64    10     9    1
    65     7     9   am
    66     7     6    1
    67     6     5    1
