@<TRIPOS>MOLECULE
tmp/3uywA00.pdb
 87 85 0 0 0
SMALL
GASTEIGER

@<TRIPOS>ATOM
      1  N         10.6920   -8.7260    6.1590 N.3    44  TYR44      -0.1241
      2  CA        10.9400   -9.8490    7.0500 C.3    44  TYR44       0.1605
      3  C          9.7350  -10.7850    6.9670 C.2    44  TYR44       0.2264
      4  O          8.6130  -10.3910    7.2930 O.2    44  TYR44      -0.2867
      5  CB        11.1980   -9.3940    8.4850 C.3    44  TYR44       0.0534
      6  CG        11.8770  -10.4700    9.3150 C.ar   44  TYR44      -0.0201
      7  CD1       13.2520  -10.4580    9.5200 C.ar   44  TYR44      -0.0009
      8  CD2       11.1440  -11.5110    9.8690 C.ar   44  TYR44      -0.0009
      9  CE1       13.8750  -11.4480   10.2730 C.ar   44  TYR44       0.0417
     10  CE2       11.7610  -12.5080   10.6220 C.ar   44  TYR44       0.0417
     11  CZ        13.1240  -12.4700   10.8170 C.ar   44  TYR44       0.1957
     12  OH        13.7200  -13.4600   11.5720 O.3    44  TYR44      -0.2866
     13  N         12.6170   -3.1220   16.4080 N.3   103  TRP103     -0.1241
     14  CA        12.9170   -4.4790   16.8310 C.3   103  TRP103      0.1605
     15  C         13.8030   -4.4190   18.0700 C.2   103  TRP103      0.2264
     16  O         15.0280   -4.3560   17.9650 O.2   103  TRP103     -0.2867
     17  CB        13.6310   -5.2150   15.6960 C.3   103  TRP103      0.0550
     18  CG        13.8080   -6.6830   15.9020 C.ar  103  TRP103      0.0003
     19  CD1       13.5790   -7.3940   17.0450 C.ar  103  TRP103      0.0946
     20  CD2       14.2670   -7.6260   14.9240 C.ar  103  TRP103      0.0152
     21  NE1       13.8620   -8.7310   16.8340 N.ar  103  TRP103     -0.2442
     22  CE2       14.2880   -8.8940   15.5420 C.ar  103  TRP103      0.0810
     23  CE3       14.6600   -7.5190   13.5850 C.ar  103  TRP103      0.0012
     24  CZ2       14.6850  -10.0460   14.8650 C.ar  103  TRP103      0.0191
     25  CZ3       15.0590   -8.6650   12.9140 C.ar  103  TRP103      0.0001
     26  CH2       15.0690   -9.9120   13.5570 C.ar  103  TRP103      0.0015
     27  N          8.0700  -11.5070   17.0000 N.3   133  HIS133     -0.1241
     28  CA         9.1470  -12.2340   16.3400 C.3   133  HIS133      0.1621
     29  C          9.2360  -13.6970   16.7980 C.2   133  HIS133      0.2264
     30  O          9.2380  -13.9900   17.9920 O.2   133  HIS133     -0.2867
     31  CB        10.4930  -11.5240   16.5200 C.3   133  HIS133      0.0745
     32  CG        11.6310  -12.2260   15.8450 C.ar  133  HIS133      0.0817
     33  ND1       12.7300  -12.7000   16.5290 N.ar  133  HIS133     -0.2268
     34  CD2       11.8310  -12.5500   14.5440 C.ar  133  HIS133      0.1154
     35  CE1       13.5580  -13.2830   15.6810 C.ar  133  HIS133      0.1986
     36  NE2       13.0360  -13.2040   14.4670 N.ar  133  HIS133     -0.2212
     37  N         11.7910  -16.6170   16.5210 N.3   135  PRO135     -0.2102
     38  CA        13.1510  -16.9860   16.1100 C.3   135  PRO135      0.1504
     39  C         13.2160  -18.4000   15.5400 C.2   135  PRO135      0.2576
     40  O         12.3090  -19.2020   15.7540 O.2   135  PRO135     -0.2718
     41  CB        13.9470  -16.9070   17.4150 C.3   135  PRO135      0.0282
     42  CG        13.1480  -16.0000   18.2980 C.3   135  PRO135      0.0208
     43  CD        11.7160  -16.3030   17.9560 C.3   135  PRO135      0.0893
     44  N         14.2870  -18.6960   14.8150 N.am  136  SER136     -0.1953
     45  CA        14.4180  -19.9930   14.1720 C.3   136  SER136      0.1924
     46  C         14.8720  -21.0670   15.1530 C.2   136  SER136      0.2314
     47  O         14.5150  -22.2410   14.9970 O.2   136  SER136     -0.2863
     48  CB        15.3910  -19.9050   12.9950 C.3   136  SER136      0.2116
     49  OG        16.6700  -19.5020   13.4390 O.3   136  SER136     -0.2180
     50  N         18.9970  -18.6090   18.9860 N.3   140  ASP140     -0.1239
     51  CA        18.6760  -17.2760   18.4890 C.3   140  ASP140      0.1674
     52  C         17.7550  -16.5380   19.4590 C.2   140  ASP140      0.2266
     53  O         17.8820  -15.3320   19.6530 O.2   140  ASP140     -0.2867
     54  CB        18.0280  -17.3580   17.1040 C.3   140  ASP140      0.1410
     55  CG        19.0450  -17.3150   15.9810 C.2   140  ASP140      0.3668
     56  OD1       20.2380  -17.0710   16.2580 O.co2 140  ASP140     -0.2456
     57  OD2       18.6490  -17.5160   14.8140 O.co2 140  ASP140     -0.2456
     58  N         18.8950  -12.9570   21.1710 N.3   144  LEU144     -0.1245
     59  CA        18.1320  -11.7240   20.9970 C.3   144  LEU144      0.1561
     60  C         17.4970  -11.2060   22.2830 C.2   144  LEU144      0.2260
     61  O         17.5290  -10.0020   22.5600 O.2   144  LEU144     -0.2867
     62  CB        17.0400  -11.9290   19.9450 C.3   144  LEU144      0.0270
     63  CG        17.5030  -12.2590   18.5250 C.3   144  LEU144      0.0019
     64  CD1       16.3300  -12.6890   17.6610 C.3   144  LEU144      0.0001
     65  CD2       18.2260  -11.0690   17.9050 C.3   144  LEU144      0.0001
     66  N         15.9050  -15.7990    5.7830 N.3   176  GLN176     -0.1231
     67  CA        15.4010  -15.9030    7.1470 C.3   176  GLN176      0.1698
     68  C         14.6740  -17.2250    7.3790 C.2   176  GLN176      0.2592
     69  O         13.7850  -17.5930    6.6140 O.2   176  GLN176     -0.2718
     70  CB        14.4580  -14.7400    7.4640 C.3   176  GLN176      0.0381
     71  CG        15.0400  -13.3650    7.1660 C.3   176  GLN176      0.0905
     72  CD        16.4160  -13.1740    7.7610 C.2   176  GLN176      0.2608
     73  OE1       16.6380  -13.4220    8.9500 O.2   176  GLN176     -0.2717
     74  NE2       17.3600  -12.7480    6.9300 N.am  176  GLN176     -0.0878
     75  N         15.0510  -17.9300    8.4440 N.am  177  GLU177     -0.1966
     76  CA        14.3410  -19.1410    8.8350 C.3   177  GLU177      0.1733
     77  C         13.3780  -18.8420    9.9800 C.2   177  GLU177      0.2616
     78  O         12.5350  -19.6670   10.3310 O.2   177  GLU177     -0.2715
     79  CB        15.3280  -20.2550    9.1940 C.3   177  GLU177      0.0429
     80  CG        16.0990  -20.7630    7.9760 C.3   177  GLU177      0.1163
     81  CD        17.1840  -21.7740    8.3160 C.2   177  GLU177      0.3649
     82  OE1       17.9360  -21.5460    9.2830 O.co2 177  GLU177     -0.2457
     83  OE2       17.2980  -22.7880    7.5960 O.co2 177  GLU177     -0.2457
     84  N         13.5110  -17.6510   10.5580 N.am  178  GLY178     -0.1955
     85  CA        12.5590  -17.1810   11.5450 C.3   178  GLY178      0.1869
     86  C         11.3990  -16.4850   10.8590 C.2   178  GLY178      0.2309
     87  O         11.3820  -16.3470    9.6360 O.2   178  GLY178     -0.2863
@<TRIPOS>BOND
     1    66    67    1
     2     1     2    1
     3    69    68    2
     4    74    72   am
     5     3     2    1
     6     3     4    2
     7     2     5    1
     8    67    68    1
     9    67    70    1
    10    71    70    1
    11    71    72    1
    12    68    75   am
    13    83    81   ar
    14    72    73    2
    15    80    81    1
    16    80    79    1
    17    81    82   ar
    18    75    76    1
    19     5     6    1
    20    76    79    1
    21    76    77    1
    22     6     7   ar
    23     6     8   ar
    24     7     9   ar
    25    87    86    2
    26     8    10   ar
    27    77    78    2
    28    77    84   am
    29     9    11   ar
    30    84    85    1
    31    10    11   ar
    32    11    12    1
    33    86    85    1
    34    25    26   ar
    35    25    23   ar
    36    48    49    1
    37    48    45    1
    38    26    24   ar
    39    23    20   ar
    40    45    44    1
    41    45    46    1
    42    36    34   ar
    43    36    35   ar
    44    34    32   ar
    45    57    55   ar
    46    44    39   am
    47    24    22   ar
    48    20    22   ar
    49    20    18   ar
    50    47    46    2
    51    39    40    2
    52    39    38    1
    53    22    21   ar
    54    35    33   ar
    55    17    18    1
    56    17    14    1
    57    32    31    1
    58    32    33   ar
    59    18    19   ar
    60    55    56   ar
    61    55    54    1
    62    38    37    1
    63    38    41    1
    64    28    31    1
    65    28    29    1
    66    28    27    1
    67    13    14    1
    68    37    43    1
    69    29    30    2
    70    14    15    1
    71    21    19   ar
    72    54    51    1
    73    41    42    1
    74    64    63    1
    75    65    63    1
    76    43    42    1
    77    16    15    2
    78    51    50    1
    79    51    52    1
    80    63    62    1
    81    52    53    2
    82    62    59    1
    83    59    58    1
    84    59    60    1
    85    60    61    2
