@<TRIPOS>MOLECULE
tmp/3uyyB00.pdb
 137 127 0 0 0
SMALL
GASTEIGER

@<TRIPOS>ATOM
      1  N         11.7870   55.2560   15.2250 N.3    57  GLY57      -0.1225
      2  CA        11.8320   54.7970   16.5990 C.3    57  GLY57       0.1811
      3  C         12.3390   55.9360   17.4570 C.2    57  GLY57       0.2280
      4  O         13.3450   56.5740   17.1120 O.2    57  GLY57      -0.2866
      5  N         13.3010   62.8820   13.9520 N.3    76  ASN76      -0.1240
      6  CA        12.7230   61.6580   13.4120 C.3    76  ASN76       0.1653
      7  C         11.7960   61.9660   12.2410 C.2    76  ASN76       0.2266
      8  O         11.8430   61.2840   11.2110 O.2    76  ASN76      -0.2867
      9  CB        11.9420   60.9240   14.4970 C.3    76  ASN76       0.1155
     10  CG        12.8320   60.3960   15.5820 C.2    76  ASN76       0.2627
     11  OD1       13.4490   59.3370   15.4230 O.2    76  ASN76      -0.2716
     12  ND2       12.9210   61.1290   16.6970 N.am   76  ASN76      -0.0877
     13  N         13.9100   62.6440    9.2800 N.3    79  ARG79      -0.1245
     14  CA        14.4790   61.4450    8.6750 C.3    79  ARG79       0.1563
     15  C         13.3930   60.6000    7.9730 C.2    79  ARG79       0.2260
     16  O         13.6160   60.0850    6.8750 O.2    79  ARG79      -0.2867
     17  CB        15.2200   60.6040    9.7240 C.3    79  ARG79       0.0307
     18  CG        16.0570   59.4670    9.1260 C.3    79  ARG79       0.0489
     19  CD        16.9130   58.7650   10.1770 C.3    79  ARG79       0.2205
     20  NE        16.1250   58.1240   11.2290 N.pl3  79  ARG79      -0.0865
     21  CZ        16.6400   57.6740   12.3720 C.cat  79  ARG79       0.5346
     22  NH1       17.9420   57.7910   12.6110 N.pl3  79  ARG79       0.1354
     23  NH2       15.8550   57.1300   13.2940 N.pl3  79  ARG79       0.1354
     24  N         24.2340   44.5610    4.4720 N.3   171  ARG171     -0.1245
     25  CA        22.8460   44.9260    4.7520 C.3   171  ARG171      0.1563
     26  C         22.3810   46.0050    3.7530 C.2   171  ARG171      0.2260
     27  O         21.2000   46.3570    3.7070 O.2   171  ARG171     -0.2867
     28  CB        22.7000   45.4480    6.1860 C.3   171  ARG171      0.0307
     29  CG        23.4700   46.7210    6.4670 C.3   171  ARG171      0.0489
     30  CD        23.3070   47.1770    7.9100 C.3   171  ARG171      0.2205
     31  NE        22.1570   48.0610    8.1240 N.pl3 171  ARG171     -0.0865
     32  CZ        20.8900   47.6640    8.1620 C.cat 171  ARG171      0.5346
     33  NH1       20.5880   46.3870    7.9970 N.pl3 171  ARG171      0.1354
     34  NH2       19.9240   48.5400    8.3870 N.pl3 171  ARG171      0.1354
     35  N         15.5440   54.4830    6.6470 N.3   181  LYS181     -0.1245
     36  CA        15.0860   53.4830    7.5940 C.3   181  LYS181      0.1561
     37  C         13.9300   52.7240    6.9270 C.2   181  LYS181      0.2260
     38  O         12.7500   53.0290    7.1420 O.2   181  LYS181     -0.2867
     39  CB        14.6400   54.1610    8.8910 C.3   181  LYS181      0.0271
     40  CG        14.7500   53.2840   10.1390 C.3   181  LYS181      0.0035
     41  CD        14.7510   54.1260   11.4050 C.3   181  LYS181      0.0206
     42  CE        14.6610   53.2630   12.6510 C.3   181  LYS181      0.1093
     43  NZ        15.8210   52.3470   12.7840 N.3   181  LYS181     -0.1314
     44  N         16.9190   45.7430    6.9490 N.3   186  TYR186     -0.1241
     45  CA        16.8560   44.8490    8.0990 C.3   186  TYR186      0.1605
     46  C         16.6820   43.3950    7.6460 C.2   186  TYR186      0.2264
     47  O         17.2600   42.4750    8.2360 O.2   186  TYR186     -0.2867
     48  CB        15.7150   45.2720    9.0410 C.3   186  TYR186      0.0534
     49  CG        15.9530   46.6600    9.5960 C.ar  186  TYR186     -0.0201
     50  CD1       15.5410   47.7930    8.8980 C.ar  186  TYR186     -0.0009
     51  CD2       16.7050   46.8470   10.7570 C.ar  186  TYR186     -0.0009
     52  CE1       15.8750   49.0600    9.3320 C.ar  186  TYR186      0.0417
     53  CE2       17.0470   48.1180   11.1920 C.ar  186  TYR186      0.0417
     54  CZ        16.6310   49.2160   10.4750 C.ar  186  TYR186      0.1957
     55  OH        16.9910   50.4870   10.8880 O.3   186  TYR186     -0.2866
     56  N         28.3820   50.1340   10.0650 N.3   217  GLU217     -0.1245
     57  CA        27.4200   50.1740   11.1720 C.3   217  GLU217      0.1567
     58  C         27.3150   48.8350   11.8800 C.2   217  GLU217      0.2260
     59  O         27.9780   47.8840   11.4910 O.2   217  GLU217     -0.2867
     60  CB        26.0300   50.4540   10.6300 C.3   217  GLU217      0.0388
     61  CG        25.6530   51.8590   10.4260 C.3   217  GLU217      0.1160
     62  CD        24.1550   51.9560   10.2720 C.2   217  GLU217      0.3649
     63  OE1       23.6250   51.4660    9.2440 O.co2 217  GLU217     -0.2457
     64  OE2       23.5140   52.4970   11.2020 O.co2 217  GLU217     -0.2457
     65  N         24.0600   47.4240   12.4200 N.3   219  GLY219     -0.1210
     66  CA        22.8100   46.7690   12.0730 C.3   219  GLY219      0.1956
     67  C         21.6140   47.3010   12.8490 C.2   219  GLY219      0.2612
     68  O         20.4800   47.2670   12.3620 O.2   219  GLY219     -0.2717
     69  N         21.8600   47.7900   14.0600 N.am  220  ALA220     -0.1965
     70  CA        20.7930   48.3430   14.8760 C.3   220  ALA220      0.1728
     71  C         21.3290   49.5690   15.5950 C.2   220  ALA220      0.2616
     72  O         20.6750   50.1090   16.4980 O.2   220  ALA220     -0.2715
     73  CB        20.3080   47.3120   15.8900 C.3   220  ALA220      0.0334
     74  N         22.5150   50.0140   15.1850 N.am  221  ALA221     -0.1963
     75  CA        23.1390   51.1720   15.8230 C.3   221  ALA221      0.1728
     76  C         24.3150   51.6960   15.0110 C.2   221  ALA221      0.2616
     77  O         24.8200   51.0020   14.1320 O.2   221  ALA221     -0.2715
     78  CB        23.6080   50.7830   17.2360 C.3   221  ALA221      0.0334
     79  N         24.7430   52.9230   15.2940 N.am  222  ASN222     -0.1972
     80  CA        25.8950   53.4990   14.5930 C.3   222  ASN222      0.1688
     81  C         27.1370   53.1300   15.4030 C.2   222  ASN222      0.2292
     82  O         27.0280   52.7270   16.5640 O.2   222  ASN222     -0.2864
     83  CB        25.8050   55.0360   14.4980 C.3   222  ASN222      0.1181
     84  CG        25.2270   55.5200   13.1760 C.2   222  ASN222      0.2629
     85  OD1       25.2690   56.7170   12.8700 O.2   222  ASN222     -0.2716
     86  ND2       24.6810   54.5980   12.3870 N.am  222  ASN222     -0.0877
     87  N         22.8620   54.5310    8.1850 N.3   242  LEU242     -0.1245
     88  CA        21.6810   55.2590    8.6400 C.3   242  LEU242      0.1561
     89  C         22.1180   56.4890    9.4250 C.2   242  LEU242      0.2260
     90  O         23.0190   56.4060   10.2620 O.2   242  LEU242     -0.2867
     91  CB        20.8290   54.3430    9.5300 C.3   242  LEU242      0.0270
     92  CG        19.3800   54.7100    9.8830 C.3   242  LEU242      0.0019
     93  CD1       19.3550   55.9540   10.7410 C.3   242  LEU242      0.0001
     94  CD2       18.5640   54.9210    8.6070 C.3   242  LEU242      0.0001
     95  N         21.9430   58.1640   12.2020 N.3   244  SER244     -0.1202
     96  CA        21.5310   57.9910   13.5930 C.3   244  SER244      0.2020
     97  C         21.3400   59.3070   14.3440 C.2   244  SER244      0.2619
     98  O         22.2460   60.1450   14.3920 O.2   244  SER244     -0.2717
     99  CB        22.5810   57.1330   14.3160 C.3   244  SER244      0.2103
    100  OG        22.3350   57.0350   15.7080 O.3   244  SER244     -0.2182
    101  N         20.1570   59.4740   14.9320 N.am  245  ILE245     -0.1965
    102  CA        19.8320   60.6780   15.6950 C.3   245  ILE245      0.1727
    103  C         20.6660   60.7110   16.9770 C.2   245  ILE245      0.2616
    104  O         21.0500   61.7770   17.4630 O.2   245  ILE245     -0.2715
    105  CB        18.3360   60.7000   16.1000 C.3   245  ILE245      0.0290
    106  CG1       17.4370   60.6590   14.8470 C.3   245  ILE245      0.0022
    107  CG2       18.0660   61.9080   16.9970 C.3   245  ILE245      0.0023
    108  CD1       17.5780   61.8450   13.9210 C.3   245  ILE245      0.0001
    109  N         20.9230   59.5260   17.5240 N.am  246  THR246     -0.1951
    110  CA        21.7030   59.3860   18.7470 C.3   246  THR246      0.1897
    111  C         23.1660   59.6930   18.4240 C.2   246  THR246      0.2313
    112  O         23.8890   60.2360   19.2580 O.2   246  THR246     -0.2863
    113  CB        21.5810   57.9370   19.3260 C.3   246  THR246      0.1794
    114  OG1       20.1930   57.6090   19.5240 O.3   246  THR246     -0.2208
    115  CG2       22.3410   57.8120   20.6510 C.3   246  THR246      0.0378
    116  N         25.8470   53.0820   18.9670 N.3   281  CYS281     -0.1221
    117  CA        24.8440   53.9900   19.5010 C.3   281  CYS281      0.1808
    118  C         23.5180   53.9690   18.7320 C.2   281  CYS281      0.2602
    119  O         23.4850   53.7050   17.5320 O.2   281  CYS281     -0.2717
    120  CB        25.4210   55.4170   19.5450 C.3   281  CYS281      0.0970
    121  SG        25.6660   56.2010   17.9310 S.3   281  CYS281     -0.0800
    122  N         22.4280   54.2470   19.4400 N.am  282  GLY282     -0.1942
    123  CA        21.1100   54.2630   18.8190 C.3   282  GLY282      0.2014
    124  C         20.0090   54.4550   19.8460 C.2   282  GLY282      0.2640
    125  O         20.2620   54.3570   21.0390 O.2   282  GLY282     -0.2714
    126  N         18.7860   54.7300   19.3990 N.am  283  THR283     -0.1936
    127  CA        17.6660   54.9210   20.3190 C.3   283  THR283      0.2028
    128  C         17.4930   53.7090   21.2370 C.2   283  THR283      0.2642
    129  O         17.3680   53.8470   22.4510 O.2   283  THR283     -0.2714
    130  CB        16.3410   55.1700   19.5480 C.3   283  THR283      0.1808
    131  OG1       16.4320   56.4020   18.8270 O.3   283  THR283     -0.2208
    132  CG2       15.1640   55.2680   20.5140 C.3   283  THR283      0.0379
    133  N         17.4850   52.5170   20.6540 N.am  284  ALA284     -0.1977
    134  CA        17.3210   51.3110   21.4490 C.3   284  ALA284      0.1597
    135  C         18.5600   51.0700   22.2880 C.2   284  ALA284      0.2287
    136  O         18.4730   50.7760   23.4850 O.2   284  ALA284     -0.2864
    137  CB        17.0700   50.1200   20.5460 C.3   284  ALA284      0.0319
@<TRIPOS>BOND
     1    27    26    2
     2    26    25    1
     3    24    25    1
     4    25    28    1
     5    28    29    1
     6    29    30    1
     7    35    36    1
     8    16    15    2
     9    37    38    2
    10    37    36    1
    11    44    45    1
    12    36    39    1
    13    46    45    1
    14    46    47    2
    15    30    31    1
    16    15    14    1
    17    33    32    1
    18    45    48    1
    19    31    32    2
    20    32    34    1
    21    87    88    1
    22    94    92    1
    23    88    89    1
    24    88    91    1
    25    14    13    1
    26    14    17    1
    27    39    40    1
    28    50    52   ar
    29    50    49   ar
    30    48    49    1
    31    18    17    1
    32    18    19    1
    33    63    62   ar
    34    52    54   ar
    35    89    90    2
    36    91    92    1
    37    49    51   ar
    38    92    93    1
    39    56    57    1
    40    40    41    1
    41    19    20    1
    42    62    61    1
    43    62    64   ar
    44    61    60    1
    45    54    55    1
    46    54    53   ar
    47    60    57    1
    48    51    53   ar
    49    57    58    1
    50     8     7    2
    51    20    21    2
    52    41    42    1
    53    59    58    2
    54    66    65    1
    55    66    67    1
    56    95    96    1
    57     7     6    1
    58    68    67    2
    59    21    22    1
    60    21    23    1
    61    86    84   am
    62    42    43    1
    63    67    69   am
    64    85    84    2
    65    84    83    1
    66     6     5    1
    67     6     9    1
    68    96    99    1
    69    96    97    1
    70   108   106    1
    71    69    70    1
    72    77    76    2
    73    99   100    1
    74    97    98    2
    75    97   101   am
    76     9    10    1
    77    83    80    1
    78    80    79    1
    79    80    81    1
    80   106   105    1
    81    70    71    1
    82    70    73    1
    83   101   102    1
    84    76    79   am
    85    76    75    1
    86    74    71   am
    87    74    75    1
    88     1     2    1
    89    81    82    2
    90    11    10    2
    91    10    12   am
    92    71    72    2
    93   102   105    1
    94   102   103    1
    95    75    78    1
    96   105   107    1
    97     2     3    1
    98   103   104    2
    99   103   109   am
   100     4     3    2
   101   109   110    1
   102   119   118    2
   103   121   120    1
   104   111   110    1
   105   111   112    2
   106   118   122   am
   107   118   117    1
   108   110   113    1
   109   123   122    1
   110   123   124    1
   111   131   130    1
   112   116   117    1
   113   113   114    1
   114   113   115    1
   115   126   124   am
   116   126   127    1
   117   117   120    1
   118   130   127    1
   119   130   132    1
   120   124   125    2
   121   127   128    1
   122   137   134    1
   123   133   128   am
   124   133   134    1
   125   128   129    2
   126   134   135    1
   127   135   136    2
