@<TRIPOS>MOLECULE
tmp/3uzaA00.pdb
 156 147 0 0 0
SMALL
GASTEIGER

@<TRIPOS>ATOM
      1  N         44.0540   16.5140   37.0570 N.3    57  ALA57      -0.1245
      2  CA        44.8170   17.7570   37.1330 C.3    57  ALA57       0.1562
      3  C         45.6390   17.8380   38.4170 C.2    57  ALA57       0.2260
      4  O         46.8120   18.2090   38.3930 O.2    57  ALA57      -0.2867
      5  CB        43.8890   18.9530   37.0210 C.3    57  ALA57       0.0290
      6  N         48.4450   15.0610   38.0610 N.3    60  ILE60      -0.1245
      7  CA        49.4900   15.4040   37.1040 C.3    60  ILE60       0.1561
      8  C         50.3220   16.5980   37.5700 C.2    60  ILE60       0.2260
      9  O         51.4360   16.8090   37.0940 O.2    60  ILE60      -0.2867
     10  CB        48.8950   15.6970   35.7090 C.3    60  ILE60       0.0252
     11  CG1       49.9920   15.7200   34.6410 C.3    60  ILE60       0.0019
     12  CG2       48.1180   17.0050   35.7220 C.3    60  ILE60       0.0019
     13  CD1       49.4720   15.9630   33.2400 C.3    60  ILE60       0.0001
     14  N         45.2260   10.9850   30.6300 N.3    74  ILE74      -0.1231
     15  CA        45.1120   11.7630   31.8580 C.3    74  ILE74       0.1692
     16  C         45.4050   13.2450   31.6260 C.2    74  ILE74       0.2591
     17  O         44.8120   14.1130   32.2690 O.2    74  ILE74      -0.2718
     18  CB        46.0500   11.2100   32.9530 C.3    74  ILE74       0.0266
     19  CG1       45.5630    9.8360   33.4150 C.3    74  ILE74       0.0019
     20  CG2       46.1400   12.1730   34.1280 C.3    74  ILE74       0.0020
     21  CD1       46.3330    9.2700   34.5820 C.3    74  ILE74       0.0001
     22  N         46.3080   13.5290   30.6940 N.am   75  ALA75      -0.1980
     23  CA        46.7330   14.8990   30.4280 C.3    75  ALA75       0.1597
     24  C         45.8200   15.6180   29.4380 C.2    75  ALA75       0.2287
     25  O         45.6300   16.8310   29.5260 O.2    75  ALA75      -0.2864
     26  CB        48.1730   14.9140   29.9270 C.3    75  ALA75       0.0319
     27  N         41.1230   16.6180   29.8740 N.3    78  VAL78      -0.1231
     28  CA        40.5430   17.9310   30.1280 C.3    78  VAL78       0.1692
     29  C         40.1970   18.6390   28.8220 C.2    78  VAL78       0.2591
     30  O         39.2210   19.3880   28.7520 O.2    78  VAL78      -0.2718
     31  CB        41.4950   18.8130   30.9640 C.3    78  VAL78       0.0266
     32  CG1       42.8420   18.9500   30.2690 C.3    78  VAL78       0.0020
     33  CG2       40.8710   20.1760   31.2230 C.3    78  VAL78       0.0020
     34  N         40.9980   18.3900   27.7900 N.am   79  LEU79      -0.1980
     35  CA        40.7740   18.9970   26.4840 C.3    79  LEU79       0.1596
     36  C         39.4410   18.5520   25.8880 C.2    79  LEU79       0.2287
     37  O         38.7650   19.3270   25.2130 O.2    79  LEU79      -0.2864
     38  CB        41.9220   18.6600   25.5290 C.3    79  LEU79       0.0297
     39  CG        43.3120   19.1780   25.9090 C.3    79  LEU79       0.0022
     40  CD1       44.3660   18.6940   24.9220 C.3    79  LEU79       0.0001
     41  CD2       43.3130   20.6960   25.9930 C.3    79  LEU79       0.0001
     42  N         52.6810   17.3610   32.0450 N.3   154  PHE154     -0.1227
     43  CA        51.9000   17.9570   30.9650 C.3   154  PHE154      0.1736
     44  C         52.7430   18.6960   29.9260 C.2   154  PHE154      0.2595
     45  O         52.6130   18.4500   28.7280 O.2   154  PHE154     -0.2718
     46  CB        50.8250   18.8860   31.5310 C.3   154  PHE154      0.0547
     47  CG        49.9100   19.4570   30.4870 C.ar  154  PHE154     -0.0202
     48  CD1       49.1230   18.6250   29.7080 C.ar  154  PHE154     -0.0042
     49  CD2       49.8330   20.8240   30.2860 C.ar  154  PHE154     -0.0042
     50  CE1       48.2810   19.1460   28.7440 C.ar  154  PHE154     -0.0003
     51  CE2       48.9910   21.3500   29.3250 C.ar  154  PHE154     -0.0003
     52  CZ        48.2140   20.5110   28.5530 C.ar  154  PHE154     -0.0000
     53  N         53.6040   19.5970   30.3870 N.am  155  GLU155     -0.1979
     54  CA        54.4110   20.4090   29.4800 C.3   155  GLU155      0.1602
     55  C         55.4450   19.5800   28.7230 C.2   155  GLU155      0.2287
     56  O         55.8330   19.9270   27.6070 O.2   155  GLU155     -0.2864
     57  CB        55.0960   21.5540   30.2330 C.3   155  GLU155      0.0415
     58  CG        56.1720   21.1150   31.2170 C.3   155  GLU155      0.1163
     59  CD        55.6030   20.5410   32.5000 C.2   155  GLU155      0.3649
     60  OE1       54.3840   20.6790   32.7290 O.co2 155  GLU155     -0.2457
     61  OE2       56.3790   19.9550   33.2840 O.co2 155  GLU155     -0.2457
     62  N         53.5660   21.8420   22.4250 N.3   160  MET160     -0.1245
     63  CA        53.0840   23.2150   22.5190 C.3   160  MET160      0.1570
     64  C         52.4400   23.6680   21.2110 C.2   160  MET160      0.2261
     65  O         51.4170   24.3530   21.2200 O.2   160  MET160     -0.2867
     66  CB        54.2250   24.1580   22.9020 C.3   160  MET160      0.0387
     67  CG        54.7720   23.9250   24.2990 C.3   160  MET160      0.0595
     68  SD        53.5270   24.1930   25.5750 S.3   160  MET160     -0.1393
     69  CE        53.1440   25.9220   25.3150 C.3   160  MET160      0.0692
     70  N         48.9370   22.8060   21.3550 N.3   163  MET163     -0.1245
     71  CA        48.1660   23.5650   22.3350 C.3   163  MET163      0.1570
     72  C         47.9410   25.0110   21.9050 C.2   163  MET163      0.2261
     73  O         47.0820   25.7030   22.4530 O.2   163  MET163     -0.2867
     74  CB        48.8640   23.5340   23.6960 C.3   163  MET163      0.0387
     75  CG        48.8770   22.1620   24.3580 C.3   163  MET163      0.0595
     76  SD        47.2130   21.5770   24.7080 S.3   163  MET163     -0.1393
     77  CE        46.5460   22.9860   25.5910 C.3   163  MET163      0.0692
     78  N         44.8870   23.6080   18.8980 N.3   167  ASN167     -0.1240
     79  CA        43.9740   23.6280   20.0350 C.3   167  ASN167      0.1653
     80  C         43.3440   24.9970   20.3110 C.2   167  ASN167      0.2266
     81  O         42.1230   25.1330   20.3110 O.2   167  ASN167     -0.2867
     82  CB        44.6700   23.1010   21.2910 C.3   167  ASN167      0.1155
     83  CG        43.7180   22.9410   22.4600 C.2   167  ASN167      0.2627
     84  OD1       43.5730   23.8430   23.2860 O.2   167  ASN167     -0.2716
     85  ND2       43.0650   21.7880   22.5380 N.am  167  ASN167     -0.0877
     86  N         39.1780   30.8820   30.3060 N.3   232  TRP232     -0.1241
     87  CA        40.1120   30.0420   29.5610 C.3   232  TRP232      0.1605
     88  C         41.1710   30.8490   28.8160 C.2   232  TRP232      0.2264
     89  O         42.2930   30.3830   28.6340 O.2   232  TRP232     -0.2867
     90  CB        39.3570   29.1280   28.5930 C.3   232  TRP232      0.0550
     91  CG        38.6300   28.0090   29.2790 C.ar  232  TRP232      0.0003
     92  CD1       37.3790   28.0530   29.8130 C.ar  232  TRP232      0.0946
     93  CD2       39.1180   26.6810   29.5100 C.ar  232  TRP232      0.0152
     94  NE1       37.0530   26.8350   30.3580 N.ar  232  TRP232     -0.2442
     95  CE2       38.1040   25.9740   30.1860 C.ar  232  TRP232      0.0810
     96  CE3       40.3120   26.0210   29.2090 C.ar  232  TRP232      0.0012
     97  CZ2       38.2470   24.6400   30.5650 C.ar  232  TRP232      0.0191
     98  CZ3       40.4520   24.7010   29.5850 C.ar  232  TRP232      0.0001
     99  CH2       39.4270   24.0230   30.2560 C.ar  232  TRP232      0.0015
    100  N         44.6060   31.3350   30.4520 N.3   235  LEU235     -0.1231
    101  CA        45.4240   30.1340   30.3770 C.3   235  LEU235      0.1693
    102  C         46.1270   30.0090   29.0280 C.2   235  LEU235      0.2592
    103  O         47.3260   29.7240   28.9590 O.2   235  LEU235     -0.2718
    104  CB        44.5580   28.9100   30.6600 C.3   235  LEU235      0.0284
    105  CG        45.2830   27.6300   31.0570 C.3   235  LEU235      0.0019
    106  CD1       46.4740   27.9610   31.9270 C.3   235  LEU235      0.0001
    107  CD2       44.3120   26.7140   31.7780 C.3   235  LEU235      0.0001
    108  N         45.3700   30.2310   27.9600 N.am  236  HIS236     -0.1976
    109  CA        45.9220   30.2180   26.6170 C.3   236  HIS236      0.1656
    110  C         46.8260   31.4260   26.4210 C.2   236  HIS236      0.2291
    111  O         47.8720   31.3290   25.7860 O.2   236  HIS236     -0.2864
    112  CB        44.8030   30.2090   25.5700 C.3   236  HIS236      0.0771
    113  CG        43.9430   28.9830   25.6100 C.ar  236  HIS236      0.0820
    114  ND1       44.2490   27.8330   24.9100 N.ar  236  HIS236     -0.2267
    115  CD2       42.7770   28.7300   26.2510 C.ar  236  HIS236      0.1154
    116  CE1       43.3160   26.9250   25.1290 C.ar  236  HIS236      0.1986
    117  NE2       42.4100   27.4440   25.9400 N.ar  236  HIS236     -0.2212
    118  N         50.1230   30.6210   27.6880 N.3   239  ASN239     -0.1240
    119  CA        50.8380   29.7230   26.7900 C.3   239  ASN239      0.1653
    120  C         51.2890   30.4260   25.5060 C.2   239  ASN239      0.2266
    121  O         52.3610   30.1570   24.9870 O.2   239  ASN239     -0.2867
    122  CB        49.9660   28.5210   26.4230 C.3   239  ASN239      0.1155
    123  CG        49.6970   27.6220   27.5810 C.2   239  ASN239      0.2627
    124  OD1       50.3930   27.6690   28.5810 O.2   239  ASN239     -0.2716
    125  ND2       48.6800   26.7840   27.4530 N.am  239  ASN239     -0.0877
    126  N         50.7160   30.0140   37.1460 N.3   256  MET256     -0.1245
    127  CA        50.1810   28.9700   36.2830 C.3   256  MET256      0.1570
    128  C         49.0310   28.2530   36.9860 C.2   256  MET256      0.2261
    129  O         47.9940   27.9810   36.3810 O.2   256  MET256     -0.2867
    130  CB        51.2750   27.9710   35.9080 C.3   256  MET256      0.0387
    131  CG        50.8230   26.9090   34.9240 C.3   256  MET256      0.0595
    132  SD        50.4210   27.5930   33.3040 S.3   256  MET256     -0.1393
    133  CE        52.0430   28.1230   32.7550 C.3   256  MET256      0.0692
    134  N         45.2950   27.8710   35.7350 N.3   260  ILE260     -0.1245
    135  CA        44.7930   26.5090   35.6300 C.3   260  ILE260      0.1561
    136  C         43.5080   26.3450   36.4370 C.2   260  ILE260      0.2260
    137  O         42.5210   25.7910   35.9480 O.2   260  ILE260     -0.2867
    138  CB        45.8420   25.4890   36.1200 C.3   260  ILE260      0.0252
    139  CG1       47.0430   25.4630   35.1710 C.3   260  ILE260      0.0019
    140  CG2       45.2260   24.1020   36.2410 C.3   260  ILE260      0.0019
    141  CD1       48.1590   24.5480   35.6270 C.3   260  ILE260      0.0001
    142  N         40.1830   27.8590   35.0800 N.3   263  ALA263     -0.1231
    143  CA        39.5290   27.0470   34.0620 C.3   263  ALA263      0.1694
    144  C         38.5840   26.0300   34.6910 C.2   263  ALA263      0.2592
    145  O         37.4850   25.7960   34.1860 O.2   263  ALA263     -0.2718
    146  CB        40.5640   26.3460   33.1950 C.3   263  ALA263      0.0304
    147  N         39.0200   25.4260   35.7920 N.am  264  HIS264     -0.1976
    148  CA        38.2000   24.4570   36.5060 C.3   264  HIS264      0.1656
    149  C         36.9800   25.1340   37.1190 C.2   264  HIS264      0.2291
    150  O         35.9530   24.4960   37.3460 O.2   264  HIS264     -0.2864
    151  CB        39.0100   23.7690   37.6060 C.3   264  HIS264      0.0771
    152  CG        40.2840   23.1480   37.1250 C.ar  264  HIS264      0.0820
    153  ND1       40.3120   21.9960   36.3680 N.ar  264  HIS264     -0.2267
    154  CD2       41.5760   23.5070   37.3110 C.ar  264  HIS264      0.1154
    155  CE1       41.5660   21.6800   36.0980 C.ar  264  HIS264      0.1986
    156  NE2       42.3530   22.5800   36.6590 N.ar  264  HIS264     -0.2212
@<TRIPOS>BOND
     1    78    79    1
     2    79    80    1
     3    79    82    1
     4    80    81    2
     5    64    65    2
     6    64    63    1
     7    82    83    1
     8    70    71    1
     9    72    71    1
    10    72    73    2
    11    71    74    1
    12    62    63    1
    13    83    85   am
    14    83    84    2
    15    63    66    1
    16    66    67    1
    17    74    75    1
    18    67    68    1
    19    75    76    1
    20    76    77    1
    21   114   116   ar
    22   114   113   ar
    23    40    39    1
    24   121   120    2
    25   116   117   ar
    26    37    36    2
    27    69    68    1
    28   120   119    1
    29    38    39    1
    30    38    35    1
    31   112   113    1
    32   112   109    1
    33   113   115   ar
    34   111   110    2
    35    36    35    1
    36    39    41    1
    37   117   115   ar
    38   110   109    1
    39   122   119    1
    40   122   123    1
    41    35    34    1
    42   109   108    1
    43   119   118    1
    44   125   123   am
    45   123   124    2
    46    56    55    2
    47    34    29   am
    48   108   102   am
    49    52    50   ar
    50    52    51   ar
    51    90    91    1
    52    90    87    1
    53    89    88    2
    54    55    54    1
    55    45    44    2
    56    50    48   ar
    57    30    29    2
    58    88    87    1
    59    29    28    1
    60   103   102    2
    61   102   101    1
    62    96    93   ar
    63    96    98   ar
    64    91    93   ar
    65    91    92   ar
    66    51    49   ar
    67    24    25    2
    68    24    23    1
    69    54    57    1
    70    54    53    1
    71    93    95   ar
    72    87    86    1
    73    98    99   ar
    74    48    47   ar
    75    92    94   ar
    76    27    28    1
    77    44    53   am
    78    44    43    1
    79    26    23    1
    80    28    31    1
    81    95    94   ar
    82    95    97   ar
    83    57    58    1
    84    99    97   ar
    85    32    31    1
    86    49    47   ar
    87   101   100    1
    88   101   104    1
    89    23    22    1
    90    47    46    1
    91    14    15    1
    92   104   105    1
    93    22    16   am
    94    31    33    1
    95    43    46    1
    96    43    42    1
    97   105   107    1
    98   105   106    1
    99    58    59    1
   100    16    15    1
   101    16    17    2
   102    15    18    1
   103    59    60   ar
   104    59    61   ar
   105   133   132    1
   106    18    19    1
   107    18    20    1
   108   146   143    1
   109    13    11    1
   110   132   131    1
   111    19    21    1
   112   143   144    1
   113   143   142    1
   114   145   144    2
   115    11    10    1
   116   144   147   am
   117   131   130    1
   118   139   141    1
   119   139   138    1
   120   135   134    1
   121   135   138    1
   122   135   136    1
   123    10    12    1
   124    10     7    1
   125   147   148    1
   126   130   127    1
   127   137   136    2
   128   155   153   ar
   129   155   156   ar
   130   138   140    1
   131   127   128    1
   132   127   126    1
   133   153   152   ar
   134   129   128    2
   135   148   149    1
   136   148   151    1
   137   156   154   ar
   138     5     2    1
   139     1     2    1
   140     9     8    2
   141     7     8    1
   142     7     6    1
   143   149   150    2
   144   152   154   ar
   145   152   151    1
   146     2     3    1
   147     4     3    2
