@<TRIPOS>MOLECULE
tmp/3uzbB01.pdb
 119 113 0 0 0
SMALL
GASTEIGER

@<TRIPOS>ATOM
      1  N         -3.3630  -31.1080   47.8020 N.3     8  PHE8       -0.1241
      2  CA        -3.7910  -31.7840   46.5910 C.3     8  PHE8        0.1605
      3  C         -3.1220  -31.2450   45.3210 C.2     8  PHE8        0.2264
      4  O         -3.7450  -30.5380   44.5270 O.2     8  PHE8       -0.2867
      5  CB        -5.3050  -31.7070   46.4660 C.3     8  PHE8        0.0534
      6  CG        -5.9330  -33.0270   46.2000 C.ar    8  PHE8       -0.0203
      7  CD1       -5.6700  -34.1020   47.0380 C.ar    8  PHE8       -0.0042
      8  CD2       -6.7480  -33.2140   45.1010 C.ar    8  PHE8       -0.0042
      9  CE1       -6.2040  -35.3410   46.7860 C.ar    8  PHE8       -0.0003
     10  CE2       -7.2930  -34.4570   44.8380 C.ar    8  PHE8       -0.0003
     11  CZ        -7.0180  -35.5240   45.6830 C.ar    8  PHE8       -0.0000
     12  N        -12.9330  -42.6050   36.1850 N.3    53  PHE53      -0.1241
     13  CA       -11.8070  -42.7940   37.0650 C.3    53  PHE53       0.1605
     14  C        -12.2760  -43.0520   38.4810 C.2    53  PHE53       0.2264
     15  O        -13.4760  -42.9910   38.7740 O.2    53  PHE53      -0.2867
     16  CB       -10.8960  -41.5690   37.0350 C.3    53  PHE53       0.0534
     17  CG       -11.5470  -40.3160   37.5390 C.ar   53  PHE53      -0.0203
     18  CD1      -10.7750  -39.2720   38.0210 C.ar   53  PHE53      -0.0042
     19  CD2      -12.9280  -40.1720   37.5310 C.ar   53  PHE53      -0.0042
     20  CE1      -11.3630  -38.1040   38.4890 C.ar   53  PHE53      -0.0003
     21  CE2      -13.5260  -39.0080   37.9950 C.ar   53  PHE53      -0.0003
     22  CZ       -12.7400  -37.9710   38.4760 C.ar   53  PHE53      -0.0000
     23  N        -11.0080  -42.8310   42.9350 N.3    55  GLY55      -0.1225
     24  CA       -10.2800  -42.0630   43.9200 C.3    55  GLY55       0.1811
     25  C        -10.2770  -42.7910   45.2460 C.2    55  GLY55       0.2280
     26  O        -11.3230  -42.9910   45.8600 O.2    55  GLY55      -0.2866
     27  N        -17.6950  -49.6150   41.8860 N.3    77  ARG77      -0.1245
     28  CA       -18.1640  -48.3650   41.3070 C.3    77  ARG77       0.1563
     29  C        -17.5630  -48.1260   39.9410 C.2    77  ARG77       0.2260
     30  O        -18.2850  -47.7930   39.0060 O.2    77  ARG77      -0.2867
     31  CB       -17.8400  -47.1680   42.2010 C.3    77  ARG77       0.0307
     32  CG       -18.4070  -45.8530   41.6520 C.3    77  ARG77       0.0489
     33  CD       -18.3430  -44.7100   42.6580 C.3    77  ARG77       0.2205
     34  NE       -16.9800  -44.2600   42.9130 N.pl3  77  ARG77      -0.0865
     35  CZ       -16.6460  -43.4400   43.9040 C.cat  77  ARG77       0.5346
     36  NH1      -17.5870  -42.9890   44.7220 N.pl3  77  ARG77       0.1354
     37  NH2      -15.3810  -43.0730   44.0830 N.pl3  77  ARG77       0.1354
     38  N         -2.5140  -40.7290   47.6170 N.3   120  TYR120     -0.1241
     39  CA        -3.6930  -40.7340   46.7490 C.3   120  TYR120      0.1605
     40  C         -3.4930  -41.6470   45.5500 C.2   120  TYR120      0.2264
     41  O         -2.4260  -41.6410   44.9320 O.2   120  TYR120     -0.2867
     42  CB        -4.0110  -39.3070   46.2650 C.3   120  TYR120      0.0534
     43  CG        -5.3670  -39.1630   45.6020 C.ar  120  TYR120     -0.0201
     44  CD1       -6.5460  -39.3740   46.3230 C.ar  120  TYR120     -0.0009
     45  CD2       -5.4730  -38.8590   44.2420 C.ar  120  TYR120     -0.0009
     46  CE1       -7.8070  -39.2930   45.7040 C.ar  120  TYR120      0.0417
     47  CE2       -6.7260  -38.7750   43.6080 C.ar  120  TYR120      0.0417
     48  CZ        -7.8920  -38.9950   44.3440 C.ar  120  TYR120      0.1957
     49  OH        -9.1300  -38.9270   43.7230 O.3   120  TYR120     -0.2866
     50  N         -5.0780  -42.8800   41.7870 N.3   122  ARG122     -0.1245
     51  CA        -5.9720  -42.4480   40.7110 C.3   122  ARG122      0.1563
     52  C         -6.0700  -43.4610   39.5670 C.2   122  ARG122      0.2260
     53  O         -5.3030  -43.4160   38.6070 O.2   122  ARG122     -0.2867
     54  CB        -5.5350  -41.0670   40.1780 C.3   122  ARG122      0.0307
     55  CG        -6.1800  -40.6000   38.8560 C.3   122  ARG122      0.0489
     56  CD        -7.7110  -40.6670   38.8420 C.3   122  ARG122      0.2205
     57  NE        -8.3560  -39.7080   39.7370 N.pl3 122  ARG122     -0.0865
     58  CZ        -8.2240  -38.3860   39.6580 C.cat 122  ARG122      0.5346
     59  NH1       -7.4620  -37.8450   38.7230 N.pl3 122  ARG122      0.1354
     60  NH2       -8.8670  -37.6000   40.5120 N.pl3 122  ARG122      0.1354
     61  N         -7.9300  -31.4630   51.7290 N.3   152  TYR152     -0.1241
     62  CA        -8.4380  -30.8370   50.4960 C.3   152  TYR152      0.1605
     63  C         -8.6730  -29.3390   50.7190 C.2   152  TYR152      0.2264
     64  O         -7.8000  -28.6530   51.2540 O.2   152  TYR152     -0.2867
     65  CB        -9.7390  -31.5060   50.0420 C.3   152  TYR152      0.0534
     66  CG       -10.0150  -31.4140   48.5440 C.ar  152  TYR152     -0.0201
     67  CD1       -9.1390  -31.9870   47.6080 C.ar  152  TYR152     -0.0009
     68  CD2      -11.1900  -30.8200   48.0660 C.ar  152  TYR152     -0.0009
     69  CE1       -9.4370  -31.9770   46.2330 C.ar  152  TYR152      0.0417
     70  CE2      -11.4970  -30.8040   46.6960 C.ar  152  TYR152      0.0417
     71  CZ       -10.6200  -31.3880   45.7900 C.ar  152  TYR152      0.1957
     72  OH       -10.9520  -31.4130   44.4530 O.3   152  TYR152     -0.2866
     73  N        -18.7220  -41.8420   37.6810 N.3   179  LYS179     -0.1245
     74  CA       -17.5740  -40.9560   37.7830 C.3   179  LYS179      0.1561
     75  C        -16.9290  -40.8650   36.3980 C.2   179  LYS179      0.2260
     76  O        -15.9780  -41.5890   36.1020 O.2   179  LYS179     -0.2867
     77  CB       -16.5810  -41.5230   38.7980 C.3   179  LYS179      0.0271
     78  CG       -16.0880  -40.5260   39.8310 C.3   179  LYS179      0.0035
     79  CD       -15.1050  -41.1880   40.7770 C.3   179  LYS179      0.0206
     80  CE       -14.7480  -40.2990   41.9580 C.3   179  LYS179      0.1093
     81  NZ       -13.8820  -39.1400   41.6060 N.3   179  LYS179     -0.1314
     82  N        -17.4250  -33.5680   35.3370 N.3   184  TYR184     -0.1241
     83  CA       -16.5530  -32.5030   35.7840 C.3   184  TYR184      0.1605
     84  C        -16.3400  -31.3810   34.7840 C.2   184  TYR184      0.2264
     85  O        -16.2080  -30.2180   35.1810 O.2   184  TYR184     -0.2867
     86  CB       -15.2420  -33.1290   36.2560 C.3   184  TYR184      0.0534
     87  CG       -15.5680  -34.2420   37.2150 C.ar  184  TYR184     -0.0201
     88  CD1      -15.7260  -35.5510   36.7630 C.ar  184  TYR184     -0.0009
     89  CD2      -15.9080  -33.9600   38.5360 C.ar  184  TYR184     -0.0009
     90  CE1      -16.2300  -36.5480   37.5970 C.ar  184  TYR184      0.0417
     91  CE2      -16.4140  -34.9430   39.3730 C.ar  184  TYR184      0.0417
     92  CZ       -16.5790  -36.2330   38.8970 C.ar  184  TYR184      0.1957
     93  OH       -17.1410  -37.1890   39.7050 O.3   184  TYR184     -0.2866
     94  N        -16.9700  -32.2160   44.3960 N.3   218  ALA218     -0.1245
     95  CA       -16.4990  -33.5870   44.4830 C.3   218  ALA218      0.1562
     96  C        -16.7240  -34.0750   45.9010 C.2   218  ALA218      0.2260
     97  O        -15.7790  -34.4190   46.6220 O.2   218  ALA218     -0.2867
     98  CB       -15.0250  -33.6610   44.1280 C.3   218  ALA218      0.0290
     99  N        -16.5320  -37.3570   51.3180 N.3   280  GLY280     -0.1210
    100  CA       -15.8400  -37.7310   50.0910 C.3   280  GLY280      0.1956
    101  C        -14.4290  -38.1990   50.3990 C.2   280  GLY280      0.2613
    102  O        -14.0600  -38.2300   51.5680 O.2   280  GLY280     -0.2717
    103  N        -13.6360  -38.5690   49.3930 N.am  281  THR281     -0.1938
    104  CA       -12.2800  -39.0180   49.6910 C.3   281  THR281      0.2028
    105  C        -11.3740  -37.8280   49.9580 C.2   281  THR281      0.2642
    106  O        -11.2680  -37.4060   51.0980 O.2   281  THR281     -0.2714
    107  CB       -11.6710  -39.8860   48.5740 C.3   281  THR281      0.1808
    108  OG1      -12.3990  -41.1120   48.4590 O.3   281  THR281     -0.2208
    109  CG2      -10.2380  -40.2250   48.8960 C.3   281  THR281      0.0379
    110  N        -10.7240  -37.2760   48.9410 N.am  282  ALA282     -0.1963
    111  CA        -9.8440  -36.1250   49.1710 C.3   282  ALA282      0.1728
    112  C        -10.5570  -35.1090   50.0430 C.2   282  ALA282      0.2616
    113  O         -9.9280  -34.3910   50.8220 O.2   282  ALA282     -0.2715
    114  CB        -9.4460  -35.4800   47.8590 C.3   282  ALA282      0.0334
    115  N        -11.8790  -35.0680   49.9000 N.am  283  ALA283     -0.1977
    116  CA       -12.7250  -34.1710   50.6690 C.3   283  ALA283      0.1597
    117  C        -12.5570  -34.4230   52.1730 C.2   283  ALA283      0.2287
    118  O        -11.9900  -33.5910   52.8840 O.2   283  ALA283     -0.2864
    119  CB       -14.1840  -34.3630   50.2550 C.3   283  ALA283      0.0319
@<TRIPOS>BOND
     1    84    85    2
     2    84    83    1
     3    82    83    1
     4    83    86    1
     5    76    75    2
     6    12    13    1
     7    86    87    1
     8    75    74    1
     9    88    87   ar
    10    88    90   ar
    11    16    13    1
    12    16    17    1
    13    13    14    1
    14    87    89   ar
    15    19    17   ar
    16    19    21   ar
    17    17    18   ar
    18    90    92   ar
    19    73    74    1
    20    74    77    1
    21    21    22   ar
    22    18    20   ar
    23    22    20   ar
    24    14    15    2
    25    89    91   ar
    26    53    52    2
    27    59    58    1
    28    77    78    1
    29    56    55    1
    30    56    57    1
    31    55    54    1
    32    92    91   ar
    33    92    93    1
    34    30    29    2
    35    52    51    1
    36    58    57    2
    37    58    60    1
    38    78    79    1
    39    29    28    1
    40    54    51    1
    41    51    50    1
    42    79    80    1
    43    28    27    1
    44    28    31    1
    45    81    80    1
    46    32    31    1
    47    32    33    1
    48    33    34    1
    49    34    35    2
    50    23    24    1
    51    47    45   ar
    52    47    48   ar
    53    49    48    1
    54    35    37    1
    55    35    36    1
    56    24    25    1
    57    98    95    1
    58    45    43   ar
    59    48    46   ar
    60    94    95    1
    61    72    71    1
    62    95    96    1
    63     4     3    2
    64    10     8   ar
    65    10    11   ar
    66    41    40    2
    67     8     6   ar
    68    25    26    2
    69     3     2    1
    70    40    39    1
    71    43    42    1
    72    43    44   ar
    73    11     9   ar
    74    46    44   ar
    75    71    69   ar
    76    71    70   ar
    77    96    97    2
    78     6     5    1
    79     6     7   ar
    80    69    67   ar
    81    42    39    1
    82     5     2    1
    83     2     1    1
    84    70    68   ar
    85    39    38    1
    86     9     7   ar
    87    67    66   ar
    88   114   111    1
    89    68    66   ar
    90   108   107    1
    91    66    65    1
    92   107   109    1
    93   107   104    1
    94   110   111    1
    95   110   105   am
    96   111   112    1
    97   103   104    1
    98   103   101   am
    99   104   105    1
   100   115   112   am
   101   115   116    1
   102   105   106    2
   103    65    62    1
   104   112   113    2
   105   100   101    1
   106   100    99    1
   107   119   116    1
   108   101   102    2
   109    62    63    1
   110    62    61    1
   111   116   117    1
   112    63    64    2
   113   117   118    2
