@<TRIPOS>MOLECULE
tmp/3uzcA00.pdb
 153 143 0 0 0
SMALL
GASTEIGER

@<TRIPOS>ATOM
      1  N         15.2380   17.6590   36.0620 N.3    53  ALA53      -0.1245
      2  CA        16.2720   16.7230   35.6260 C.3    53  ALA53       0.1562
      3  C         16.8960   15.9450   36.7830 C.2    53  ALA53       0.2260
      4  O         16.9710   14.7190   36.7410 O.2    53  ALA53      -0.2867
      5  CB        17.3460   17.4460   34.8310 C.3    53  ALA53       0.0290
      6  N         16.5150   12.1730   37.7220 N.3    57  ALA57      -0.1245
      7  CA        17.7380   11.3770   37.7430 C.3    57  ALA57       0.1562
      8  C         17.8370   10.5260   39.0060 C.2    57  ALA57       0.2260
      9  O         18.2410    9.3650   38.9530 O.2    57  ALA57      -0.2867
     10  CB        18.9590   12.2750   37.6070 C.3    57  ALA57       0.0290
     11  N         15.0900    7.7240   38.5830 N.3    60  ILE60      -0.1245
     12  CA        15.4170    6.7050   37.5940 C.3    60  ILE60       0.1561
     13  C         16.6290    5.8730   38.0130 C.2    60  ILE60       0.2260
     14  O         16.8360    4.7670   37.5120 O.2    60  ILE60      -0.2867
     15  CB        15.6770    7.3360   36.2100 C.3    60  ILE60       0.0252
     16  CG1       15.6750    6.2650   35.1180 C.3    60  ILE60       0.0019
     17  CG2       16.9850    8.1130   36.2120 C.3    60  ILE60       0.0019
     18  CD1       15.8780    6.8190   33.7260 C.3    60  ILE60       0.0001
     19  N         13.3210    9.8920   31.4200 N.3    75  ALA75      -0.1245
     20  CA        14.6660    9.4220   31.1040 C.3    75  ALA75       0.1562
     21  C         15.3550   10.2810   30.0450 C.2    75  ALA75       0.2260
     22  O         16.5830   10.3330   29.9810 O.2    75  ALA75      -0.2867
     23  CB        14.6260    7.9660   30.6590 C.3    75  ALA75       0.0290
     24  N         16.4600   15.0680   30.4420 N.3    78  VAL78      -0.1231
     25  CA        17.7800   15.6520   30.6400 C.3    78  VAL78       0.1692
     26  C         18.4560   15.8980   29.2950 C.2    78  VAL78       0.2591
     27  O         19.3220   16.7630   29.1730 O.2    78  VAL78      -0.2718
     28  CB        18.6710   14.7480   31.5130 C.3    78  VAL78       0.0266
     29  CG1       18.8850   13.3990   30.8400 C.3    78  VAL78       0.0020
     30  CG2       20.0020   15.4280   31.8040 C.3    78  VAL78       0.0020
     31  N         18.0490   15.1360   28.2850 N.am   79  LEU79      -0.1980
     32  CA        18.5880   15.2960   26.9400 C.3    79  LEU79       0.1596
     33  C         18.0760   16.5850   26.3090 C.2    79  LEU79       0.2287
     34  O         18.6830   17.1160   25.3810 O.2    79  LEU79      -0.2864
     35  CB        18.2210   14.0950   26.0650 C.3    79  LEU79       0.0297
     36  CG        18.7020   12.7240   26.5440 C.3    79  LEU79       0.0022
     37  CD1       18.2480   11.6330   25.5870 C.3    79  LEU79       0.0001
     38  CD2       20.2150   12.7050   26.7030 C.3    79  LEU79       0.0001
     39  N         17.3060    3.5420   32.5580 N.3   154  PHE154     -0.1227
     40  CA        17.8640    4.3550   31.4800 C.3   154  PHE154      0.1736
     41  C         18.5520    3.5330   30.3910 C.2   154  PHE154      0.2595
     42  O         18.2550    3.6910   29.2080 O.2   154  PHE154     -0.2718
     43  CB        18.8280    5.4060   32.0400 C.3   154  PHE154      0.0547
     44  CG        19.3570    6.3570   31.0020 C.ar  154  PHE154     -0.0202
     45  CD1       18.5420    7.3420   30.4660 C.ar  154  PHE154     -0.0042
     46  CD2       20.6690    6.2700   30.5670 C.ar  154  PHE154     -0.0042
     47  CE1       19.0240    8.2180   29.5120 C.ar  154  PHE154     -0.0003
     48  CE2       21.1580    7.1440   29.6150 C.ar  154  PHE154     -0.0003
     49  CZ        20.3340    8.1190   29.0860 C.ar  154  PHE154     -0.0000
     50  N         19.4630    2.6540   30.7940 N.am  155  GLU155     -0.1979
     51  CA        20.2300    1.8600   29.8370 C.3   155  GLU155      0.1602
     52  C         19.3700    0.8210   29.1160 C.2   155  GLU155      0.2287
     53  O         19.6990    0.3950   28.0090 O.2   155  GLU155     -0.2864
     54  CB        21.4170    1.1770   30.5250 C.3   155  GLU155      0.0415
     55  CG        21.0360    0.0860   31.5170 C.3   155  GLU155      0.1163
     56  CD        20.4430    0.6330   32.8020 C.2   155  GLU155      0.3649
     57  OE1       20.6060    1.8440   33.0690 O.co2 155  GLU155     -0.2457
     58  OE2       19.8190   -0.1500   33.5490 O.co2 155  GLU155     -0.2457
     59  N         21.4560    2.6730   22.7480 N.3   160  MET160     -0.1245
     60  CA        22.8310    3.1560   22.8320 C.3   160  MET160      0.1570
     61  C         23.3050    3.7380   21.5050 C.2   160  MET160      0.2261
     62  O         24.1030    4.6750   21.4790 O.2   160  MET160     -0.2867
     63  CB        23.7690    2.0360   23.2820 C.3   160  MET160      0.0387
     64  CG        23.5770    1.6110   24.7280 C.3   160  MET160      0.0595
     65  SD        23.8940    2.9540   25.8880 S.3   160  MET160     -0.1393
     66  CE        25.5940    3.3580   25.4910 C.3   160  MET160      0.0692
     67  N         22.3110    7.2960   21.7220 N.3   163  MET163     -0.1245
     68  CA        23.1290    8.0530   22.6620 C.3   163  MET163      0.1570
     69  C         24.5260    8.3280   22.1140 C.2   163  MET163      0.2261
     70  O         25.1870    9.2810   22.5280 O.2   163  MET163     -0.2867
     71  CB        23.2300    7.3100   23.9960 C.3   163  MET163      0.0387
     72  CG        21.8950    7.1010   24.6910 C.3   163  MET163      0.0595
     73  SD        21.1280    8.6540   25.1850 S.3   163  MET163     -0.1393
     74  CE        22.4070    9.3300   26.2410 C.3   163  MET163      0.0692
     75  N         22.9210   11.3370   19.1740 N.3   167  ASN167     -0.1240
     76  CA        23.0560   12.2750   20.2830 C.3   167  ASN167      0.1653
     77  C         24.4610   12.8580   20.4230 C.2   167  ASN167      0.2266
     78  O         24.6800   14.0350   20.1470 O.2   167  ASN167     -0.2867
     79  CB        22.6200   11.6200   21.5970 C.3   167  ASN167      0.1155
     80  CG        22.5440   12.6080   22.7460 C.2   167  ASN167      0.2627
     81  OD1       22.9930   13.7480   22.6310 O.2   167  ASN167     -0.2716
     82  ND2       21.9710   12.1740   23.8620 N.am  167  ASN167     -0.0877
     83  N         30.6910   17.1000   30.4160 N.3   232  TRP232     -0.1241
     84  CA        29.8500   16.1560   29.6870 C.3   232  TRP232      0.1605
     85  C         30.6530   15.0990   28.9300 C.2   232  TRP232      0.2264
     86  O         30.1920   13.9710   28.7630 O.2   232  TRP232     -0.2867
     87  CB        28.9010   16.8970   28.7400 C.3   232  TRP232      0.0550
     88  CG        27.7990   17.6150   29.4590 C.ar  232  TRP232      0.0003
     89  CD1       27.8430   18.8740   29.9810 C.ar  232  TRP232      0.0946
     90  CD2       26.4890   17.1090   29.7410 C.ar  232  TRP232      0.0152
     91  NE1       26.6390   19.1850   30.5680 N.ar  232  TRP232     -0.2442
     92  CE2       25.7910   18.1180   30.4350 C.ar  232  TRP232      0.0810
     93  CE3       25.8370   15.9010   29.4730 C.ar  232  TRP232      0.0012
     94  CZ2       24.4750   17.9550   30.8630 C.ar  232  TRP232      0.0191
     95  CZ3       24.5310   15.7420   29.8990 C.ar  232  TRP232      0.0001
     96  CH2       23.8640   16.7630   30.5870 C.ar  232  TRP232      0.0015
     97  N         31.1810   11.7300   30.7450 N.3   235  LEU235     -0.1231
     98  CA        29.9710   10.9170   30.7160 C.3   235  LEU235      0.1693
     99  C         29.7500   10.2650   29.3500 C.2   235  LEU235      0.2592
    100  O         29.3260    9.1130   29.2720 O.2   235  LEU235     -0.2718
    101  CB        28.7530   11.7510   31.1230 C.3   235  LEU235      0.0284
    102  CG        27.4210   11.0090   31.2530 C.3   235  LEU235      0.0019
    103  CD1       27.5680    9.7700   32.1240 C.3   235  LEU235      0.0001
    104  CD2       26.3450   11.9310   31.8030 C.3   235  LEU235      0.0001
    105  N         30.0370   10.9990   28.2780 N.am  236  HIS236     -0.1976
    106  CA        29.9110   10.4550   26.9290 C.3   236  HIS236      0.1656
    107  C         31.0500    9.4880   26.6310 C.2   236  HIS236      0.2291
    108  O         30.8410    8.4370   26.0290 O.2   236  HIS236     -0.2864
    109  CB        29.8850   11.5730   25.8850 C.3   236  HIS236      0.0771
    110  CG        28.6340   12.3980   25.9090 C.ar  236  HIS236      0.0820
    111  ND1       27.4830   12.0220   25.2480 N.ar  236  HIS236     -0.2267
    112  CD2       28.3580   13.5810   26.5040 C.ar  236  HIS236      0.1154
    113  CE1       26.5510   12.9380   25.4410 C.ar  236  HIS236      0.1986
    114  NE2       27.0540   13.8940   26.2000 N.ar  236  HIS236     -0.2212
    115  N         30.2230    6.1520   27.7220 N.3   239  ASN239     -0.1240
    116  CA        29.2940    5.4720   26.8260 C.3   239  ASN239      0.1653
    117  C         29.9450    5.0310   25.5190 C.2   239  ASN239      0.2266
    118  O         29.4930    4.0800   24.8840 O.2   239  ASN239     -0.2867
    119  CB        28.0780    6.3560   26.5400 C.3   239  ASN239      0.1155
    120  CG        27.2680    6.6530   27.7860 C.2   239  ASN239      0.2627
    121  OD1       27.5050    6.0750   28.8470 O.2   239  ASN239     -0.2716
    122  ND2       26.3040    7.5590   27.6620 N.am  239  ASN239     -0.0877
    123  N         29.8810    5.6110   37.4200 N.3   256  MET256     -0.1245
    124  CA        28.8030    6.0600   36.5510 C.3   256  MET256      0.1570
    125  C         28.1270    7.3110   37.1040 C.2   256  MET256      0.2261
    126  O         27.9440    8.2950   36.3860 O.2   256  MET256     -0.2867
    127  CB        27.7730    4.9480   36.3550 C.3   256  MET256      0.0387
    128  CG        26.6780    5.2930   35.3610 C.3   256  MET256      0.0595
    129  SD        27.3180    5.5960   33.7010 S.3   256  MET256     -0.1393
    130  CE        28.0760    4.0150   33.3360 C.3   256  MET256      0.0692
    131  N         27.5840   11.3510   36.0410 N.3   260  ILE260     -0.1245
    132  CA        26.2310   11.8930   36.0170 C.3   260  ILE260      0.1561
    133  C         26.1420   13.1370   36.8970 C.2   260  ILE260      0.2260
    134  O         25.5530   14.1470   36.5050 O.2   260  ILE260     -0.2867
    135  CB        25.2030   10.8550   36.4920 C.3   260  ILE260      0.0252
    136  CG1       25.2800    9.5940   35.6280 C.3   260  ILE260      0.0019
    137  CG2       23.8010   11.4380   36.4610 C.3   260  ILE260      0.0019
    138  CD1       24.3330    8.4960   36.0620 C.3   260  ILE260      0.0001
    139  N         27.8230   16.1120   35.3170 N.3   263  ALA263     -0.1231
    140  CA        26.9900   16.7950   34.3330 C.3   263  ALA263      0.1694
    141  C         25.9890   17.7290   35.0070 C.2   263  ALA263      0.2592
    142  O         25.6830   18.8030   34.4890 O.2   263  ALA263     -0.2718
    143  CB        26.2680   15.7840   33.4570 C.3   263  ALA263      0.0304
    144  N         25.4810   17.3100   36.1620 N.am  264  HIS264     -0.1976
    145  CA        24.5160   18.1070   36.9080 C.3   264  HIS264      0.1656
    146  C         25.1810   19.3080   37.5660 C.2   264  HIS264      0.2291
    147  O         24.5110   20.2620   37.9580 O.2   264  HIS264     -0.2864
    148  CB        23.8190   17.2570   37.9710 C.3   264  HIS264      0.0771
    149  CG        23.0010   16.1370   37.4090 C.ar  264  HIS264      0.0820
    150  ND1       22.7920   14.9560   38.0880 N.ar  264  HIS264     -0.2267
    151  CD2       22.3440   16.0160   36.2310 C.ar  264  HIS264      0.1154
    152  CE1       22.0360   14.1580   37.3550 C.ar  264  HIS264      0.1986
    153  NE2       21.7530   14.7760   36.2230 N.ar  264  HIS264     -0.2212
@<TRIPOS>BOND
     1    75    76    1
     2    78    77    2
     3    76    77    1
     4    76    79    1
     5    62    61    2
     6    61    60    1
     7    79    80    1
     8    67    68    1
     9    69    70    2
    10    69    68    1
    11    81    80    2
    12    68    71    1
    13    80    82   am
    14    59    60    1
    15    60    63    1
    16    63    64    1
    17    71    72    1
    18    72    73    1
    19    64    65    1
    20   118   117    2
    21    73    74    1
    22   111   113   ar
    23   111   110   ar
    24    34    33    2
    25   113   114   ar
    26    66    65    1
    27   117   116    1
    28    37    36    1
    29   109   110    1
    30   109   106    1
    31   110   112   ar
    32   108   107    2
    33    35    36    1
    34    35    32    1
    35   114   112   ar
    36    33    32    1
    37   119   116    1
    38   119   120    1
    39    36    38    1
    40   107   106    1
    41   116   115    1
    42   106   105    1
    43    32    31    1
    44   122   120   am
    45   120   121    2
    46    53    52    2
    47   105    99   am
    48    31    26   am
    49    87    88    1
    50    87    84    1
    51    86    85    2
    52    85    84    1
    53    49    47   ar
    54    49    48   ar
    55    52    51    1
    56    27    26    2
    57    42    41    2
    58   100    99    2
    59    26    25    1
    60    99    98    1
    61    88    90   ar
    62    88    89   ar
    63    93    90   ar
    64    93    95   ar
    65    47    45   ar
    66    48    46   ar
    67    84    83    1
    68    90    92   ar
    69    51    54    1
    70    51    50    1
    71    95    96   ar
    72    89    91   ar
    73    22    21    2
    74    21    20    1
    75    41    50   am
    76    41    40    1
    77    92    91   ar
    78    92    94   ar
    79    24    25    1
    80    45    44   ar
    81    54    55    1
    82    46    44   ar
    83    96    94   ar
    84    25    28    1
    85    23    20    1
    86    98    97    1
    87    98   101    1
    88    29    28    1
    89    44    43    1
    90    20    19    1
    91   101   102    1
    92   102   104    1
    93   102   103    1
    94    40    43    1
    95    40    39    1
    96    28    30    1
    97    55    56    1
    98    56    57   ar
    99    56    58   ar
   100   130   129    1
   101   143   140    1
   102   129   128    1
   103    18    16    1
   104   140   141    1
   105   140   139    1
   106   142   141    2
   107     5     2    1
   108   141   144   am
   109    16    15    1
   110   128   127    1
   111     2     1    1
   112     2     3    1
   113   136   138    1
   114   136   135    1
   115   132   131    1
   116   132   135    1
   117   132   133    1
   118   144   145    1
   119    15    17    1
   120    15    12    1
   121   153   151   ar
   122   153   152   ar
   123   151   149   ar
   124   127   124    1
   125   126   125    2
   126   137   135    1
   127   134   133    2
   128   124   125    1
   129   124   123    1
   130     4     3    2
   131   145   146    1
   132   145   148    1
   133   152   150   ar
   134   149   148    1
   135   149   150   ar
   136    14    13    2
   137   146   147    2
   138    12    13    1
   139    12    11    1
   140    10     7    1
   141     6     7    1
   142     7     8    1
   143     9     8    2
