@<TRIPOS>MOLECULE
tmp/3uzjB00.pdb
 96 88 0 0 0
SMALL
GASTEIGER

@<TRIPOS>ATOM
      1  N        -19.2910    2.8470    4.9370 N.3    48  MET48      -0.1245
      2  CA       -20.5070    3.2260    4.2660 C.3    48  MET48       0.1570
      3  C        -21.3790    1.9730    4.1810 C.2    48  MET48       0.2261
      4  O        -21.1040    1.1290    3.3830 O.2    48  MET48      -0.2867
      5  CB       -20.2940    3.8790    2.8810 C.3    48  MET48       0.0387
      6  CG       -21.6240    4.1920    2.1620 C.3    48  MET48       0.0595
      7  SD       -21.3340    5.0130    0.5980 S.3    48  MET48      -0.1393
      8  CE       -20.6850    3.6860   -0.3460 C.3    48  MET48       0.0692
      9  N        -25.6790    8.1300   -0.1110 N.3   107  LEU107     -0.1245
     10  CA       -25.4320    7.9110   -1.5160 C.3   107  LEU107      0.1561
     11  C        -26.6380    7.1390   -2.1030 C.2   107  LEU107      0.2260
     12  O        -27.0280    6.1570   -1.5560 O.2   107  LEU107     -0.2867
     13  CB       -24.1220    7.1490   -1.7090 C.3   107  LEU107      0.0270
     14  CG       -23.6770    6.8400   -3.1600 C.3   107  LEU107      0.0019
     15  CD1      -22.1700    6.8570   -3.2560 C.3   107  LEU107      0.0001
     16  CD2      -24.2310    5.5900   -3.6750 C.3   107  LEU107      0.0001
     17  N        -27.7590    4.6140   -4.5020 N.3   109  TRP109     -0.1227
     18  CA       -27.0740    3.5890   -5.2820 C.3   109  TRP109      0.1737
     19  C        -28.0230    3.0360   -6.3580 C.2   109  TRP109      0.2595
     20  O        -29.0610    2.4020   -6.0480 O.2   109  TRP109     -0.2718
     21  CB       -26.7450    2.4560   -4.2740 C.3   109  TRP109      0.0564
     22  CG       -25.6080    1.5140   -4.5850 C.ar  109  TRP109      0.0003
     23  CD1      -24.5500    1.2490   -3.7220 C.ar  109  TRP109      0.0946
     24  CD2      -25.4970    0.5540   -5.6790 C.ar  109  TRP109      0.0152
     25  NE1      -23.7990    0.1760   -4.2360 N.ar  109  TRP109     -0.2442
     26  CE2      -24.3230   -0.2090   -5.4410 C.ar  109  TRP109      0.0810
     27  CE3      -26.2580    0.2950   -6.8460 C.ar  109  TRP109      0.0012
     28  CZ2      -23.8800   -1.2090   -6.3200 C.ar  109  TRP109      0.0191
     29  CZ3      -25.7880   -0.7410   -7.7940 C.ar  109  TRP109      0.0001
     30  CH2      -24.6280   -1.4680   -7.4860 C.ar  109  TRP109      0.0015
     31  N        -27.6770    3.2570   -7.6180 N.am  110  ASP110     -0.1974
     32  CA       -28.5430    2.8520   -8.7450 C.3   110  ASP110      0.1709
     33  C        -27.6540    2.8840   -9.9600 C.2   110  ASP110      0.2293
     34  O        -26.4600    3.1870   -9.8710 O.2   110  ASP110     -0.2864
     35  CB       -29.7160    3.8650   -8.9150 C.3   110  ASP110      0.1436
     36  CG       -30.9750    3.2230   -9.5050 C.2   110  ASP110      0.3671
     37  OD1      -30.8820    2.3400  -10.3730 O.co2 110  ASP110     -0.2456
     38  OD2      -32.0570    3.6920   -9.1560 O.co2 110  ASP110     -0.2456
     39  N        -23.4690    7.3690   -7.3330 N.3   130  GLY130     -0.1225
     40  CA       -22.3010    6.7460   -8.0730 C.3   130  GLY130      0.1811
     41  C        -22.5470    6.8270   -9.5680 C.2   130  GLY130      0.2280
     42  O        -23.7220    6.7280  -10.0400 O.2   130  GLY130     -0.2866
     43  N        -21.0370    4.9920  -13.0440 N.3   132  ILE132     -0.1245
     44  CA       -20.2900    3.7500  -13.2580 C.3   132  ILE132      0.1561
     45  C        -19.5720    3.7350  -14.6060 C.2   132  ILE132      0.2260
     46  O        -20.2140    3.9110  -15.6830 O.2   132  ILE132     -0.2867
     47  CB       -21.2080    2.5230  -13.2060 C.3   132  ILE132      0.0252
     48  CG1      -21.8230    2.4820  -11.8000 C.3   132  ILE132      0.0019
     49  CG2      -20.3710    1.1930  -13.4720 C.3   132  ILE132      0.0019
     50  CD1      -23.1390    1.5650  -11.6900 C.3   132  ILE132      0.0001
     51  N        -17.2680    5.0950  -10.1020 N.3   158  VAL158     -0.1245
     52  CA       -17.1320    3.6740   -9.7370 C.3   158  VAL158      0.1561
     53  C        -16.2910    2.9210  -10.8540 C.2   158  VAL158      0.2260
     54  O        -16.6610    2.8940  -12.0540 O.2   158  VAL158     -0.2867
     55  CB       -18.4980    3.0140   -9.6640 C.3   158  VAL158      0.0252
     56  CG1      -18.4040    1.5200   -9.3770 C.3   158  VAL158      0.0019
     57  CG2      -19.4310    3.8150   -8.6860 C.3   158  VAL158      0.0019
     58  N        -14.9720    4.9420   -6.0910 N.3   177  ILE177     -0.1245
     59  CA       -15.2330    3.6360   -5.4560 C.3   177  ILE177      0.1561
     60  C        -14.5180    2.6340   -6.3440 C.2   177  ILE177      0.2260
     61  O        -14.7690    2.5540   -7.5660 O.2   177  ILE177     -0.2867
     62  CB       -16.7370    3.3030   -5.4220 C.3   177  ILE177      0.0252
     63  CG1      -17.3750    4.2540   -4.4060 C.3   177  ILE177      0.0019
     64  CG2      -16.9570    1.8220   -4.9560 C.3   177  ILE177      0.0019
     65  CD1      -18.9520    4.1650   -4.4240 C.3   177  ILE177      0.0001
     66  N        -14.3990   -1.1140   -7.0210 N.3   179  THR179     -0.1218
     67  CA       -15.2160   -2.2530   -6.7050 C.3   179  THR179      0.1862
     68  C        -14.5820   -3.4840   -7.3050 C.2   179  THR179      0.2287
     69  O        -14.1870   -3.4790   -8.4010 O.2   179  THR179     -0.2866
     70  CB       -16.5260   -2.4020   -7.4700 C.3   179  THR179      0.1770
     71  OG1      -16.7020   -1.6270   -8.6410 O.3   179  THR179     -0.2211
     72  CG2      -17.5280   -3.2040   -6.9550 C.3   179  THR179      0.0375
     73  N        -16.4650   -6.0210   -7.7060 N.3   181  HIS181     -0.1241
     74  CA       -17.6050   -6.8000   -8.2920 C.3   181  HIS181      0.1621
     75  C        -17.5050   -6.8730   -9.7870 C.2   181  HIS181      0.2264
     76  O        -17.5280   -5.8640  -10.4740 O.2   181  HIS181     -0.2867
     77  CB       -18.9290   -6.1680   -7.9120 C.3   181  HIS181      0.0745
     78  CG       -19.3450   -6.4430   -6.4920 C.ar  181  HIS181      0.0817
     79  ND1      -18.9090   -5.6840   -5.4100 N.ar  181  HIS181     -0.2268
     80  CD2      -20.1790   -7.3810   -5.9810 C.ar  181  HIS181      0.1154
     81  CE1      -19.4560   -6.1510   -4.2940 C.ar  181  HIS181      0.1986
     82  NE2      -20.2400   -7.1700   -4.6090 N.ar  181  HIS181     -0.2212
     83  N        -15.3130   -1.3520   -2.3500 N.3   204  ALA204     -0.1245
     84  CA       -16.4400   -2.2590   -2.2300 C.3   204  ALA204      0.1562
     85  C        -15.9510   -3.6420   -2.6700 C.2   204  ALA204      0.2260
     86  O        -15.6220   -3.8140   -3.8200 O.2   204  ALA204     -0.2867
     87  CB       -17.6150   -1.7930   -3.1430 C.3   204  ALA204      0.0290
     88  N        -17.1120    0.5210    1.6500 N.3   225  GLU225     -0.1245
     89  CA       -18.5270    0.2380    1.3490 C.3   225  GLU225      0.1567
     90  C        -18.7430   -1.1970    1.7660 C.2   225  GLU225      0.2260
     91  O        -18.0910   -2.1310    1.2740 O.2   225  GLU225     -0.2867
     92  CB       -18.7930    0.4010   -0.1630 C.3   225  GLU225      0.0388
     93  CG       -20.3100    0.0910   -0.4600 C.3   225  GLU225      0.1160
     94  CD       -20.6220    0.3010   -1.9240 C.2   225  GLU225      0.3649
     95  OE1      -19.8900    1.0550   -2.5710 O.co2 225  GLU225     -0.2457
     96  OE2      -21.5400   -0.3460   -2.4240 O.co2 225  GLU225     -0.2457
@<TRIPOS>BOND
     1    46    45    2
     2    45    44    1
     3    49    47    1
     4    44    47    1
     5    44    43    1
     6    47    48    1
     7    54    53    2
     8    48    50    1
     9    53    52    1
    10    76    75    2
    11    37    36   ar
    12    51    52    1
    13    42    41    2
    14    33    34    2
    15    33    32    1
    16    75    74    1
    17    52    55    1
    18    55    56    1
    19    55    57    1
    20    41    40    1
    21    36    38   ar
    22    36    35    1
    23    35    32    1
    24    32    31    1
    25    71    70    1
    26    69    68    2
    27    74    77    1
    28    74    73    1
    29    40    39    1
    30    77    78    1
    31    29    30   ar
    32    29    27   ar
    33    31    19   am
    34    61    60    2
    35    30    28   ar
    36    70    72    1
    37    70    67    1
    38    68    67    1
    39    66    67    1
    40    27    24   ar
    41    78    80   ar
    42    78    79   ar
    43    19    20    2
    44    19    18    1
    45    60    59    1
    46    28    26   ar
    47    58    59    1
    48    80    82   ar
    49    24    26   ar
    50    24    22   ar
    51    59    62    1
    52    26    25   ar
    53    62    64    1
    54    62    63    1
    55    79    81   ar
    56    18    17    1
    57    18    21    1
    58    82    81   ar
    59    22    21    1
    60    22    23   ar
    61    65    63    1
    62    25    23   ar
    63    86    85    2
    64    16    14    1
    65    15    14    1
    66    14    13    1
    67    87    84    1
    68    85    84    1
    69    95    94   ar
    70    96    94   ar
    71    83    84    1
    72    11    12    2
    73    11    10    1
    74    94    93    1
    75    13    10    1
    76    10     9    1
    77    93    92    1
    78     8     7    1
    79    92    89    1
    80     7     6    1
    81    91    90    2
    82    89    88    1
    83    89    90    1
    84     6     5    1
    85     5     2    1
    86     4     3    2
    87     3     2    1
    88     2     1    1
