@<TRIPOS>MOLECULE
tmp/3uzoA01.pdb
 108 103 0 0 0
SMALL
GASTEIGER

@<TRIPOS>ATOM
      1  N         34.2000   46.2490    1.3040 N.3     8  PHE8       -0.1241
      2  CA        33.7910   45.1710    2.1930 C.3     8  PHE8        0.1605
      3  C         32.9420   45.8170    3.2740 C.2     8  PHE8        0.2264
      4  O         33.4060   46.0590    4.3880 O.2     8  PHE8       -0.2867
      5  CB        35.0060   44.4660    2.8150 C.3     8  PHE8        0.0534
      6  CG        34.6920   43.1040    3.3950 C.ar    8  PHE8       -0.0203
      7  CD1       34.7860   41.9580    2.6070 C.ar    8  PHE8       -0.0042
      8  CD2       34.2960   42.9710    4.7220 C.ar    8  PHE8       -0.0042
      9  CE1       34.4900   40.6920    3.1330 C.ar    8  PHE8       -0.0003
     10  CE2       33.9970   41.7150    5.2660 C.ar    8  PHE8       -0.0003
     11  CZ        34.0940   40.5690    4.4670 C.ar    8  PHE8       -0.0000
     12  N         31.0970   31.9150   13.6350 N.3    53  PHE53      -0.1241
     13  CA        30.6910   32.2140   12.2760 C.3    53  PHE53       0.1605
     14  C         31.6810   31.7240   11.2480 C.2    53  PHE53       0.2264
     15  O         32.7870   31.2880   11.5720 O.2    53  PHE53      -0.2867
     16  CB        30.4820   33.7270   12.1160 C.3    53  PHE53       0.0534
     17  CG        31.7650   34.5280   12.1140 C.ar   53  PHE53      -0.0203
     18  CD1       32.3490   34.9260   10.9170 C.ar   53  PHE53      -0.0042
     19  CD2       32.3760   34.8880   13.3070 C.ar   53  PHE53      -0.0042
     20  CE1       33.5290   35.6790   10.9090 C.ar   53  PHE53      -0.0003
     21  CE2       33.5610   35.6420   13.3110 C.ar   53  PHE53      -0.0003
     22  CZ        34.1330   36.0350   12.1180 C.ar   53  PHE53      -0.0000
     23  N         32.9020   32.3010    6.8260 N.3    55  GLY55      -0.1225
     24  CA        32.9860   33.2720    5.7580 C.3    55  GLY55       0.1811
     25  C         33.4520   32.5650    4.5060 C.2    55  GLY55       0.2280
     26  O         34.4990   31.9270    4.5150 O.2    55  GLY55      -0.2866
     27  N         29.8220   37.4540   -0.8750 N.3   120  TYR120     -0.1241
     28  CA        30.2910   36.9520    0.4090 C.3   120  TYR120      0.1605
     29  C         29.1570   36.3650    1.2260 C.2   120  TYR120      0.2264
     30  O         28.1110   36.9900    1.3750 O.2   120  TYR120     -0.2867
     31  CB        30.9290   38.0780    1.2220 C.3   120  TYR120      0.0534
     32  CG        31.5650   37.6190    2.5190 C.ar  120  TYR120     -0.0201
     33  CD1       32.8540   37.0820    2.5360 C.ar  120  TYR120     -0.0009
     34  CD2       30.8920   37.7490    3.7330 C.ar  120  TYR120     -0.0009
     35  CE1       33.4620   36.6930    3.7340 C.ar  120  TYR120      0.0417
     36  CE2       31.4870   37.3630    4.9380 C.ar  120  TYR120      0.0417
     37  CZ        32.7720   36.8410    4.9300 C.ar  120  TYR120      0.1957
     38  OH        33.3790   36.5090    6.1180 O.3   120  TYR120     -0.2866
     39  N         27.8810   34.7980    4.9340 N.3   122  ARG122     -0.1245
     40  CA        28.1580   34.8480    6.3620 C.3   122  ARG122      0.1563
     41  C         27.2540   33.9370    7.1870 C.2   122  ARG122      0.2260
     42  O         26.1930   34.3580    7.6690 O.2   122  ARG122     -0.2867
     43  CB        28.0500   36.2960    6.8760 C.3   122  ARG122      0.0307
     44  CG        28.0770   36.4520    8.3930 C.3   122  ARG122      0.0489
     45  CD        29.2960   35.7620    9.0140 C.3   122  ARG122      0.2205
     46  NE        30.5550   36.3080    8.5210 N.pl3 122  ARG122     -0.0865
     47  CZ        31.1030   37.4380    8.9520 C.cat 122  ARG122      0.5346
     48  NH1       30.5040   38.1520    9.8940 N.pl3 122  ARG122      0.1354
     49  NH2       32.2600   37.8540    8.4450 N.pl3 122  ARG122      0.1354
     50  N         39.1580   43.5970    0.5280 N.3   152  TYR152     -0.1241
     51  CA        39.1350   43.7150    1.9850 C.3   152  TYR152      0.1605
     52  C         40.2370   44.6820    2.3920 C.2   152  TYR152      0.2264
     53  O         40.0020   45.6350    3.1390 O.2   152  TYR152     -0.2867
     54  CB        39.4010   42.3560    2.6330 C.3   152  TYR152      0.0534
     55  CG        39.1540   42.2990    4.1250 C.ar  152  TYR152     -0.0201
     56  CD1       37.8660   42.4280    4.6390 C.ar  152  TYR152     -0.0009
     57  CD2       40.1990   42.0610    5.0190 C.ar  152  TYR152     -0.0009
     58  CE1       37.6170   42.3130    6.0020 C.ar  152  TYR152      0.0417
     59  CE2       39.9610   41.9450    6.3930 C.ar  152  TYR152      0.0417
     60  CZ        38.6670   42.0700    6.8740 C.ar  152  TYR152      0.1957
     61  OH        38.4160   41.9350    8.2220 O.3   152  TYR152     -0.2866
     62  N         36.5670   29.8650   15.0850 N.3   179  LYS179     -0.1245
     63  CA        36.1360   31.1430   14.5340 C.3   179  LYS179      0.1561
     64  C         34.9850   31.6810   15.3850 C.2   179  LYS179      0.2260
     65  O         33.8150   31.6110   14.9900 O.2   179  LYS179     -0.2867
     66  CB        35.7090   30.9450   13.0820 C.3   179  LYS179      0.0271
     67  CG        35.5630   32.2180   12.2690 C.3   179  LYS179      0.0035
     68  CD        35.8290   31.9140   10.7990 C.3   179  LYS179      0.0206
     69  CE        35.5070   33.0890    9.8930 C.3   179  LYS179      0.1093
     70  NZ        36.3220   34.2960   10.2060 N.3   179  LYS179     -0.1314
     71  N         37.7960   38.0850   18.0140 N.3   184  TYR184     -0.1241
     72  CA        37.7650   39.3580   17.3140 C.3   184  TYR184      0.1605
     73  C         37.5590   40.5310   18.2520 C.2   184  TYR184      0.2264
     74  O         38.0990   41.6150   18.0170 O.2   184  TYR184     -0.2867
     75  CB        36.6910   39.3240   16.2290 C.3   184  TYR184      0.0534
     76  CG        36.9390   38.1960   15.2570 C.ar  184  TYR184     -0.0201
     77  CD1       36.5080   36.9050   15.5420 C.ar  184  TYR184     -0.0009
     78  CD2       37.6790   38.4010   14.0950 C.ar  184  TYR184     -0.0009
     79  CE1       36.8070   35.8450   14.6960 C.ar  184  TYR184      0.0417
     80  CE2       37.9890   37.3460   13.2450 C.ar  184  TYR184      0.0417
     81  CZ        37.5470   36.0690   13.5580 C.ar  184  TYR184      0.1957
     82  OH        37.8580   35.0080   12.7410 O.3   184  TYR184     -0.2866
     83  N         42.7380   38.5740   10.9720 N.3   218  ALA218     -0.1245
     84  CA        41.7490   38.6260    9.9060 C.3   218  ALA218      0.1562
     85  C         42.3270   37.8170    8.7530 C.2   218  ALA218      0.2260
     86  O         41.7290   37.7270    7.6790 O.2   218  ALA218     -0.2867
     87  CB        41.5070   40.0650    9.4730 C.3   218  ALA218      0.0290
     88  N         43.3660   34.8460    3.2830 N.3   280  GLY280     -0.1210
     89  CA        42.0620   34.6000    3.8810 C.3   280  GLY280      0.1956
     90  C         40.9680   34.7620    2.8420 C.2   280  GLY280      0.2613
     91  O         41.2560   35.0920    1.6930 O.2   280  GLY280     -0.2717
     92  N         39.7180   34.5310    3.2350 N.am  281  THR281     -0.1938
     93  CA        38.6060   34.6700    2.3000 C.3   281  THR281      0.2028
     94  C         38.4690   36.1120    1.8400 C.2   281  THR281      0.2642
     95  O         38.4370   36.3960    0.6360 O.2   281  THR281     -0.2714
     96  CB        37.2800   34.2300    2.9440 C.3   281  THR281      0.1808
     97  OG1       37.3440   32.8270    3.2360 O.3   281  THR281     -0.2208
     98  CG2       36.0970   34.4970    1.9940 C.3   281  THR281      0.0379
     99  N         38.3900   37.0310    2.7980 N.am  282  ALA282     -0.1963
    100  CA        38.2400   38.4390    2.4610 C.3   282  ALA282      0.1728
    101  C         39.5310   38.9720    1.8860 C.2   282  ALA282      0.2616
    102  O         39.5300   39.6740    0.8750 O.2   282  ALA282     -0.2715
    103  CB        37.8630   39.2340    3.6920 C.3   282  ALA282      0.0334
    104  N         40.6300   38.6090    2.5380 N.am  283  ALA283     -0.1977
    105  CA        41.9660   39.0440    2.1590 C.3   283  ALA283      0.1597
    106  C         42.4990   38.5420    0.8140 C.2   283  ALA283      0.2287
    107  O         43.2370   39.2680    0.1480 O.2   283  ALA283     -0.2864
    108  CB        42.9450   38.6820    3.2790 C.3   283  ALA283      0.0319
@<TRIPOS>BOND
     1    27    28    1
     2   107   106    2
     3    28    31    1
     4    28    29    1
     5    50    51    1
     6    95    94    2
     7   106   105    1
     8   102   101    2
     9    31    32    1
    10    29    30    2
    11     1     2    1
    12    91    90    2
    13    94    93    1
    14    94    99   am
    15   101   100    1
    16   101   104   am
    17    51    52    1
    18    51    54    1
    19    98    96    1
    20   105   104    1
    21   105   108    1
    22     2     5    1
    23     2     3    1
    24    93    96    1
    25    93    92    1
    26    52    53    2
    27   100    99    1
    28   100   103    1
    29    32    33   ar
    30    32    34   ar
    31    33    35   ar
    32     7     9   ar
    33     7     6   ar
    34    54    55    1
    35     5     6    1
    36    90    92   am
    37    90    89    1
    38    96    97    1
    39     9    11   ar
    40     3     4    2
    41    88    89    1
    42     6     8   ar
    43    34    36   ar
    44    35    37   ar
    45    55    56   ar
    46    55    57   ar
    47    11    10   ar
    48    25    26    2
    49    25    24    1
    50    56    58   ar
    51     8    10   ar
    52    37    36   ar
    53    37    38    1
    54    39    40    1
    55    57    59   ar
    56    24    23    1
    57    58    60   ar
    58    40    43    1
    59    40    41    1
    60    59    60   ar
    61    60    61    1
    62    43    44    1
    63    41    42    2
    64    86    85    2
    65    44    45    1
    66    49    47    1
    67    46    47    2
    68    46    45    1
    69    85    84    1
    70    47    48    1
    71    87    84    1
    72    69    70    1
    73    69    68    1
    74    84    83    1
    75    68    67    1
    76    20    18   ar
    77    20    22   ar
    78    18    17   ar
    79    14    15    2
    80    14    13    1
    81    17    16    1
    82    17    19   ar
    83    16    13    1
    84    22    21   ar
    85    67    66    1
    86    13    12    1
    87    82    81    1
    88    66    63    1
    89    80    81   ar
    90    80    78   ar
    91    19    21   ar
    92    81    79   ar
    93    78    76   ar
    94    63    62    1
    95    63    64    1
    96    79    77   ar
    97    65    64    2
    98    76    77   ar
    99    76    75    1
   100    75    72    1
   101    72    71    1
   102    72    73    1
   103    74    73    2
