@<TRIPOS>MOLECULE
tmp/3uzzB01.pdb
 156 157 0 0 0
SMALL
GASTEIGER

@<TRIPOS>ATOM
      1  N          6.5460   24.0640  -25.3510 N.3    25  TYR25      -0.1241
      2  CA         7.1090   23.1630  -26.3500 C.3    25  TYR25       0.1605
      3  C          8.5660   23.5170  -26.6010 C.2    25  TYR25       0.2264
      4  O          8.9020   24.6910  -26.7870 O.2    25  TYR25      -0.2867
      5  CB         6.3540   23.1550  -27.6790 C.3    25  TYR25       0.0534
      6  CG         7.1500   22.3210  -28.6600 C.ar   25  TYR25      -0.0201
      7  CD1        7.1460   20.9320  -28.5790 C.ar   25  TYR25      -0.0009
      8  CD2        7.9890   22.9220  -29.5900 C.ar   25  TYR25      -0.0009
      9  CE1        7.9270   20.1610  -29.4430 C.ar   25  TYR25       0.0417
     10  CE2        8.7620   22.1670  -30.4540 C.ar   25  TYR25       0.0417
     11  CZ         8.7280   20.7940  -30.3770 C.ar   25  TYR25       0.1957
     12  OH         9.5010   20.0570  -31.2380 O.3    25  TYR25      -0.2866
     13  N          2.9440   15.0470  -24.5530 N.3    56  ILE56      -0.1231
     14  CA         3.7720   14.7380  -25.7160 C.3    56  ILE56       0.1692
     15  C          4.9550   15.6910  -25.9350 C.2    56  ILE56       0.2592
     16  O          5.7830   15.4440  -26.8130 O.2    56  ILE56      -0.2718
     17  CB         2.9500   14.6380  -27.0280 C.3    56  ILE56       0.0266
     18  CG1        2.3710   16.0000  -27.4210 C.3    56  ILE56       0.0019
     19  CG2        1.8530   13.5960  -26.9030 C.3    56  ILE56       0.0020
     20  CD1        1.8910   16.0450  -28.8590 C.3    56  ILE56       0.0001
     21  N          5.0490   16.7550  -25.1410 N.am   57  TYR57      -0.1976
     22  CA         6.1980   17.6610  -25.2310 C.3    57  TYR57       0.1639
     23  C          7.3920   17.0670  -24.5130 C.2    57  TYR57       0.2290
     24  O          8.5040   17.5880  -24.6110 O.2    57  TYR57      -0.2864
     25  CB         5.8910   19.0440  -24.6460 C.3    57  TYR57       0.0560
     26  CG         4.8450   19.8220  -25.4050 C.ar   57  TYR57      -0.0198
     27  CD1        4.3220   19.3440  -26.6040 C.ar   57  TYR57      -0.0009
     28  CD2        4.3700   21.0370  -24.9170 C.ar   57  TYR57      -0.0009
     29  CE1        3.3480   20.0710  -27.2970 C.ar   57  TYR57       0.0417
     30  CE2        3.4090   21.7650  -25.6000 C.ar   57  TYR57       0.0417
     31  CZ         2.9020   21.2810  -26.7850 C.ar   57  TYR57       0.1957
     32  OH         1.9340   22.0060  -27.4430 O.3    57  TYR57      -0.2866
     33  N         -3.7130   13.9870  -26.8450 N.3    88  TRP88      -0.1241
     34  CA        -3.1480   13.7850  -28.1770 C.3    88  TRP88       0.1605
     35  C         -3.9860   12.8630  -29.0810 C.2    88  TRP88       0.2264
     36  O         -4.8620   12.1210  -28.6160 O.2    88  TRP88      -0.2867
     37  CB        -1.6870   13.3010  -28.1020 C.3    88  TRP88       0.0550
     38  CG        -1.0630   13.1530  -29.4590 C.ar   88  TRP88       0.0003
     39  CD1       -0.5630   12.0070  -30.0220 C.ar   88  TRP88       0.0946
     40  CD2       -0.9200   14.1780  -30.4450 C.ar   88  TRP88       0.0152
     41  NE1       -0.1030   12.2650  -31.2920 N.ar   88  TRP88      -0.2442
     42  CE2       -0.3150   13.5900  -31.5790 C.ar   88  TRP88       0.0810
     43  CE3       -1.2320   15.5420  -30.4760 C.ar   88  TRP88       0.0012
     44  CZ2       -0.0110   14.3200  -32.7260 C.ar   88  TRP88       0.0191
     45  CZ3       -0.9330   16.2690  -31.6200 C.ar   88  TRP88       0.0001
     46  CH2       -0.3300   15.6550  -32.7280 C.ar   88  TRP88       0.0015
     47  N         -6.1770   18.0650  -28.6000 N.3   119  HIS119     -0.1226
     48  CA        -5.0420   18.7260  -29.2380 C.3   119  HIS119      0.1752
     49  C         -5.2320   18.9690  -30.7470 C.2   119  HIS119      0.2595
     50  O         -4.8780   20.0400  -31.2680 O.2   119  HIS119     -0.2718
     51  CB        -3.7730   17.9050  -28.9790 C.3   119  HIS119      0.0759
     52  CG        -2.5020   18.6820  -29.1090 C.ar  119  HIS119      0.0818
     53  ND1       -1.3820   18.4060  -28.3510 N.ar  119  HIS119     -0.2268
     54  CD2       -2.1610   19.7060  -29.9260 C.ar  119  HIS119      0.1154
     55  CE1       -0.4090   19.2340  -28.6920 C.ar  119  HIS119      0.1986
     56  NE2       -0.8590   20.0370  -29.6400 N.ar  119  HIS119     -0.2212
     57  N         -5.7720   17.9670  -31.4390 N.am  120  VAL120     -0.1980
     58  CA        -6.1570   18.0820  -32.8490 C.3   120  VAL120      0.1595
     59  C         -7.4690   17.3260  -33.0660 C.2   120  VAL120      0.2287
     60  O         -7.8150   16.4350  -32.2830 O.2   120  VAL120     -0.2864
     61  CB        -5.0920   17.5000  -33.8050 C.3   120  VAL120      0.0276
     62  CG1       -3.8340   18.3900  -33.8290 C.3   120  VAL120      0.0022
     63  CG2       -4.7440   16.0750  -33.4090 C.3   120  VAL120      0.0022
     64  N          3.5600    9.5580  -33.0220 N.3   131  TYR131     -0.1241
     65  CA         3.4910    9.7960  -34.4620 C.3   131  TYR131      0.1605
     66  C          3.5460    8.4810  -35.2300 C.2   131  TYR131      0.2264
     67  O          4.5290    8.2040  -35.9120 O.2   131  TYR131     -0.2867
     68  CB         4.6490   10.6950  -34.9000 C.3   131  TYR131      0.0534
     69  CG         4.7250   11.9970  -34.1300 C.ar  131  TYR131     -0.0201
     70  CD1        5.9040   12.4040  -33.5260 C.ar  131  TYR131     -0.0009
     71  CD2        3.6090   12.8060  -33.9940 C.ar  131  TYR131     -0.0009
     72  CE1        5.9700   13.5840  -32.8190 C.ar  131  TYR131      0.0417
     73  CE2        3.6640   13.9910  -33.2830 C.ar  131  TYR131      0.0417
     74  CZ         4.8450   14.3750  -32.7000 C.ar  131  TYR131      0.1957
     75  OH         4.9030   15.5550  -31.9940 O.3   131  TYR131     -0.2866
     76  N          1.0810    7.2270  -42.5510 N.3   139  TRP139     -0.1241
     77  CA         0.5160    7.5870  -41.2480 C.3   139  TRP139      0.1605
     78  C         -0.6320    6.6710  -40.8380 C.2   139  TRP139      0.2264
     79  O         -1.4860    6.3280  -41.6440 O.2   139  TRP139     -0.2867
     80  CB         0.0690    9.0600  -41.2270 C.3   139  TRP139      0.0550
     81  CG         1.2340   10.0050  -41.2570 C.ar  139  TRP139      0.0003
     82  CD1        1.7920   10.5850  -42.3580 C.ar  139  TRP139      0.0946
     83  CD2        2.0060   10.4410  -40.1380 C.ar  139  TRP139      0.0152
     84  NE1        2.8570   11.3650  -41.9890 N.ar  139  TRP139     -0.2442
     85  CE2        3.0070   11.2980  -40.6310 C.ar  139  TRP139      0.0810
     86  CE3        1.9370   10.2040  -38.7620 C.ar  139  TRP139      0.0012
     87  CZ2        3.9360   11.9150  -39.7980 C.ar  139  TRP139      0.0191
     88  CZ3        2.8490   10.8170  -37.9380 C.ar  139  TRP139      0.0001
     89  CH2        3.8400   11.6660  -38.4570 C.ar  139  TRP139      0.0015
     90  N         -6.9320   23.5380  -32.7450 N.3   169  ASN169     -0.1240
     91  CA        -6.8690   23.2320  -34.1810 C.3   169  ASN169      0.1653
     92  C         -8.2040   22.7880  -34.7650 C.2   169  ASN169      0.2266
     93  O         -8.2490   22.0520  -35.7650 O.2   169  ASN169     -0.2867
     94  CB        -5.7920   22.1730  -34.4410 C.3   169  ASN169      0.1155
     95  CG        -4.4010   22.6850  -34.1310 C.2   169  ASN169      0.2627
     96  OD1       -3.9370   23.6340  -34.7560 O.2   169  ASN169     -0.2716
     97  ND2       -3.7390   22.0770  -33.1500 N.am  169  ASN169     -0.0877
     98  N         11.8100   21.9160  -40.1270 N.3   228  ILE228     -0.1231
     99  CA        11.3010   20.5510  -40.0990 C.3   228  ILE228      0.1692
    100  C          9.7760   20.5110  -40.0710 C.2   228  ILE228      0.2592
    101  O          9.1670   19.6180  -40.6510 O.2   228  ILE228     -0.2718
    102  CB        11.8660   19.7630  -38.8950 C.3   228  ILE228      0.0266
    103  CG1       13.3570   19.4780  -39.1000 C.3   228  ILE228      0.0019
    104  CG2       11.0940   18.4680  -38.6890 C.3   228  ILE228      0.0020
    105  CD1       13.9780   18.6330  -38.0110 C.3   228  ILE228      0.0001
    106  N          9.1550   21.4790  -39.4060 N.am  229  TRP229     -0.1976
    107  CA         7.6960   21.4910  -39.3050 C.3   229  TRP229      0.1640
    108  C          7.0490   22.8570  -39.5100 C.2   229  TRP229      0.2290
    109  O          5.8200   22.9810  -39.4630 O.2   229  TRP229     -0.2864
    110  CB         7.2410   20.9060  -37.9640 C.3   229  TRP229      0.0576
    111  CG         7.7090   21.6680  -36.7580 C.ar  229  TRP229      0.0006
    112  CD1        8.9550   21.6420  -36.2080 C.ar  229  TRP229      0.0946
    113  CD2        6.9280   22.5550  -35.9450 C.ar  229  TRP229      0.0152
    114  NE1        9.0030   22.4620  -35.1050 N.ar  229  TRP229     -0.2442
    115  CE2        7.7700   23.0320  -34.9210 C.ar  229  TRP229      0.0810
    116  CE3        5.5980   22.9890  -35.9810 C.ar  229  TRP229      0.0012
    117  CZ2        7.3290   23.9230  -33.9460 C.ar  229  TRP229      0.0191
    118  CZ3        5.1600   23.8760  -35.0080 C.ar  229  TRP229      0.0001
    119  CH2        6.0210   24.3300  -34.0060 C.ar  229  TRP229      0.0015
    120  N          2.1610   27.1060  -39.2590 N.3   308  VAL308     -0.1245
    121  CA         1.9470   25.7240  -38.8400 C.3   308  VAL308      0.1561
    122  C          0.8420   25.0730  -39.6670 C.2   308  VAL308      0.2260
    123  O         -0.3390   25.1500  -39.3200 O.2   308  VAL308     -0.2867
    124  CB         1.6400   25.6340  -37.3260 C.3   308  VAL308      0.0252
    125  CG1        1.4400   24.1730  -36.8960 C.3   308  VAL308      0.0019
    126  CG2        2.7580   26.2790  -36.5190 C.3   308  VAL308      0.0019
    127  N          0.8990   21.6850  -40.8990 N.3   310  LEU310     -0.1245
    128  CA         0.7160   20.2630  -40.6290 C.3   310  LEU310      0.1561
    129  C          0.4410   19.4920  -41.9200 C.2   310  LEU310      0.2260
    130  O         -0.4630   18.6580  -41.9670 O.2   310  LEU310     -0.2867
    131  CB        -0.4490   20.0700  -39.6610 C.3   310  LEU310      0.0270
    132  CG        -0.3560   20.7770  -38.3070 C.3   310  LEU310      0.0019
    133  CD1       -1.6020   20.4920  -37.4900 C.3   310  LEU310      0.0001
    134  CD2        0.8910   20.3520  -37.5500 C.3   310  LEU310      0.0001
    135  N          1.7080   17.1030  -43.5100 N.3   312  MET312     -0.1230
    136  CA         1.8610   15.6530  -43.5160 C.3   312  MET312      0.1702
    137  C          0.5380   14.9560  -43.2150 C.2   312  MET312      0.2592
    138  O          0.3620   13.7830  -43.5290 O.2   312  MET312     -0.2718
    139  CB         2.9480   15.2090  -42.5340 C.3   312  MET312      0.0401
    140  CG         2.7180   15.6170  -41.0910 C.3   312  MET312      0.0596
    141  SD         3.2830   17.2900  -40.7860 S.3   312  MET312     -0.1393
    142  CE         3.0330   17.4280  -39.0240 C.3   312  MET312      0.0692
    143  N         -0.4010   15.6860  -42.6260 N.am  313  TRP313     -0.1976
    144  CA        -1.6890   15.0990  -42.2830 C.3   313  TRP313      0.1640
    145  C         -2.8240   15.6220  -43.1380 C.2   313  TRP313      0.2290
    146  O         -3.9880   15.4330  -42.8010 O.2   313  TRP313     -0.2864
    147  CB        -1.9930   15.3200  -40.7970 C.3   313  TRP313      0.0576
    148  CG        -0.9340   14.7520  -39.9130 C.ar  313  TRP313      0.0006
    149  CD1       -0.2350   13.6010  -40.1170 C.ar  313  TRP313      0.0946
    150  CD2       -0.4660   15.2920  -38.6700 C.ar  313  TRP313      0.0152
    151  NE1        0.6510   13.3990  -39.0920 N.ar  313  TRP313     -0.2442
    152  CE2        0.5240   14.4210  -38.1860 C.ar  313  TRP313      0.0810
    153  CE3       -0.7930   16.4270  -37.9210 C.ar  313  TRP313      0.0012
    154  CZ2        1.2100   14.6550  -36.9970 C.ar  313  TRP313      0.0191
    155  CZ3       -0.1110   16.6560  -36.7340 C.ar  313  TRP313      0.0001
    156  CH2        0.8760   15.7730  -36.2850 C.ar  313  TRP313      0.0015
@<TRIPOS>BOND
     1   138   137    2
     2   136   135    1
     3   136   137    1
     4   136   139    1
     5   137   143   am
     6   145   146    2
     7   145   144    1
     8   143   144    1
     9    76    77    1
    10   139   140    1
    11    82    84   ar
    12    82    81   ar
    13   144   147    1
    14    84    85   ar
    15   130   129    2
    16   129   128    1
    17    79    78    2
    18    81    80    1
    19    81    83   ar
    20    77    80    1
    21    77    78    1
    22   140   141    1
    23   127   128    1
    24   147   148    1
    25   141   142    1
    26   101   100    2
    27    85    83   ar
    28    85    87   ar
    29   128   131    1
    30    83    86   ar
    31    98    99    1
    32   149   148   ar
    33   149   151   ar
    34    99   100    1
    35    99   102    1
    36   100   106   am
    37   148   150   ar
    38    87    89   ar
    39   122   123    2
    40   122   121    1
    41   131   132    1
    42   108   109    2
    43   108   107    1
    44   106   107    1
    45   107   110    1
    46   120   121    1
    47   103   102    1
    48   103   105    1
    49   151   152   ar
    50   102   104    1
    51   121   124    1
    52    86    88   ar
    53   150   152   ar
    54   150   153   ar
    55    89    88   ar
    56   132   134    1
    57   132   133    1
    58   152   154   ar
    59   110   111    1
    60   153   155   ar
    61   124   125    1
    62   124   126    1
    63   154   156   ar
    64   111   112   ar
    65   111   113   ar
    66   155   156   ar
    67   112   114   ar
    68   116   113   ar
    69   116   118   ar
    70   113   115   ar
    71    67    66    2
    72    93    92    2
    73    66    65    1
    74   114   115   ar
    75   118   119   ar
    76   115   117   ar
    77    68    65    1
    78    68    69    1
    79    92    91    1
    80    96    95    2
    81    65    64    1
    82    94    91    1
    83    94    95    1
    84    91    90    1
    85    95    97   am
    86    69    71   ar
    87    69    70   ar
    88   119   117   ar
    89    71    73   ar
    90    62    61    1
    91    61    63    1
    92    61    58    1
    93    70    72   ar
    94    73    74   ar
    95    59    58    1
    96    59    60    2
    97    58    57    1
    98    72    74   ar
    99    46    44   ar
   100    46    45   ar
   101    44    42   ar
   102    74    75    1
   103    45    43   ar
   104    42    41   ar
   105    42    40   ar
   106    57    49   am
   107    41    39   ar
   108    50    49    2
   109    12    11    1
   110    49    48    1
   111    43    40   ar
   112    10    11   ar
   113    10     8   ar
   114    40    38   ar
   115    11     9   ar
   116    39    38   ar
   117    54    56   ar
   118    54    52   ar
   119    56    55   ar
   120     8     6   ar
   121    38    37    1
   122     9     7   ar
   123    48    51    1
   124    48    47    1
   125    52    51    1
   126    52    53   ar
   127    35    36    2
   128    35    34    1
   129    20    18    1
   130    55    53   ar
   131     6     7   ar
   132     6     5    1
   133    34    37    1
   134    34    33    1
   135     5     2    1
   136    32    31    1
   137    18    17    1
   138    29    31   ar
   139    29    27   ar
   140    17    19    1
   141    17    14    1
   142    16    15    2
   143     4     3    2
   144    31    30   ar
   145    27    26   ar
   146     3     2    1
   147     2     1    1
   148    15    14    1
   149    15    21   am
   150    14    13    1
   151    30    28   ar
   152    26    28   ar
   153    26    25    1
   154    22    21    1
   155    22    25    1
   156    22    23    1
   157    24    23    2
