@<TRIPOS>MOLECULE
tmp/3v00A00.pdb
 186 178 0 0 0
SMALL
GASTEIGER

@<TRIPOS>ATOM
      1  N        -29.7430   46.0020   18.3820 N.3    41  GLY41      -0.1210
      2  CA       -29.1770   45.3970   19.5760 C.3    41  GLY41       0.1956
      3  C        -27.8740   44.7130   19.2310 C.2    41  GLY41       0.2612
      4  O        -27.7210   44.1790   18.1340 O.2    41  GLY41      -0.2717
      5  N        -26.9330   44.7400   20.1690 N.am   42  GLU42      -0.1965
      6  CA       -25.6270   44.1120   19.9810 C.3    42  GLU42       0.1733
      7  C        -24.7630   44.8450   18.9620 C.2    42  GLU42       0.2617
      8  O        -23.9110   44.2390   18.3170 O.2    42  GLU42      -0.2715
      9  CB       -25.8180   42.6610   19.5440 C.3    42  GLU42       0.0429
     10  CG       -26.4030   41.7680   20.6120 C.3    42  GLU42       0.1163
     11  CD       -26.7130   40.3840   20.0920 C.2    42  GLU42       0.3649
     12  OE1      -26.6910   39.4380   20.9070 O.co2  42  GLU42      -0.2457
     13  OE2      -26.9890   40.2420   18.8690 O.co2  42  GLU42      -0.2457
     14  N        -24.9850   46.1450   18.8180 N.am   43  SER43      -0.1936
     15  CA       -24.2230   46.9370   17.8790 C.3    43  SER43       0.2055
     16  C        -23.1540   47.7500   18.5960 C.2    43  SER43       0.2644
     17  O        -22.2900   48.3460   17.9530 O.2    43  SER43      -0.2714
     18  CB       -25.1690   47.8450   17.1160 C.3    43  SER43       0.2130
     19  OG       -25.7810   48.7750   17.9860 O.3    43  SER43      -0.2179
     20  N        -23.2110   47.7810   19.9230 N.am   44  GLY44      -0.1939
     21  CA       -22.1530   48.4030   20.7030 C.3    44  GLY44       0.2014
     22  C        -22.5590   49.6550   21.4530 C.2    44  GLY44       0.2639
     23  O        -21.7040   50.3930   21.9360 O.2    44  GLY44      -0.2714
     24  N        -23.8600   49.8950   21.5650 N.am   45  LYS45      -0.1963
     25  CA       -24.3500   51.0760   22.2690 C.3    45  LYS45       0.1728
     26  C        -23.8940   51.0940   23.7230 C.2    45  LYS45       0.2617
     27  O        -23.3520   52.0970   24.1910 O.2    45  LYS45      -0.2715
     28  CB       -25.8800   51.1760   22.2270 C.3    45  LYS45       0.0311
     29  CG       -26.4420   51.3820   20.8130 C.3    45  LYS45       0.0038
     30  CD       -27.9750   51.5690   20.8070 C.3    45  LYS45       0.0206
     31  CE       -28.7050   50.3460   21.3080 C.3    45  LYS45       0.1093
     32  NZ       -28.3430   49.1290   20.5310 N.3    45  LYS45      -0.1314
     33  N        -24.1010   49.9910   24.4370 N.am   46  SER46      -0.1936
     34  CA       -23.6920   49.9270   25.8370 C.3    46  SER46       0.2055
     35  C        -22.2000   50.1640   25.9630 C.2    46  SER46       0.2643
     36  O        -21.7530   50.9710   26.7760 O.2    46  SER46      -0.2714
     37  CB       -24.0780   48.5720   26.4300 C.3    46  SER46       0.2130
     38  OG       -25.4850   48.3650   26.3790 O.3    46  SER46      -0.2179
     39  N        -21.4350   49.4550   25.1460 N.am   47  THR47      -0.1950
     40  CA       -19.9900   49.5880   25.1350 C.3    47  THR47       0.1897
     41  C        -19.5310   51.0460   24.9970 C.2    47  THR47       0.2313
     42  O        -18.5850   51.4640   25.6640 O.2    47  THR47      -0.2863
     43  CB       -19.4290   48.7140   24.0360 C.3    47  THR47       0.1794
     44  OG1      -20.0780   47.4330   24.1030 O.3    47  THR47      -0.2208
     45  CG2      -17.9330   48.5450   24.2100 C.3    47  THR47       0.0378
     46  N        -22.2390   35.2810   30.8100 N.3    75  ASN75      -0.1240
     47  CA       -21.8160   35.5090   29.4330 C.3    75  ASN75       0.1653
     48  C        -20.9930   34.3490   28.8860 C.2    75  ASN75       0.2266
     49  O        -21.2010   33.9020   27.7580 O.2    75  ASN75      -0.2867
     50  CB       -20.9900   36.8040   29.2990 C.3    75  ASN75       0.1155
     51  CG       -21.8510   38.0420   29.1930 C.2    75  ASN75       0.2627
     52  OD1      -21.3990   39.0900   28.7360 O.2    75  ASN75      -0.2716
     53  ND2      -23.0950   37.9320   29.6230 N.am   75  ASN75      -0.0877
     54  N        -22.4510   35.3230   21.0550 N.3   148  ASN148     -0.1225
     55  CA       -21.8070   36.5110   21.5900 C.3   148  ASN148      0.1785
     56  C        -20.4850   36.7560   20.8800 C.2   148  ASN148      0.2597
     57  O        -19.6730   35.8400   20.7290 O.2   148  ASN148     -0.2718
     58  CB       -21.4550   36.3610   23.0660 C.3   148  ASN148      0.1169
     59  CG       -22.5360   35.6960   23.8620 C.2   148  ASN148      0.2627
     60  OD1      -23.1080   36.3010   24.7720 O.2   148  ASN148     -0.2716
     61  ND2      -22.8210   34.4330   23.5420 N.am  148  ASN148     -0.0877
     62  N        -20.2570   37.9930   20.4580 N.am  149  ASP149     -0.1960
     63  CA       -18.9860   38.3440   19.8500 C.3   149  ASP149      0.1840
     64  C        -17.8610   38.2680   20.8640 C.2   149  ASP149      0.2622
     65  O        -16.6970   38.2410   20.4910 O.2   149  ASP149     -0.2715
     66  CB       -19.0450   39.7520   19.2730 C.3   149  ASP149      0.1450
     67  CG       -19.7930   39.8150   17.9620 C.2   149  ASP149      0.3671
     68  OD1      -19.4490   39.0490   17.0280 O.co2 149  ASP149     -0.2456
     69  OD2      -20.7190   40.6450   17.8640 O.co2 149  ASP149     -0.2456
     70  N        -18.2090   38.2340   22.1460 N.am  150  SER150     -0.1950
     71  CA       -17.2040   38.1570   23.2020 C.3   150  SER150      0.1924
     72  C        -16.9300   36.7330   23.6640 C.2   150  SER150      0.2314
     73  O        -16.0860   36.5130   24.5240 O.2   150  SER150     -0.2863
     74  CB       -17.5840   39.0520   24.3720 C.3   150  SER150      0.2116
     75  OG       -17.1130   40.3610   24.1140 O.3   150  SER150     -0.2180
     76  N        -15.6650   45.8450   29.5510 N.3   174  LEU174     -0.1231
     77  CA       -16.0870   46.3430   28.2540 C.3   174  LEU174      0.1693
     78  C        -16.7340   45.2630   27.3950 C.2   174  LEU174      0.2592
     79  O        -17.6430   45.5480   26.6120 O.2   174  LEU174     -0.2718
     80  CB       -14.8870   46.9650   27.5430 C.3   174  LEU174      0.0284
     81  CG       -14.6750   48.4480   27.8790 C.3   174  LEU174      0.0019
     82  CD1      -13.3980   48.9420   27.2650 C.3   174  LEU174      0.0001
     83  CD2      -15.8520   49.2710   27.3560 C.3   174  LEU174      0.0001
     84  N        -16.2680   44.0270   27.5630 N.am  175  ARG175     -0.1966
     85  CA       -16.7250   42.8950   26.7620 C.3   175  ARG175      0.1729
     86  C        -17.9940   42.2350   27.2960 C.2   175  ARG175      0.2617
     87  O        -18.5330   41.3250   26.6690 O.2   175  ARG175     -0.2715
     88  CB       -15.6030   41.8780   26.7060 C.3   175  ARG175      0.0348
     89  CG       -14.3590   42.3790   26.0170 C.3   175  ARG175      0.0492
     90  CD       -14.4320   42.2200   24.5130 C.3   175  ARG175      0.2205
     91  NE       -13.1150   42.4090   23.9140 N.pl3 175  ARG175     -0.0865
     92  CZ       -12.7750   41.9810   22.7060 C.cat 175  ARG175      0.5346
     93  NH1      -13.6590   41.3350   21.9560 N.pl3 175  ARG175      0.1354
     94  NH2      -11.5470   42.1860   22.2540 N.pl3 175  ARG175      0.1354
     95  N        -18.4690   42.6700   28.4550 N.am  176  SER176     -0.1936
     96  CA       -19.6480   42.0430   29.0310 C.3   176  SER176      0.2055
     97  C        -20.8960   42.4610   28.2610 C.2   176  SER176      0.2643
     98  O        -20.8420   43.3690   27.4410 O.2   176  SER176     -0.2714
     99  CB       -19.7690   42.4350   30.5140 C.3   176  SER176      0.2130
    100  OG       -20.0960   43.8090   30.6780 O.3   176  SER176     -0.2179
    101  N        -22.0140   41.7870   28.5100 N.am  177  ARG177     -0.1963
    102  CA       -23.2550   42.0850   27.8080 C.3   177  ARG177      0.1729
    103  C        -24.4710   41.8450   28.6840 C.2   177  ARG177      0.2616
    104  O        -24.6120   40.7770   29.2710 O.2   177  ARG177     -0.2715
    105  CB       -23.4020   41.2030   26.5730 C.3   177  ARG177      0.0348
    106  CG       -24.7990   41.2900   25.9780 C.3   177  ARG177      0.0492
    107  CD       -25.2530   39.9910   25.3670 C.3   177  ARG177      0.2205
    108  NE       -24.5430   39.7110   24.1280 N.pl3 177  ARG177     -0.0865
    109  CZ       -24.7530   38.6330   23.3870 C.cat 177  ARG177      0.5346
    110  NH1      -24.0660   38.4520   22.2700 N.pl3 177  ARG177      0.1354
    111  NH2      -25.6500   37.7360   23.7720 N.pl3 177  ARG177      0.1354
    112  N        -25.3570   42.8340   28.7520 N.am  178  VAL178     -0.1963
    113  CA       -26.6080   42.7070   29.4920 C.3   178  VAL178      0.1727
    114  C        -27.7270   43.3250   28.6820 C.2   178  VAL178      0.2616
    115  O        -27.8780   44.5440   28.6810 O.2   178  VAL178     -0.2715
    116  CB       -26.5420   43.4550   30.8480 C.3   178  VAL178      0.0290
    117  CG1      -27.8830   43.3530   31.5750 C.3   178  VAL178      0.0023
    118  CG2      -25.4140   42.8940   31.6990 C.3   178  VAL178      0.0023
    119  N        -28.5150   42.5010   27.9990 N.am  179  LYS179     -0.1977
    120  CA       -29.6090   43.0150   27.1820 C.3   179  LYS179      0.1596
    121  C        -30.5930   43.8360   28.0090 C.2   179  LYS179      0.2287
    122  O        -31.0010   43.4160   29.0900 O.2   179  LYS179     -0.2864
    123  CB       -30.3580   41.8730   26.4850 C.3   179  LYS179      0.0298
    124  CG       -31.4720   42.3550   25.5630 C.3   179  LYS179      0.0038
    125  CD       -32.3340   41.2130   25.0490 C.3   179  LYS179      0.0206
    126  CE       -33.4320   41.7380   24.1290 C.3   179  LYS179      0.1093
    127  NZ       -34.4090   40.6710   23.7760 N.3   179  LYS179     -0.1314
    128  N        -28.7930   55.8290   25.8840 N.3   199  ASP199     -0.1239
    129  CA       -28.8180   54.5810   25.1290 C.3   199  ASP199      0.1674
    130  C        -30.2410   54.0490   24.9930 C.2   199  ASP199      0.2266
    131  O        -30.8170   53.5600   25.9590 O.2   199  ASP199     -0.2867
    132  CB       -27.9570   53.5160   25.8050 C.3   199  ASP199      0.1410
    133  CG       -28.1870   52.1370   25.2220 C.2   199  ASP199      0.3668
    134  OD1      -28.7030   52.0520   24.0870 O.co2 199  ASP199     -0.2456
    135  OD2      -27.8450   51.1380   25.8850 O.co2 199  ASP199     -0.2456
    136  N        -19.5810   50.2730   13.6650 N.3   268  ASN268     -0.1225
    137  CA       -18.8470   49.6730   14.7620 C.3   268  ASN268      0.1785
    138  C        -18.3170   48.2750   14.4750 C.2   268  ASN268      0.2597
    139  O        -18.6560   47.6590   13.4710 O.2   268  ASN268     -0.2718
    140  CB       -19.7190   49.6760   15.9990 C.3   268  ASN268      0.1169
    141  CG       -18.9560   49.3480   17.2410 C.2   268  ASN268      0.2627
    142  OD1      -17.9760   50.0150   17.5830 O.2   268  ASN268     -0.2716
    143  ND2      -19.3980   48.3130   17.9360 N.am  268  ASN268     -0.0877
    144  N        -17.4790   47.7840   15.3780 N.am  269  LYS269     -0.1980
    145  CA       -16.9150   46.4540   15.2690 C.3   269  LYS269      0.1596
    146  C        -16.0470   46.3120   14.0310 C.2   269  LYS269      0.2287
    147  O        -16.0780   45.2870   13.3550 O.2   269  LYS269     -0.2864
    148  CB       -18.0350   45.4250   15.2720 C.3   269  LYS269      0.0298
    149  CG       -18.8780   45.5150   16.5090 C.3   269  LYS269      0.0038
    150  CD       -19.4510   44.1780   16.8740 C.3   269  LYS269      0.0206
    151  CE       -20.5960   44.3620   17.8510 C.3   269  LYS269      0.1093
    152  NZ       -21.3820   43.1260   18.0950 N.3   269  LYS269     -0.1314
    153  N        -12.9980   45.9160   14.0120 N.3   271  ASP271     -0.1225
    154  CA       -11.9830   44.9220   14.3220 C.3   271  ASP271      0.1805
    155  C        -12.4160   43.5210   13.8860 C.2   271  ASP271      0.2597
    156  O        -11.6370   42.7820   13.2860 O.2   271  ASP271     -0.2718
    157  CB       -11.6960   44.9060   15.8080 C.3   271  ASP271      0.1424
    158  CG       -12.8970   44.5180   16.6100 C.2   271  ASP271      0.3668
    159  OD1      -12.7160   43.7550   17.5810 O.co2 271  ASP271     -0.2456
    160  OD2      -14.0110   44.9810   16.2600 O.co2 271  ASP271     -0.2456
    161  N        -13.6570   43.1570   14.1950 N.am  272  LEU272     -0.1979
    162  CA       -14.1750   41.8420   13.8570 C.3   272  LEU272      0.1596
    163  C        -14.3630   41.7190   12.3580 C.2   272  LEU272      0.2287
    164  O        -14.0920   40.6770   11.7710 O.2   272  LEU272     -0.2864
    165  CB       -15.5000   41.6120   14.5730 C.3   272  LEU272      0.0297
    166  CG       -15.3390   41.7090   16.0870 C.3   272  LEU272      0.0022
    167  CD1      -16.6230   41.3030   16.7650 C.3   272  LEU272      0.0001
    168  CD2      -14.1970   40.8180   16.5400 C.3   272  LEU272      0.0001
    169  N        -14.2280   51.0600   16.8890 N.3   324  CYS324     -0.1221
    170  CA       -14.1330   49.8330   17.6530 C.3   324  CYS324      0.1808
    171  C        -14.4620   50.1600   19.0980 C.2   324  CYS324      0.2601
    172  O        -13.6030   50.5990   19.8580 O.2   324  CYS324     -0.2717
    173  CB       -12.7250   49.2090   17.5950 C.3   324  CYS324      0.0970
    174  SG       -12.5530   47.6640   18.6250 S.3   324  CYS324     -0.0800
    175  N        -15.7220   49.9460   19.4600 N.am  325  ALA325     -0.1965
    176  CA       -16.2640   50.3910   20.7340 C.3   325  ALA325      0.1728
    177  C        -15.5120   49.8490   21.9410 C.2   325  ALA325      0.2616
    178  O        -15.3920   50.5310   22.9500 O.2   325  ALA325     -0.2715
    179  CB       -17.7330   50.0330   20.8260 C.3   325  ALA325      0.0334
    180  N        -15.0110   48.6240   21.8420 N.am  326  THR326     -0.1951
    181  CA       -14.3090   48.0160   22.9660 C.3   326  THR326      0.1897
    182  C        -12.8790   48.5240   23.0770 C.2   326  THR326      0.2313
    183  O        -12.2050   48.2780   24.0770 O.2   326  THR326     -0.2863
    184  CB       -14.2470   46.4660   22.8440 C.3   326  THR326      0.1794
    185  OG1      -13.9450   46.0860   21.4970 O.3   326  THR326     -0.2208
    186  CG2      -15.5390   45.8550   23.2630 C.3   326  THR326      0.0378
@<TRIPOS>BOND
     1   164   163    2
     2   163   162    1
     3   156   155    2
     4   147   146    2
     5   139   138    2
     6   136   137    1
     7   162   161    1
     8   162   165    1
     9   155   161   am
    10   155   154    1
    11   153   154    1
    12   146   145    1
    13   154   157    1
    14   138   137    1
    15   138   144   am
    16   165   166    1
    17   137   140    1
    18   145   148    1
    19   145   144    1
    20   148   149    1
    21   157   158    1
    22   140   141    1
    23   166   168    1
    24   166   167    1
    25   160   158   ar
    26   149   150    1
    27   158   159   ar
    28   150   151    1
    29   169   170    1
    30    68    67   ar
    31    18    15    1
    32    18    19    1
    33   141   142    2
    34   141   143   am
    35   173   170    1
    36   173   174    1
    37   170   171    1
    38   151   152    1
    39    69    67   ar
    40    15    16    1
    41    15    14    1
    42    17    16    2
    43    67    66    1
    44     4     3    2
    45     8     7    2
    46     1     2    1
    47    16    20   am
    48    14     7   am
    49    13    11   ar
    50     7     6    1
    51   171   175   am
    52   171   172    2
    53     3     2    1
    54     3     5   am
    55    66    63    1
    56   175   176    1
    57     9     6    1
    58     9    10    1
    59    63    62    1
    60    63    64    1
    61    20    21    1
    62     6     5    1
    63    11    10    1
    64    11    12   ar
    65    62    56   am
    66    65    64    2
    67    32    31    1
    68    21    22    1
    69    57    56    2
    70   176   179    1
    71   176   177    1
    72    30    29    1
    73    30    31    1
    74    29    28    1
    75    64    70   am
    76    56    55    1
    77    54    55    1
    78    22    24   am
    79    22    23    2
    80   185   184    1
    81    24    25    1
    82    55    58    1
    83   180   177   am
    84   180   181    1
    85   177   178    2
    86    93    92    1
    87    70    71    1
    88    28    25    1
    89    94    92    1
    90    25    26    1
    91   110   109    1
    92    92    91    2
    93   184   181    1
    94   184   186    1
    95   181   182    1
    96    58    59    1
    97   182   183    2
    98    71    72    1
    99    71    74    1
   100   109   111    1
   101   109   108    2
   102    61    59   am
   103    72    73    2
   104    26    27    2
   105    26    33   am
   106   127   126    1
   107    59    60    2
   108    91    90    1
   109    43    44    1
   110    43    45    1
   111    43    40    1
   112   134   133   ar
   113    75    74    1
   114   108   107    1
   115   126   125    1
   116    33    34    1
   117    90    89    1
   118   130   129    1
   119   130   131    2
   120    41    40    1
   121    41    42    2
   122   125   124    1
   123   129   132    1
   124   129   128    1
   125    40    39    1
   126    39    35   am
   127   133   132    1
   128   133   135   ar
   129   107   106    1
   130   124   123    1
   131    34    35    1
   132    34    37    1
   133    35    36    2
   134   106   105    1
   135    89    88    1
   136    38    37    1
   137   123   120    1
   138   105   102    1
   139    79    78    2
   140    87    86    2
   141    88    85    1
   142    85    86    1
   143    85    84    1
   144   120   119    1
   145   120   121    1
   146    82    81    1
   147    86    95   am
   148    83    81    1
   149    78    84   am
   150    78    77    1
   151    98    97    2
   152    80    81    1
   153    80    77    1
   154    49    48    2
   155   102   101    1
   156   102   103    1
   157   119   114   am
   158   121   122    2
   159    77    76    1
   160    97   101   am
   161    97    96    1
   162    95    96    1
   163   115   114    2
   164   114   113    1
   165   103   112   am
   166   103   104    2
   167    52    51    2
   168   112   113    1
   169    48    47    1
   170    96    99    1
   171    51    50    1
   172    51    53   am
   173    50    47    1
   174    47    46    1
   175   113   116    1
   176    99   100    1
   177   116   117    1
   178   116   118    1
