@<TRIPOS>MOLECULE
tmp/3v01A00.pdb
 190 178 0 0 0
SMALL
GASTEIGER

@<TRIPOS>ATOM
      1  N         21.3250   28.5190  -16.2160 N.3    17  GLY17      -0.1210
      2  CA        21.4020   28.6720  -14.7870 C.3    17  GLY17       0.1956
      3  C         21.6590   30.1300  -14.4780 C.2    17  GLY17       0.2612
      4  O         22.5050   30.7540  -15.1250 O.2    17  GLY17      -0.2717
      5  N         20.8900   30.6710  -13.5250 N.am   18  ASN18      -0.1960
      6  CA        21.0840   32.0140  -12.9440 C.3    18  ASN18       0.1819
      7  C         21.9660   32.9660  -13.7830 C.2    18  ASN18       0.2622
      8  O         22.9330   33.5430  -13.2890 O.2    18  ASN18      -0.2715
      9  CB        21.6310   31.8540  -11.5070 C.3    18  ASN18       0.1195
     10  CG        21.1710   32.9700  -10.5480 C.2    18  ASN18       0.2630
     11  OD1       21.6420   33.0500   -9.4070 O.2    18  ASN18      -0.2716
     12  ND2       20.2490   33.8220  -11.0010 N.am   18  ASN18      -0.0877
     13  N         21.6110   33.1290  -15.0530 N.am   19  GLY19      -0.1940
     14  CA        22.4470   33.8510  -16.0020 C.3    19  GLY19       0.2014
     15  C         22.6860   32.9740  -17.2160 C.2    19  GLY19       0.2639
     16  O         21.8580   32.1170  -17.5380 O.2    19  GLY19      -0.2714
     17  N         23.8340   33.1730  -17.8640 N.am   20  GLY20      -0.1954
     18  CA        24.1700   32.5460  -19.1520 C.3    20  GLY20       0.1869
     19  C         23.7780   31.1020  -19.4520 C.2    20  GLY20       0.2309
     20  O         23.6560   30.2590  -18.5650 O.2    20  GLY20      -0.2863
     21  N         29.5620   27.7310  -23.3770 N.3    37  LYS37      -0.1245
     22  CA        28.9180   28.5140  -22.3490 C.3    37  LYS37       0.1561
     23  C         29.0310   29.9870  -22.7130 C.2    37  LYS37       0.2260
     24  O         30.1140   30.4730  -23.0000 O.2    37  LYS37      -0.2867
     25  CB        29.5450   28.2320  -20.9820 C.3    37  LYS37       0.0271
     26  CG        29.2450   29.3070  -19.9120 C.3    37  LYS37       0.0035
     27  CD        29.6720   28.8550  -18.5310 C.3    37  LYS37       0.0206
     28  CE        28.5950   28.0040  -17.8730 C.3    37  LYS37       0.1093
     29  NZ        28.8500   27.6900  -16.4340 N.3    37  LYS37      -0.1314
     30  N         28.3490   33.8780  -21.3160 N.3    39  ILE39      -0.1245
     31  CA        28.0800   34.6960  -20.1350 C.3    39  ILE39       0.1561
     32  C         27.9230   36.1690  -20.5000 C.2    39  ILE39       0.2260
     33  O         28.8710   36.7790  -20.9830 O.2    39  ILE39      -0.2867
     34  CB        29.1960   34.5530  -19.1140 C.3    39  ILE39       0.0252
     35  CG1       29.3570   33.0720  -18.7400 C.3    39  ILE39       0.0019
     36  CG2       28.8890   35.4260  -17.8870 C.3    39  ILE39       0.0019
     37  CD1       30.4530   32.7770  -17.7300 C.3    39  ILE39       0.0001
     38  N         41.7330   33.1470  -18.5550 N.3    55  LEU55      -0.1245
     39  CA        41.1010   31.8620  -18.8620 C.3    55  LEU55       0.1561
     40  C         41.9780   30.9560  -19.6970 C.2    55  LEU55       0.2260
     41  O         41.6960   29.7700  -19.8050 O.2    55  LEU55      -0.2867
     42  CB        39.8180   32.0710  -19.6460 C.3    55  LEU55       0.0270
     43  CG        38.5800   32.5270  -18.8960 C.3    55  LEU55       0.0019
     44  CD1       37.4890   32.7960  -19.9090 C.3    55  LEU55       0.0001
     45  CD2       38.1350   31.4970  -17.8980 C.3    55  LEU55       0.0001
     46  N         43.2600   27.5340  -18.5130 N.3    58  LEU58      -0.1245
     47  CA        42.4960   26.3150  -18.7310 C.3    58  LEU58       0.1561
     48  C         43.1310   25.3750  -19.7750 C.2    58  LEU58       0.2260
     49  O         42.9640   24.1620  -19.6790 O.2    58  LEU58      -0.2867
     50  CB        41.0460   26.6320  -19.1000 C.3    58  LEU58       0.0270
     51  CG        40.2210   27.2790  -17.9890 C.3    58  LEU58       0.0019
     52  CD1       38.8590   27.6670  -18.5240 C.3    58  LEU58       0.0001
     53  CD2       40.0690   26.3500  -16.7830 C.3    58  LEU58       0.0001
     54  N         38.8020   16.8330  -14.5550 N.3    66  ILE66      -0.1231
     55  CA        38.4930   18.2070  -14.9090 C.3    66  ILE66       0.1692
     56  C         38.0600   18.3050  -16.3640 C.2    66  ILE66       0.2592
     57  O         38.7860   17.8980  -17.2720 O.2    66  ILE66      -0.2718
     58  CB        39.7290   19.1050  -14.7410 C.3    66  ILE66       0.0266
     59  CG1       40.2540   19.0550  -13.3010 C.3    66  ILE66       0.0019
     60  CG2       39.4060   20.5330  -15.1460 C.3    66  ILE66       0.0020
     61  CD1       39.2830   19.6210  -12.2520 C.3    66  ILE66       0.0001
     62  N         36.8980   18.9040  -16.5780 N.am   67  VAL67      -0.1966
     63  CA        36.3630   19.1520  -17.9170 C.3    67  VAL67       0.1727
     64  C         37.3520   19.8760  -18.8250 C.2    67  VAL67       0.2617
     65  O         37.9090   20.8780  -18.4270 O.2    67  VAL67      -0.2715
     66  CB        35.0730   19.9600  -17.8220 C.3    67  VAL67       0.0290
     67  CG1       34.6020   20.4370  -19.1910 C.3    67  VAL67       0.0023
     68  CG2       33.9960   19.1070  -17.1630 C.3    67  VAL67       0.0023
     69  N         37.5370   19.3530  -20.0440 N.am   68  GLY68      -0.1940
     70  CA        38.5340   19.8580  -20.9860 C.3    68  GLY68       0.2014
     71  C         38.1380   21.1940  -21.5640 C.2    68  GLY68       0.2638
     72  O         36.9600   21.4690  -21.7170 O.2    68  GLY68      -0.2714
     73  N         39.1390   22.0090  -21.8900 N.am   69  PHE69      -0.1973
     74  CA        38.9610   23.3670  -22.4350 C.3    69  PHE69       0.1639
     75  C         39.4340   23.4070  -23.8840 C.2    69  PHE69       0.2290
     76  O         40.4590   22.8080  -24.2150 O.2    69  PHE69      -0.2864
     77  CB        39.8130   24.3100  -21.6060 C.3    69  PHE69       0.0560
     78  CG        39.7780   25.7530  -22.0290 C.ar   69  PHE69      -0.0200
     79  CD1       40.9260   26.3700  -22.5240 C.ar   69  PHE69      -0.0042
     80  CD2       38.6410   26.5350  -21.8360 C.ar   69  PHE69      -0.0042
     81  CE1       40.9260   27.7230  -22.8460 C.ar   69  PHE69      -0.0003
     82  CE2       38.6410   27.8940  -22.1680 C.ar   69  PHE69      -0.0003
     83  CZ        39.7820   28.4830  -22.6660 C.ar   69  PHE69      -0.0000
     84  N         32.9590   30.4830  -23.3920 N.3    81  ILE81      -0.1245
     85  CA        33.8890   29.4490  -22.9440 C.3    81  ILE81       0.1561
     86  C         33.4800   28.1470  -23.6050 C.2    81  ILE81       0.2260
     87  O         32.3400   27.7020  -23.4830 O.2    81  ILE81      -0.2867
     88  CB        33.9110   29.3250  -21.4180 C.3    81  ILE81       0.0252
     89  CG1       34.3180   30.6780  -20.8070 C.3    81  ILE81       0.0019
     90  CG2       34.9170   28.2940  -20.9710 C.3    81  ILE81       0.0019
     91  CD1       34.1800   30.7450  -19.2970 C.3    81  ILE81       0.0001
     92  N         34.0820   24.1280  -24.1010 N.3    83  MET83      -0.1245
     93  CA        34.5940   22.9760  -23.3780 C.3    83  MET83       0.1570
     94  C         34.0630   21.6790  -23.9630 C.2    83  MET83       0.2261
     95  O         33.1490   21.6500  -24.8150 O.2    83  MET83      -0.2867
     96  CB        34.2480   23.0730  -21.8820 C.3    83  MET83       0.0387
     97  CG        32.7780   23.3120  -21.5910 C.3    83  MET83       0.0595
     98  SD        32.3230   23.7250  -19.8890 S.3    83  MET83      -0.1393
     99  CE        30.9900   24.8450  -20.2680 C.3    83  MET83       0.0692
    100  N         32.5250   26.9310   -6.3290 N.3   130  ASP130     -0.1239
    101  CA        31.1590   26.6870   -6.7720 C.3   130  ASP130      0.1674
    102  C         30.9260   25.1650   -6.9760 C.2   130  ASP130      0.2266
    103  O         30.5170   24.6870   -8.0330 O.2   130  ASP130     -0.2867
    104  CB        30.8990   27.4830   -8.0470 C.3   130  ASP130      0.1410
    105  CG        29.4080   27.6870   -8.3360 C.2   130  ASP130      0.3668
    106  OD1       29.0910   28.2730   -9.4060 O.co2 130  ASP130     -0.2456
    107  OD2       28.5580   27.2810   -7.5100 O.co2 130  ASP130     -0.2456
    108  N         28.8580   22.0090   -6.6060 N.3   132  LYS132     -0.1245
    109  CA        27.4780   21.5620   -6.4300 C.3   132  LYS132      0.1561
    110  C         27.1280   20.5820   -7.5590 C.2   132  LYS132      0.2260
    111  O         27.8500   20.5120   -8.5480 O.2   132  LYS132     -0.2867
    112  CB        26.5330   22.7550   -6.3880 C.3   132  LYS132      0.0271
    113  CG        26.4670   23.5210   -7.6860 C.3   132  LYS132      0.0035
    114  CD        25.7640   24.8870   -7.5420 C.3   132  LYS132      0.0206
    115  CE        25.7720   25.5200   -8.8900 C.3   132  LYS132      0.1093
    116  NZ        25.1060   26.8260   -8.9480 N.3   132  LYS132     -0.1314
    117  N         27.6780   21.3640  -11.2600 N.3   135  ASN135     -0.1240
    118  CA        29.0310   21.6180  -11.7470 C.3   135  ASN135      0.1653
    119  C         29.9160   20.4050  -11.6530 C.2   135  ASN135      0.2266
    120  O         31.1390   20.5090  -11.7620 O.2   135  ASN135     -0.2867
    121  CB        29.6460   22.7940  -10.9970 C.3   135  ASN135      0.1155
    122  CG        28.9300   24.0960  -11.2960 C.2   135  ASN135      0.2627
    123  OD1       28.1640   24.1720  -12.2610 O.2   135  ASN135     -0.2716
    124  ND2       29.1410   25.1130  -10.4590 N.am  135  ASN135     -0.0877
    125  N         33.6390   21.3560  -13.3900 N.3   147  CYS147     -0.1221
    126  CA        33.7600   22.4970  -14.2920 C.3   147  CYS147      0.1808
    127  C         33.3840   23.7110  -13.4880 C.2   147  CYS147      0.2601
    128  O         33.2020   23.5960  -12.2780 O.2   147  CYS147     -0.2717
    129  CB        32.8340   22.3550  -15.5000 C.3   147  CYS147      0.0970
    130  SG        31.1460   22.1530  -14.9540 S.3   147  CYS147     -0.0800
    131  N         33.2950   24.8590  -14.1610 N.am  148  ASP148     -0.1959
    132  CA        32.8040   26.1000  -13.5440 C.3   148  ASP148      0.1840
    133  C         33.5760   26.4730  -12.2660 C.2   148  ASP148      0.2622
    134  O         32.9960   27.0100  -11.3370 O.2   148  ASP148     -0.2715
    135  CB        31.2920   25.9890  -13.2520 C.3   148  ASP148      0.1450
    136  CG        30.4600   25.8390  -14.5060 C.2   148  ASP148      0.3671
    137  OD1       31.0150   26.0280  -15.6110 O.co2 148  ASP148     -0.2456
    138  OD2       29.2480   25.5270  -14.3990 O.co2 148  ASP148     -0.2456
    139  N         34.8780   26.1840  -12.2460 N.am  149  PHE149     -0.1960
    140  CA        35.7540   26.5370  -11.1310 C.3   149  PHE149      0.1771
    141  C         36.3850   27.8900  -11.3780 C.2   149  PHE149      0.2620
    142  O         36.3740   28.3980  -12.4920 O.2   149  PHE149     -0.2715
    143  CB        36.8270   25.4610  -10.8640 C.3   149  PHE149      0.0574
    144  CG        37.5290   24.9880  -12.0750 C.ar  149  PHE149     -0.0200
    145  CD1       38.6790   25.6080  -12.5040 C.ar  149  PHE149     -0.0042
    146  CD2       37.0230   23.9170  -12.7960 C.ar  149  PHE149     -0.0042
    147  CE1       39.3190   25.1890  -13.6660 C.ar  149  PHE149     -0.0003
    148  CE2       37.6330   23.4880  -13.9550 C.ar  149  PHE149     -0.0003
    149  CZ        38.8000   24.1160  -14.3980 C.ar  149  PHE149     -0.0000
    150  N         36.9310   28.4850  -10.3240 N.am  150  GLY150     -0.1940
    151  CA        37.3500   29.8800  -10.3650 C.3   150  GLY150      0.2014
    152  C         38.7640   30.1080  -10.8530 C.2   150  GLY150      0.2639
    153  O         39.6390   30.4260  -10.0280 O.2   150  GLY150     -0.2714
    154  N         38.9960   29.9830  -12.1710 N.am  151  VAL151     -0.1963
    155  CA        40.3420   30.2400  -12.7200 C.3   151  VAL151      0.1727
    156  C         40.6800   31.6960  -12.8390 C.2   151  VAL151      0.2616
    157  O         41.7920   32.0710  -12.4980 O.2   151  VAL151     -0.2715
    158  CB        40.6500   29.6220  -14.1310 C.3   151  VAL151      0.0290
    159  CG1       41.2190   28.2620  -13.9770 C.3   151  VAL151      0.0023
    160  CG2       39.4310   29.6110  -15.0310 C.3   151  VAL151      0.0023
    161  N         39.7530   32.4880  -13.3720 N.am  152  SER152     -0.1950
    162  CA        40.0060   33.9000  -13.6740 C.3   152  SER152      0.1924
    163  C         39.5300   34.7390  -12.5200 C.2   152  SER152      0.2314
    164  O         38.3430   34.7660  -12.2340 O.2   152  SER152     -0.2863
    165  CB        39.2760   34.3450  -14.9570 C.3   152  SER152      0.2116
    166  OG        39.1140   35.7710  -15.0220 O.3   152  SER152     -0.2180
    167  N         37.0280   37.3110  -13.6340 N.3   155  LEU155     -0.1231
    168  CA        35.6950   36.8560  -13.9780 C.3   155  LEU155      0.1693
    169  C         34.8940   36.7130  -12.7110 C.2   155  LEU155      0.2591
    170  O         33.7320   37.1280  -12.6520 O.2   155  LEU155     -0.2718
    171  CB        35.7190   35.5410  -14.7240 C.3   155  LEU155      0.0284
    172  CG        34.6850   35.3220  -15.8310 C.3   155  LEU155      0.0019
    173  CD1       34.5900   33.8300  -16.1060 C.3   155  LEU155      0.0001
    174  CD2       33.3110   35.8850  -15.5330 C.3   155  LEU155      0.0001
    175  N         35.5230   36.1630  -11.6780 N.am  156  ILE156     -0.1980
    176  CA        34.8710   36.1100  -10.3730 C.3   156  ILE156      0.1595
    177  C         34.3300   37.5080   -9.9630 C.2   156  ILE156      0.2287
    178  O         33.1780   37.6140   -9.5530 O.2   156  ILE156     -0.2864
    179  CB        35.8070   35.5380   -9.2830 C.3   156  ILE156      0.0276
    180  CG1       36.1830   34.0880   -9.6050 C.3   156  ILE156      0.0022
    181  CG2       35.1320   35.5920   -7.9140 C.3   156  ILE156      0.0022
    182  CD1       37.4810   33.6430   -8.9760 C.3   156  ILE156      0.0001
    183  N         31.1780   38.9580  -11.8700 N.3   159  MET159     -0.1245
    184  CA        29.9100   38.2590  -11.6650 C.3   159  MET159      0.1570
    185  C         29.2910   38.4910  -10.2810 C.2   159  MET159      0.2261
    186  O         28.1240   38.1640  -10.0680 O.2   159  MET159     -0.2867
    187  CB        30.0870   36.7500  -11.9140 C.3   159  MET159      0.0387
    188  CG        30.5050   36.4300  -13.3500 C.3   159  MET159      0.0595
    189  SD        30.5150   34.6970  -13.8670 S.3   159  MET159     -0.1393
    190  CE        30.8260   33.8290  -12.3340 C.3   159  MET159      0.0692
@<TRIPOS>BOND
     1    95    94    2
     2    76    75    2
     3    92    93    1
     4    94    93    1
     5    75    74    1
     6    86    87    2
     7    86    85    1
     8    84    85    1
     9    93    96    1
    10    21    22    1
    11    24    23    2
    12    85    88    1
    13    81    83   ar
    14    81    79   ar
    15    23    22    1
    16    83    82   ar
    17    79    78   ar
    18    74    73    1
    19    74    77    1
    20    22    25    1
    21    82    80   ar
    22    78    80   ar
    23    78    77    1
    24    73    71   am
    25    96    97    1
    26    72    71    2
    27    97    98    1
    28    71    70    1
    29    88    90    1
    30    88    89    1
    31    30    31    1
    32    70    69    1
    33    33    32    2
    34    25    26    1
    35    89    91    1
    36    32    31    1
    37    99    98    1
    38    31    34    1
    39    69    64   am
    40    26    27    1
    41    44    43    1
    42    41    40    2
    43    48    49    2
    44    48    47    1
    45    40    39    1
    46    42    43    1
    47    42    39    1
    48    19    18    1
    49    19    20    2
    50    67    66    1
    51    18    17    1
    52    34    35    1
    53    34    36    1
    54    50    47    1
    55    50    51    1
    56    43    45    1
    57    39    38    1
    58    64    65    2
    59    64    63    1
    60    35    37    1
    61    47    46    1
    62    27    28    1
    63    52    51    1
    64    51    53    1
    65    63    66    1
    66    63    62    1
    67    28    29    1
    68    17    15   am
    69    66    68    1
    70    16    15    2
    71    57    56    2
    72    15    14    1
    73    62    56   am
    74    56    55    1
    75     1     2    1
    76   173   172    1
    77    14    13    1
    78   172   174    1
    79   172   171    1
    80   137   136   ar
    81   129   130    1
    82   129   126    1
    83    60    58    1
    84     4     3    2
    85    13     7   am
    86   160   158    1
    87   166   165    1
    88   165   162    1
    89    55    58    1
    90    55    54    1
    91     2     3    1
    92    58    59    1
    93   171   168    1
    94   136   138   ar
    95   136   135    1
    96     3     5   am
    97   149   148   ar
    98   149   147   ar
    99   126   127    1
   100   126   125    1
   101   131   132    1
   102   131   127   am
   103   158   159    1
   104   158   155    1
   105   168   167    1
   106   168   169    1
   107   148   146   ar
   108   189   188    1
   109   189   190    1
   110     7     8    2
   111     7     6    1
   112   162   161    1
   113   162   163    1
   114   147   145   ar
   115   132   135    1
   116   132   133    1
   117     5     6    1
   118   127   128    2
   119   161   156   am
   120   188   187    1
   121    59    61    1
   122     6     9    1
   123   156   155    1
   124   156   157    2
   125   146   144   ar
   126   155   154    1
   127   169   170    2
   128   169   175   am
   129   163   164    2
   130   145   144   ar
   131   142   141    2
   132   133   139   am
   133   133   134    2
   134   123   122    2
   135   139   140    1
   136   154   152   am
   137   144   143    1
   138   187   184    1
   139   183   184    1
   140   120   119    2
   141   118   119    1
   142   118   117    1
   143   118   121    1
   144   175   176    1
   145   184   185    1
   146     9    10    1
   147   141   140    1
   148   141   150   am
   149   122   121    1
   150   122   124   am
   151   140   143    1
   152    12    10   am
   153   152   151    1
   154   152   153    2
   155    10    11    2
   156   176   177    1
   157   176   179    1
   158   151   150    1
   159   185   186    2
   160   177   178    2
   161   180   179    1
   162   180   182    1
   163   106   105   ar
   164   179   181    1
   165   116   115    1
   166   115   114    1
   167   111   110    2
   168   105   104    1
   169   105   107   ar
   170   104   101    1
   171   103   102    2
   172   113   114    1
   173   113   112    1
   174   110   109    1
   175   102   101    1
   176   101   100    1
   177   108   109    1
   178   109   112    1
