@<TRIPOS>MOLECULE
tmp/3v04A00.pdb
 173 162 0 0 0
SMALL
GASTEIGER

@<TRIPOS>ATOM
      1  N         21.4390  -28.6050  -26.1620 N.3    17  GLY17      -0.1210
      2  CA        21.6860  -28.7620  -27.5730 C.3    17  GLY17       0.1956
      3  C         22.3490  -30.0700  -27.9140 C.2    17  GLY17       0.2612
      4  O         23.5750  -30.1690  -27.8980 O.2    17  GLY17      -0.2717
      5  N         21.5240  -31.0810  -28.1730 N.am   18  ASN18      -0.1960
      6  CA        21.9180  -32.2200  -28.9970 C.3    18  ASN18       0.1819
      7  C         23.2250  -32.8780  -28.5410 C.2    18  ASN18       0.2622
      8  O         24.2920  -32.6560  -29.1190 O.2    18  ASN18      -0.2715
      9  CB        22.0140  -31.7440  -30.4500 C.3    18  ASN18       0.1195
     10  CG        21.9230  -32.8740  -31.4480 C.2    18  ASN18       0.2630
     11  OD1       21.3170  -32.7230  -32.5110 O.2    18  ASN18      -0.2716
     12  ND2       22.5220  -34.0120  -31.1210 N.am   18  ASN18      -0.0877
     13  N         23.1100  -33.7200  -27.5200 N.am   19  GLY19      -0.1940
     14  CA        24.2510  -34.1580  -26.7450 C.3    19  GLY19       0.2014
     15  C         24.1010  -33.5370  -25.3750 C.2    19  GLY19       0.2639
     16  O         23.1970  -33.9090  -24.6250 O.2    19  GLY19      -0.2714
     17  N         24.9590  -32.5730  -25.0570 N.am   20  GLY20      -0.1954
     18  CA        24.9950  -31.9930  -23.7290 C.3    20  GLY20       0.1869
     19  C         23.9700  -30.9280  -23.3950 C.2    20  GLY20       0.2309
     20  O         23.3520  -30.3350  -24.2740 O.2    20  GLY20      -0.2863
     21  N         29.4370  -27.6880  -19.2180 N.3    37  LYS37      -0.1245
     22  CA        28.8330  -28.5470  -20.2290 C.3    37  LYS37       0.1561
     23  C         28.9360  -30.0170  -19.8350 C.2    37  LYS37       0.2260
     24  O         30.0310  -30.5350  -19.6600 O.2    37  LYS37      -0.2867
     25  CB        29.5200  -28.3330  -21.5820 C.3    37  LYS37       0.0271
     26  CG        29.2370  -29.4300  -22.6070 C.3    37  LYS37       0.0035
     27  CD        29.5540  -28.9840  -24.0160 C.3    37  LYS37       0.0206
     28  CE        28.4650  -28.0960  -24.5950 C.3    37  LYS37       0.1093
     29  NZ        28.7820  -27.7120  -26.0060 N.3    37  LYS37      -0.1314
     30  N         28.1740  -33.8920  -21.1060 N.3    39  ILE39      -0.1245
     31  CA        27.9030  -34.6960  -22.2960 C.3    39  ILE39       0.1561
     32  C         27.7410  -36.1630  -21.9100 C.2    39  ILE39       0.2260
     33  O         28.7050  -36.8130  -21.5100 O.2    39  ILE39      -0.2867
     34  CB        29.0280  -34.5490  -23.3390 C.3    39  ILE39       0.0252
     35  CG1       29.2840  -33.0660  -23.6420 C.3    39  ILE39       0.0019
     36  CG2       28.6620  -35.3280  -24.6150 C.3    39  ILE39       0.0019
     37  CD1       30.4090  -32.8030  -24.6320 C.3    39  ILE39       0.0001
     38  N         41.6570  -33.2870  -23.9040 N.3    55  LEU55      -0.1245
     39  CA        41.0170  -32.0080  -23.5920 C.3    55  LEU55       0.1561
     40  C         41.9460  -31.1010  -22.7990 C.2    55  LEU55       0.2260
     41  O         41.6900  -29.9040  -22.6940 O.2    55  LEU55      -0.2867
     42  CB        39.7260  -32.2180  -22.7940 C.3    55  LEU55       0.0270
     43  CG        38.4740  -32.6680  -23.5470 C.3    55  LEU55       0.0019
     44  CD1       37.3710  -32.9910  -22.5570 C.3    55  LEU55       0.0001
     45  CD2       38.0060  -31.6170  -24.5350 C.3    55  LEU55       0.0001
     46  N         43.2860  -27.6510  -24.0250 N.3    58  LEU58      -0.1245
     47  CA        42.5080  -26.4280  -23.8190 C.3    58  LEU58       0.1561
     48  C         43.0810  -25.5030  -22.7350 C.2    58  LEU58       0.2260
     49  O         42.7220  -24.3300  -22.6850 O.2    58  LEU58      -0.2867
     50  CB        41.0460  -26.7530  -23.4860 C.3    58  LEU58       0.0270
     51  CG        40.1930  -27.4140  -24.5680 C.3    58  LEU58       0.0019
     52  CD1       38.8500  -27.8450  -23.9940 C.3    58  LEU58       0.0001
     53  CD2       39.9820  -26.4830  -25.7530 C.3    58  LEU58       0.0001
     54  N         36.9910  -19.1330  -26.0540 N.3    67  VAL67      -0.1231
     55  CA        36.4200  -19.3270  -24.7230 C.3    67  VAL67       0.1692
     56  C         37.4000  -20.0420  -23.7930 C.2    67  VAL67       0.2593
     57  O         37.9670  -21.0690  -24.1510 O.2    67  VAL67      -0.2718
     58  CB        35.0910  -20.1150  -24.8020 C.3    67  VAL67       0.0266
     59  CG1       34.6160  -20.5670  -23.4180 C.3    67  VAL67       0.0020
     60  CG2       34.0230  -19.2650  -25.4720 C.3    67  VAL67       0.0020
     61  N         37.5700  -19.4870  -22.5930 N.am   68  GLY68      -0.1942
     62  CA        38.5550  -19.9640  -21.6400 C.3    68  GLY68       0.2014
     63  C         38.1950  -21.3180  -21.0780 C.2    68  GLY68       0.2638
     64  O         37.0230  -21.6700  -21.0190 O.2    68  GLY68      -0.2714
     65  N         39.2150  -22.0670  -20.6650 N.am   69  PHE69      -0.1973
     66  CA        39.0540  -23.4250  -20.1470 C.3    69  PHE69       0.1639
     67  C         39.5340  -23.4920  -18.7040 C.2    69  PHE69       0.2290
     68  O         40.5850  -22.9430  -18.3590 O.2    69  PHE69      -0.2864
     69  CB        39.8580  -24.3890  -21.0110 C.3    69  PHE69       0.0560
     70  CG        39.7730  -25.8350  -20.5870 C.ar   69  PHE69      -0.0200
     71  CD1       40.8940  -26.4890  -20.0850 C.ar   69  PHE69      -0.0042
     72  CD2       38.5930  -26.5540  -20.7340 C.ar   69  PHE69      -0.0042
     73  CE1       40.8360  -27.8280  -19.7230 C.ar   69  PHE69      -0.0003
     74  CE2       38.5250  -27.8950  -20.3670 C.ar   69  PHE69      -0.0003
     75  CZ        39.6500  -28.5330  -19.8640 C.ar   69  PHE69      -0.0000
     76  N         32.9620  -30.6010  -19.2370 N.3    81  ILE81      -0.1245
     77  CA        33.8780  -29.5550  -19.6690 C.3    81  ILE81       0.1561
     78  C         33.4620  -28.2660  -18.9850 C.2    81  ILE81       0.2260
     79  O         32.3190  -27.8310  -19.0980 O.2    81  ILE81      -0.2867
     80  CB        33.8590  -29.3950  -21.1950 C.3    81  ILE81       0.0252
     81  CG1       34.3230  -30.6960  -21.8620 C.3    81  ILE81       0.0019
     82  CG2       34.7580  -28.2350  -21.6180 C.3    81  ILE81       0.0019
     83  CD1       34.0850  -30.7430  -23.3630 C.3    81  ILE81       0.0001
     84  N         34.1180  -24.2430  -18.4530 N.3    83  MET83      -0.1245
     85  CA        34.6320  -23.1090  -19.2140 C.3    83  MET83       0.1570
     86  C         34.1270  -21.7740  -18.6800 C.2    83  MET83       0.2261
     87  O         33.2760  -21.7110  -17.7960 O.2    83  MET83      -0.2867
     88  CB        34.2530  -23.2520  -20.6920 C.3    83  MET83       0.0387
     89  CG        32.7690  -23.4460  -20.9470 C.3    83  MET83       0.0595
     90  SD        32.3960  -23.8560  -22.6600 S.3    83  MET83      -0.1393
     91  CE        31.0130  -24.9450  -22.4280 C.3    83  MET83       0.0692
     92  N         32.7280  -27.1140  -36.3800 N.3   130  ASP130     -0.1239
     93  CA        31.3560  -26.8480  -35.9490 C.3   130  ASP130      0.1674
     94  C         31.1320  -25.3470  -35.7200 C.2   130  ASP130      0.2266
     95  O         30.7160  -24.9100  -34.6450 O.2   130  ASP130     -0.2867
     96  CB        31.0410  -27.6550  -34.6820 C.3   130  ASP130      0.1410
     97  CG        29.5430  -27.8260  -34.4410 C.2   130  ASP130      0.3668
     98  OD1       29.1780  -28.4480  -33.4160 O.co2 130  ASP130     -0.2456
     99  OD2       28.6610  -27.3840  -35.2130 O.co2 130  ASP130     -0.2456
    100  N         27.7450  -21.5970  -31.4420 N.3   135  ASN135     -0.1240
    101  CA        29.1120  -21.8170  -30.9670 C.3   135  ASN135      0.1653
    102  C         29.9890  -20.5670  -31.0090 C.2   135  ASN135      0.2266
    103  O         31.1890  -20.6420  -30.7660 O.2   135  ASN135     -0.2867
    104  CB        29.7630  -22.9580  -31.7560 C.3   135  ASN135      0.1155
    105  CG        29.1440  -24.3160  -31.4380 C.2   135  ASN135      0.2627
    106  OD1       28.3620  -24.4450  -30.4930 O.2   135  ASN135     -0.2716
    107  ND2       29.4940  -25.3320  -32.2230 N.am  135  ASN135     -0.0877
    108  N         33.8110  -21.5110  -29.2700 N.3   147  CYS147     -0.1221
    109  CA        33.8470  -22.6670  -28.3810 C.3   147  CYS147      0.1808
    110  C         33.4970  -23.9190  -29.1720 C.2   147  CYS147      0.2601
    111  O         33.2990  -23.8540  -30.3830 O.2   147  CYS147     -0.2717
    112  CB        32.8570  -22.4850  -27.2320 C.3   147  CYS147      0.0970
    113  SG        31.1410  -22.3940  -27.7860 S.3   147  CYS147     -0.0800
    114  N         33.4370  -25.0580  -28.4880 N.am  148  ASP148     -0.1959
    115  CA        32.9600  -26.3030  -29.0960 C.3   148  ASP148      0.1840
    116  C         33.7070  -26.6730  -30.3820 C.2   148  ASP148      0.2622
    117  O         33.1210  -27.2070  -31.3170 O.2   148  ASP148     -0.2715
    118  CB        31.4510  -26.2180  -29.3580 C.3   148  ASP148      0.1450
    119  CG        30.6450  -25.9870  -28.0900 C.2   148  ASP148      0.3671
    120  OD1       31.2030  -26.1070  -26.9730 O.co2 148  ASP148     -0.2456
    121  OD2       29.4290  -25.6870  -28.1170 O.co2 148  ASP148     -0.2456
    122  N         35.0050  -26.3870  -30.3990 N.am  149  PHE149     -0.1960
    123  CA        35.8910  -26.7630  -31.4980 C.3   149  PHE149      0.1771
    124  C         36.5140  -28.1140  -31.1620 C.2   149  PHE149      0.2620
    125  O         36.4850  -28.5450  -30.0110 O.2   149  PHE149     -0.2715
    126  CB        36.9670  -25.6910  -31.7490 C.3   149  PHE149      0.0574
    127  CG        37.5930  -25.1400  -30.4990 C.ar  149  PHE149     -0.0200
    128  CD1       38.7240  -25.7240  -29.9630 C.ar  149  PHE149     -0.0042
    129  CD2       37.0490  -24.0340  -29.8660 C.ar  149  PHE149     -0.0042
    130  CE1       39.3050  -25.2250  -28.8130 C.ar  149  PHE149     -0.0003
    131  CE2       37.6170  -23.5320  -28.7140 C.ar  149  PHE149     -0.0003
    132  CZ        38.7550  -24.1260  -28.1870 C.ar  149  PHE149     -0.0000
    133  N         37.0720  -28.7800  -32.1660 N.am  150  GLY150     -0.1940
    134  CA        37.4470  -30.1770  -32.0440 C.3   150  GLY150      0.2014
    135  C         38.8780  -30.4130  -31.6070 C.2   150  GLY150      0.2639
    136  O         39.7120  -30.8000  -32.4270 O.2   150  GLY150     -0.2714
    137  N         39.1620  -30.2020  -30.3230 N.am  151  VAL151     -0.1963
    138  CA        40.5070  -30.4500  -29.7890 C.3   151  VAL151      0.1727
    139  C         40.7770  -31.9440  -29.6840 C.2   151  VAL151      0.2616
    140  O         41.5920  -32.4790  -30.4340 O.2   151  VAL151     -0.2715
    141  CB        40.8000  -29.7570  -28.4120 C.3   151  VAL151      0.0290
    142  CG1       41.4700  -28.4180  -28.6230 C.3   151  VAL151      0.0023
    143  CG2       39.5480  -29.5920  -27.5510 C.3   151  VAL151      0.0023
    144  N         40.0940  -32.6110  -28.7590 N.am  152  SER152     -0.1950
    145  CA        40.2220  -34.0500  -28.6050 C.3   152  SER152      0.1924
    146  C         39.5820  -34.7330  -29.8040 C.2   152  SER152      0.2314
    147  O         38.3860  -34.5560  -30.0680 O.2   152  SER152     -0.2863
    148  CB        39.5560  -34.5240  -27.3060 C.3   152  SER152      0.2116
    149  OG        39.3640  -35.9320  -27.3030 O.3   152  SER152     -0.2180
    150  N         36.8290  -37.4080  -28.7890 N.3   155  LEU155     -0.1231
    151  CA        35.5170  -36.9280  -28.3630 C.3   155  LEU155      0.1693
    152  C         34.5760  -36.8200  -29.5570 C.2   155  LEU155      0.2591
    153  O         33.4010  -37.1740  -29.4610 O.2   155  LEU155     -0.2718
    154  CB        35.6190  -35.5710  -27.6570 C.3   155  LEU155      0.0284
    155  CG        34.7420  -35.3490  -26.4150 C.3   155  LEU155      0.0019
    156  CD1       34.4710  -33.8720  -26.2290 C.3   155  LEU155      0.0001
    157  CD2       33.4320  -36.1180  -26.4440 C.3   155  LEU155      0.0001
    158  N         35.0990  -36.3300  -30.6780 N.am  156  ILE156     -0.1980
    159  CA        34.3480  -36.2960  -31.9310 C.3   156  ILE156      0.1595
    160  C         33.7790  -37.6870  -32.2480 C.2   156  ILE156      0.2287
    161  O         32.5830  -37.8260  -32.5010 O.2   156  ILE156     -0.2864
    162  CB        35.2500  -35.7830  -33.0810 C.3   156  ILE156      0.0276
    163  CG1       35.5100  -34.2800  -32.9210 C.3   156  ILE156      0.0022
    164  CG2       34.6150  -36.0470  -34.4400 C.3   156  ILE156      0.0022
    165  CD1       36.7900  -33.8110  -33.5860 C.3   156  ILE156      0.0001
    166  N         30.6410  -39.1830  -30.2620 N.3   159  MET159     -0.1245
    167  CA        29.3420  -38.5440  -30.4700 C.3   159  MET159      0.1570
    168  C         28.7760  -38.7270  -31.8920 C.2   159  MET159      0.2261
    169  O         27.6770  -38.2480  -32.1820 O.2   159  MET159     -0.2867
    170  CB        29.4490  -37.0390  -30.1910 C.3   159  MET159      0.0387
    171  CG        29.9870  -36.6550  -28.8170 C.3   159  MET159      0.0595
    172  SD        29.6320  -34.9140  -28.4710 S.3   159  MET159     -0.1393
    173  CE        31.0660  -34.3870  -27.7730 C.3   159  MET159      0.0692
@<TRIPOS>BOND
     1    92    93    1
     2    93    94    1
     3    93    96    1
     4    94    95    2
     5    99    97   ar
     6    96    97    1
     7    97    98   ar
     8   164   162    1
     9   165   163    1
    10   162   163    1
    11   162   159    1
    12    11    10    2
    13   161   160    2
    14   136   135    2
    15   160   159    1
    16   107   105   am
    17   169   168    2
    18   133   134    1
    19   133   124   am
    20   134   135    1
    21   159   158    1
    22   168   167    1
    23   104   105    1
    24   104   101    1
    25   126   123    1
    26   126   127    1
    27   135   137   am
    28   123   124    1
    29   123   122    1
    30    10    12   am
    31    10     9    1
    32   100   101    1
    33   105   106    2
    34   117   116    2
    35   124   125    2
    36   102   101    1
    37   102   103    2
    38   158   152   am
    39   127   128   ar
    40   127   129   ar
    41   167   166    1
    42   167   170    1
    43     9     6    1
    44   140   139    2
    45   122   116   am
    46   111   110    2
    47   116   115    1
    48   137   138    1
    49   170   171    1
    50   147   146    2
    51   128   130   ar
    52   129   131   ar
    53   146   145    1
    54   138   139    1
    55   138   141    1
    56   139   144   am
    57   152   153    2
    58   152   151    1
    59   118   115    1
    60   118   119    1
    61   108   109    1
    62   110   114   am
    63   110   109    1
    64     8     7    2
    65   115   114    1
    66     6     7    1
    67     6     5    1
    68   171   172    1
    69   130   132   ar
    70   150   151    1
    71   144   145    1
    72   131   132   ar
    73   142   141    1
    74   145   148    1
    75     7    13   am
    76   172   173    1
    77   141   143    1
    78   109   112    1
    79   151   154    1
    80     5     3   am
    81   121   119   ar
    82   119   120   ar
    83     3     4    2
    84     3     2    1
    85   113   112    1
    86   154   155    1
    87     2     1    1
    88    13    14    1
    89   148   149    1
    90    14    15    1
    91   157   155    1
    92   155   156    1
    93    54    55    1
    94    29    28    1
    95    53    51    1
    96    60    58    1
    97    15    17   am
    98    15    16    2
    99    17    18    1
   100    58    55    1
   101    58    59    1
   102    55    56    1
   103    37    35    1
   104    36    34    1
   105    28    27    1
   106    51    52    1
   107    51    50    1
   108    45    43    1
   109    20    19    2
   110    57    56    2
   111    46    47    1
   112    27    26    1
   113    38    39    1
   114    47    50    1
   115    47    48    1
   116    56    61   am
   117    18    19    1
   118    35    34    1
   119    39    40    1
   120    39    42    1
   121    43    42    1
   122    43    44    1
   123    83    81    1
   124    34    31    1
   125    40    41    2
   126    48    49    2
   127    90    91    1
   128    90    89    1
   129    26    25    1
   130    61    62    1
   131    31    32    1
   132    31    30    1
   133    32    33    2
   134    81    80    1
   135    62    63    1
   136    82    80    1
   137    25    22    1
   138    80    77    1
   139    63    64    2
   140    63    65   am
   141    69    70    1
   142    69    66    1
   143    89    88    1
   144    72    70   ar
   145    72    74   ar
   146    88    85    1
   147    65    66    1
   148    70    71   ar
   149    74    75   ar
   150    22    23    1
   151    22    21    1
   152    66    67    1
   153    71    73   ar
   154    75    73   ar
   155    23    24    2
   156    77    76    1
   157    77    78    1
   158    85    86    1
   159    85    84    1
   160    79    78    2
   161    67    68    2
   162    86    87    2
