@<TRIPOS>MOLECULE
tmp/3v09A03.pdb
 132 126 0 0 0
SMALL
GASTEIGER

@<TRIPOS>ATOM
      1  N         19.6890   35.8770   26.4370 N.3   115  PHE115     -0.1241
      2  CA        20.3110   35.0530   27.4600 C.3   115  PHE115      0.1605
      3  C         21.6750   35.6170   27.7760 C.2   115  PHE115      0.2264
      4  O         22.5650   35.5760   26.9400 O.2   115  PHE115     -0.2867
      5  CB        20.4660   33.6240   26.9480 C.3   115  PHE115      0.0534
      6  CG        20.8040   32.6210   28.0140 C.ar  115  PHE115     -0.0203
      7  CD1       20.1230   31.4140   28.0720 C.ar  115  PHE115     -0.0042
      8  CD2       21.8080   32.8580   28.9480 C.ar  115  PHE115     -0.0042
      9  CE1       20.4340   30.4660   29.0410 C.ar  115  PHE115     -0.0003
     10  CE2       22.1160   31.9230   29.9320 C.ar  115  PHE115     -0.0003
     11  CZ        21.4250   30.7210   29.9780 C.ar  115  PHE115     -0.0000
     12  N         25.2830   35.5600   29.5180 N.3   117  ARG117     -0.1245
     13  CA        26.2800   34.7540   30.1970 C.3   117  ARG117      0.1563
     14  C         26.9740   35.6340   31.2440 C.2   117  ARG117      0.2260
     15  O         27.4950   36.6930   30.9010 O.2   117  ARG117     -0.2867
     16  CB        27.3150   34.2070   29.2210 C.3   117  ARG117      0.0307
     17  CG        28.2060   33.1360   29.8420 C.3   117  ARG117      0.0489
     18  CD        29.2310   32.6460   28.8400 C.3   117  ARG117      0.2205
     19  NE        28.6440   31.7400   27.8460 N.pl3 117  ARG117     -0.0865
     20  CZ        29.2020   31.4660   26.6710 C.cat 117  ARG117      0.5346
     21  NH1       28.6040   30.6360   25.8240 N.pl3 117  ARG117      0.1354
     22  NH2       30.3610   32.0410   26.3230 N.pl3 117  ARG117      0.1354
     23  N         30.0810   32.9290   37.0580 N.3   123  LEU123     -0.1245
     24  CA        29.4470   31.7050   36.6080 C.3   123  LEU123      0.1561
     25  C         29.8920   30.5240   37.4570 C.2   123  LEU123      0.2260
     26  O         29.0610   29.7550   37.9680 O.2   123  LEU123     -0.2867
     27  CB        29.8110   31.4790   35.1530 C.3   123  LEU123      0.0270
     28  CG        29.0210   30.4210   34.4530 C.3   123  LEU123      0.0019
     29  CD1       27.5680   30.8630   34.4680 C.3   123  LEU123      0.0001
     30  CD2       29.5700   30.2990   33.0350 C.3   123  LEU123      0.0001
     31  N         19.5790   26.4710   33.8650 N.3   138  TYR138     -0.1241
     32  CA        19.9530   26.1320   32.5100 C.3   138  TYR138      0.1605
     33  C         18.8410   25.4280   31.7470 C.2   138  TYR138      0.2264
     34  O         18.5460   25.8030   30.6210 O.2   138  TYR138     -0.2867
     35  CB        21.2070   25.2530   32.5170 C.3   138  TYR138      0.0534
     36  CG        21.6250   24.7730   31.1640 C.ar  138  TYR138     -0.0201
     37  CD1       22.3770   25.6030   30.3200 C.ar  138  TYR138     -0.0009
     38  CD2       21.2730   23.5130   30.7050 C.ar  138  TYR138     -0.0009
     39  CE1       22.7740   25.1760   29.0480 C.ar  138  TYR138      0.0417
     40  CE2       21.6280   23.0930   29.4280 C.ar  138  TYR138      0.0417
     41  CZ        22.4060   23.9260   28.6030 C.ar  138  TYR138      0.1957
     42  OH        22.7760   23.5390   27.2890 O.3   138  TYR138     -0.2866
     43  N         16.8300   27.3760   28.7220 N.3   142  VAL142     -0.1245
     44  CA        16.8950   26.8630   27.3640 C.3   142  VAL142      0.1561
     45  C         15.5030   26.4780   26.9070 C.2   142  VAL142      0.2260
     46  O         15.0910   26.8710   25.8030 O.2   142  VAL142     -0.2867
     47  CB        17.8190   25.6670   27.2480 C.3   142  VAL142      0.0252
     48  CG1       17.7420   25.1170   25.8540 C.3   142  VAL142      0.0019
     49  CG2       19.2490   26.0730   27.5900 C.3   142  VAL142      0.0019
     50  N         13.0910   29.4080   26.0290 N.3   145  ARG145     -0.1231
     51  CA        13.4150   30.0840   24.7710 C.3   145  ARG145      0.1694
     52  C         13.2190   29.1510   23.5600 C.2   145  ARG145      0.2592
     53  O         13.1830   29.6150   22.4480 O.2   145  ARG145     -0.2718
     54  CB        14.8600   30.5800   24.8100 C.3   145  ARG145      0.0321
     55  CG        15.0590   31.7790   25.7500 C.3   145  ARG145      0.0489
     56  CD        16.5260   32.0920   26.0570 C.3   145  ARG145      0.2205
     57  NE        16.7050   33.4630   26.6000 N.pl3 145  ARG145     -0.0865
     58  CZ        16.3980   33.8070   27.8460 C.cat 145  ARG145      0.5346
     59  NH1       15.9370   32.9130   28.7150 N.pl3 145  ARG145      0.1354
     60  NH2       16.6100   35.0380   28.2670 N.pl3 145  ARG145      0.1354
     61  N         13.1280   27.8400   23.8000 N.am  146  HIS146     -0.1976
     62  CA        13.0300   26.8360   22.7500 C.3   146  HIS146      0.1656
     63  C         11.9920   25.8240   23.1780 C.2   146  HIS146      0.2291
     64  O         12.3050   24.7460   23.6750 O.2   146  HIS146     -0.2864
     65  CB        14.3940   26.1990   22.4880 C.3   146  HIS146      0.0771
     66  CG        15.4370   27.2030   22.1080 C.ar  146  HIS146      0.0820
     67  ND1       15.5440   27.7120   20.8290 N.ar  146  HIS146     -0.2267
     68  CD2       16.3630   27.8520   22.8560 C.ar  146  HIS146      0.1154
     69  CE1       16.5070   28.6180   20.7980 C.ar  146  HIS146      0.1986
     70  NE2       17.0130   28.7310   22.0180 N.ar  146  HIS146     -0.2212
     71  N         12.1690   22.1900   22.1610 N.3   149  PHE149     -0.1241
     72  CA        13.4680   21.4920   22.2940 C.3   149  PHE149      0.1605
     73  C         13.2640   20.0460   22.6900 C.2   149  PHE149      0.2264
     74  O         12.4950   19.8130   23.5790 O.2   149  PHE149     -0.2867
     75  CB        14.3370   22.1960   23.3270 C.3   149  PHE149      0.0534
     76  CG        15.7820   21.9440   23.1410 C.ar  149  PHE149     -0.0203
     77  CD1       16.3440   20.7610   23.5590 C.ar  149  PHE149     -0.0042
     78  CD2       16.5760   22.8880   22.5670 C.ar  149  PHE149     -0.0042
     79  CE1       17.6770   20.5170   23.3740 C.ar  149  PHE149     -0.0003
     80  CE2       17.9120   22.6520   22.3830 C.ar  149  PHE149     -0.0003
     81  CZ        18.4660   21.4690   22.7900 C.ar  149  PHE149     -0.0000
     82  N         27.2650   20.6600   29.8390 N.3   161  TYR161     -0.1241
     83  CA        27.4730   21.9450   30.4490 C.3   161  TYR161      0.1605
     84  C         28.1040   21.7450   31.7880 C.2   161  TYR161      0.2264
     85  O         29.0100   22.4330   32.1050 O.2   161  TYR161     -0.2867
     86  CB        26.1300   22.6360   30.5690 C.3   161  TYR161      0.0534
     87  CG        26.1250   24.0360   31.0200 C.ar  161  TYR161     -0.0201
     88  CD1       26.8100   25.0050   30.3490 C.ar  161  TYR161     -0.0009
     89  CD2       25.3560   24.4120   32.0950 C.ar  161  TYR161     -0.0009
     90  CE1       26.7780   26.3270   30.7780 C.ar  161  TYR161      0.0417
     91  CE2       25.2960   25.7210   32.5290 C.ar  161  TYR161      0.0417
     92  CZ        25.9980   26.6810   31.8680 C.ar  161  TYR161      0.1957
     93  OH        25.9010   27.9850   32.3170 O.3   161  TYR161     -0.2866
     94  N         31.8810   26.8660   25.9180 N.3   182  LEU182     -0.1245
     95  CA        30.4550   27.1680   26.1040 C.3   182  LEU182      0.1561
     96  C         29.8320   27.7140   24.8270 C.2   182  LEU182      0.2260
     97  O         28.6600   27.4820   24.5840 O.2   182  LEU182     -0.2867
     98  CB        30.2280   28.1420   27.2650 C.3   182  LEU182      0.0270
     99  CG        30.4150   27.5270   28.6510 C.3   182  LEU182      0.0019
    100  CD1       30.0000   28.5330   29.7050 C.3   182  LEU182      0.0001
    101  CD2       29.6540   26.2280   28.8290 C.3   182  LEU182      0.0001
    102  N         29.3370   24.6360   22.7970 N.3   185  LEU185     -0.1231
    103  CA        28.1520   23.9150   23.2220 C.3   185  LEU185      0.1693
    104  C         26.8410   24.6670   22.8720 C.2   185  LEU185      0.2591
    105  O         25.8640   24.0530   22.5400 O.2   185  LEU185     -0.2718
    106  CB        28.2110   23.5800   24.7200 C.3   185  LEU185      0.0284
    107  CG        27.1270   22.6240   25.2790 C.3   185  LEU185      0.0019
    108  CD1       27.2630   21.2510   24.6190 C.3   185  LEU185      0.0001
    109  CD2       27.1710   22.4970   26.8130 C.3   185  LEU185      0.0001
    110  N         26.8180   25.9850   22.9480 N.am  186  GLU186     -0.1979
    111  CA        25.6280   26.7250   22.5150 C.3   186  GLU186      0.1602
    112  C         25.3180   26.4600   21.0320 C.2   186  GLU186      0.2287
    113  O         24.1740   26.2130   20.6760 O.2   186  GLU186     -0.2864
    114  CB        25.7920   28.2250   22.7340 C.3   186  GLU186      0.0415
    115  CG        24.7650   29.0570   21.9690 C.3   186  GLU186      0.1163
    116  CD        24.4840   30.4360   22.5590 C.2   186  GLU186      0.3649
    117  OE1       24.7800   31.4420   21.8870 O.co2 186  GLU186     -0.2457
    118  OE2       23.9030   30.5300   23.6720 O.co2 186  GLU186     -0.2457
    119  N         23.7300   23.1890   20.4700 N.3   189  SER189     -0.1202
    120  CA        22.4250   23.1940   21.0480 C.3   189  SER189      0.2020
    121  C         21.3960   23.9970   20.2510 C.2   189  SER189      0.2618
    122  O         20.2380   23.6280   20.1700 O.2   189  SER189     -0.2717
    123  CB        22.5480   23.7560   22.4160 C.3   189  SER189      0.2103
    124  OG        21.2950   23.7860   23.0200 O.3   189  SER189     -0.2182
    125  N         21.8200   25.0860   19.6360 N.am  190  LEU190     -0.1979
    126  CA        20.9450   25.7790   18.6990 C.3   190  LEU190      0.1596
    127  C         20.6660   24.9450   17.4460 C.2   190  LEU190      0.2287
    128  O         19.5920   25.0180   16.9000 O.2   190  LEU190     -0.2864
    129  CB        21.5130   27.1200   18.3000 C.3   190  LEU190      0.0297
    130  CG        21.6140   28.1830   19.4050 C.3   190  LEU190      0.0022
    131  CD1       22.3180   29.4010   18.7930 C.3   190  LEU190      0.0001
    132  CD2       20.2670   28.5660   20.0300 C.3   190  LEU190      0.0001
@<TRIPOS>BOND
     1   128   127    2
     2   127   126    1
     3   129   126    1
     4   129   130    1
     5   126   125    1
     6   131   130    1
     7   130   132    1
     8   125   121   am
     9   122   121    2
    10   121   120    1
    11   119   120    1
    12   113   112    2
    13    69    67   ar
    14    69    70   ar
    15    67    66   ar
    16   112   111    1
    17   120   123    1
    18   117   116   ar
    19   115   116    1
    20   115   114    1
    21    70    68   ar
    22    66    65    1
    23    66    68   ar
    24    71    72    1
    25    72    73    1
    26    72    75    1
    27    80    78   ar
    28    80    81   ar
    29   123   124    1
    30    53    52    2
    31    65    62    1
    32   111   114    1
    33   111   110    1
    34   105   104    2
    35   116   118   ar
    36    78    76   ar
    37    73    74    2
    38    62    63    1
    39    62    61    1
    40    81    79   ar
    41   102   103    1
    42   104   110   am
    43   104   103    1
    44    76    75    1
    45    76    77   ar
    46    63    64    2
    47   103   106    1
    48    79    77   ar
    49    52    61   am
    50    52    51    1
    51    97    96    2
    52   108   107    1
    53   106   107    1
    54    51    54    1
    55    51    50    1
    56    54    55    1
    57    96    95    1
    58   107   109    1
    59    55    56    1
    60    46    45    2
    61    21    20    1
    62    48    47    1
    63    94    95    1
    64    56    57    1
    65    95    98    1
    66    22    20    1
    67     1     2    1
    68    57    58    2
    69    20    19    2
    70    45    44    1
    71     4     3    2
    72     5     2    1
    73     5     6    1
    74    47    44    1
    75    47    49    1
    76    98    99    1
    77    42    41    1
    78    44    43    1
    79     2     3    1
    80    58    60    1
    81    58    59    1
    82    19    18    1
    83     6     7   ar
    84     6     8   ar
    85     7     9   ar
    86    41    39   ar
    87    41    40   ar
    88    99   101    1
    89    99   100    1
    90    18    17    1
    91     8    10   ar
    92     9    11   ar
    93    39    37   ar
    94    16    17    1
    95    16    13    1
    96    40    38   ar
    97    12    13    1
    98    82    83    1
    99    10    11   ar
   100    13    14    1
   101    37    36   ar
   102    88    90   ar
   103    88    87   ar
   104    83    86    1
   105    83    84    1
   106    86    87    1
   107    34    33    2
   108    38    36   ar
   109    90    92   ar
   110    15    14    2
   111    87    89   ar
   112    36    35    1
   113    33    32    1
   114    84    85    2
   115    92    93    1
   116    92    91   ar
   117    89    91   ar
   118    32    35    1
   119    32    31    1
   120    30    28    1
   121    28    29    1
   122    28    27    1
   123    27    24    1
   124    24    23    1
   125    24    25    1
   126    25    26    2
