@<TRIPOS>MOLECULE
tmp/3v09A02.pdb
 123 115 0 0 0
SMALL
GASTEIGER

@<TRIPOS>ATOM
      1  N         14.2910    9.3580   39.4810 N.3    16  GLU16      -0.1231
      2  CA        13.9750   10.6480   40.0730 C.3    16  GLU16       0.1699
      3  C         14.6700   11.8540   39.4100 C.2    16  GLU16       0.2592
      4  O         14.0460   12.8480   39.1820 O.2    16  GLU16      -0.2718
      5  CB        14.2130   10.6460   41.5990 C.3    16  GLU16       0.0402
      6  CG        13.8620   11.9790   42.2310 C.3    16  GLU16       0.1161
      7  CD        13.9500   12.0010   43.7340 C.2    16  GLU16       0.3649
      8  OE1       14.3060   13.0890   44.2680 O.co2  16  GLU16      -0.2457
      9  OE2       13.6700   10.9650   44.4120 O.co2  16  GLU16      -0.2457
     10  N         15.9280   11.7280   39.0720 N.am   17  GLU17      -0.1979
     11  CA        16.7090   12.8290   38.5640 C.3    17  GLU17       0.1602
     12  C         16.2190   13.2690   37.1830 C.2    17  GLU17       0.2287
     13  O         15.9710   14.4290   36.9820 O.2    17  GLU17      -0.2864
     14  CB        18.2080   12.4480   38.5960 C.3    17  GLU17       0.0415
     15  CG        19.1670   13.2880   37.7610 C.3    17  GLU17       0.1163
     16  CD        20.5350   12.5810   37.5560 C.2    17  GLU17       0.3649
     17  OE1       21.1340   12.6700   36.4580 O.co2  17  GLU17      -0.2457
     18  OE2       21.0140   11.9000   38.4820 O.co2  17  GLU17      -0.2457
     19  N         12.6260   14.7530   37.4950 N.3    20  ILE20      -0.1231
     20  CA        12.6490   16.1890   37.8810 C.3    20  ILE20       0.1692
     21  C         13.0140   17.1290   36.7310 C.2    20  ILE20       0.2592
     22  O         12.3330   18.1290   36.4940 O.2    20  ILE20      -0.2718
     23  CB        13.6100   16.4110   39.0490 C.3    20  ILE20       0.0266
     24  CG1       13.0080   15.8410   40.3130 C.3    20  ILE20       0.0019
     25  CG2       13.9730   17.8990   39.2010 C.3    20  ILE20       0.0020
     26  CD1       14.0260   15.7960   41.4380 C.3    20  ILE20       0.0001
     27  N         14.0520   16.7750   35.9690 N.am   21  GLY21      -0.1957
     28  CA        14.4480   17.5440   34.8160 C.3    21  GLY21       0.1869
     29  C         13.3280   17.6330   33.8020 C.2    21  GLY21       0.2309
     30  O         13.0810   18.7050   33.2180 O.2    21  GLY21      -0.2863
     31  N         10.4590   19.8830   34.9550 N.3    24  LEU24      -0.1245
     32  CA        10.8930   21.2870   34.8420 C.3    24  LEU24       0.1561
     33  C         10.7840   21.7770   33.4300 C.2    24  LEU24       0.2260
     34  O         10.3400   22.9220   33.1850 O.2    24  LEU24      -0.2867
     35  CB        12.3480   21.4740   35.2910 C.3    24  LEU24       0.0270
     36  CG        12.9740   22.8830   35.2610 C.3    24  LEU24       0.0019
     37  CD1       12.0180   23.8870   35.9000 C.3    24  LEU24       0.0001
     38  CD2       14.3460   22.8870   35.9440 C.3    24  LEU24       0.0001
     39  N         11.8080   31.5480   37.2040 N.3    36  TYR36      -0.1241
     40  CA        12.2660   30.2140   37.5830 C.3    36  TYR36       0.1605
     41  C         11.6680   29.7000   38.8740 C.2    36  TYR36       0.2264
     42  O         11.3930   28.4950   39.0380 O.2    36  TYR36      -0.2867
     43  CB        13.7680   30.1920   37.7650 C.3    36  TYR36       0.0534
     44  CG        14.2510   28.8560   38.2580 C.ar   36  TYR36      -0.0201
     45  CD1       14.3020   27.7730   37.4080 C.ar   36  TYR36      -0.0009
     46  CD2       14.6500   28.6800   39.5720 C.ar   36  TYR36      -0.0009
     47  CE1       14.7300   26.5400   37.8380 C.ar   36  TYR36       0.0417
     48  CE2       15.1020   27.4660   40.0190 C.ar   36  TYR36       0.0417
     49  CZ        15.1240   26.3910   39.1600 C.ar   36  TYR36       0.1957
     50  OH        15.5460   25.1570   39.5790 O.3    36  TYR36      -0.2866
     51  N         10.0570   26.0910   39.8730 N.3    40  ALA40      -0.1245
     52  CA        10.7050   25.1970   40.8260 C.3    40  ALA40       0.1562
     53  C          9.7070   24.7070   41.8210 C.2    40  ALA40       0.2260
     54  O          9.6620   23.5080   42.0960 O.2    40  ALA40      -0.2867
     55  CB        11.8660   25.8740   41.5200 C.3    40  ALA40       0.0290
     56  N          7.5610   22.0950   40.2880 N.3    43  VAL43      -0.1231
     57  CA         8.2950   20.8640   40.0980 C.3    43  VAL43       0.1692
     58  C          8.3640   20.1230   41.4280 C.2    43  VAL43       0.2591
     59  O          8.2540   18.8890   41.4660 O.2    43  VAL43      -0.2718
     60  CB         9.7000   21.1430   39.5300 C.3    43  VAL43       0.0266
     61  CG1       10.5740   19.8680   39.5030 C.3    43  VAL43       0.0020
     62  CG2        9.5450   21.7820   38.1440 C.3    43  VAL43       0.0020
     63  N          8.4880   20.8810   42.5140 N.am   44  LYS44      -0.1980
     64  CA         8.5960   20.2810   43.8340 C.3    44  LYS44       0.1596
     65  C          7.2980   19.5720   44.2080 C.2    44  LYS44       0.2287
     66  O          7.3450   18.4810   44.7420 O.2    44  LYS44      -0.2864
     67  CB         8.9310   21.3030   44.9260 C.3    44  LYS44       0.0298
     68  CG         9.1490   20.6250   46.2600 C.3    44  LYS44       0.0038
     69  CD         9.1270   21.5600   47.4420 C.3    44  LYS44       0.0206
     70  CE         8.8370   20.7860   48.7430 C.3    44  LYS44       0.1093
     71  NZ         9.2090   19.3200   48.7170 N.3    44  LYS44      -0.1314
     72  N          6.8080   16.3690   42.0070 N.3    47  THR47      -0.1203
     73  CA         7.7390   15.3620   42.4700 C.3    47  THR47       0.1994
     74  C          7.2860   14.7230   43.7950 C.2    47  THR47       0.2617
     75  O          7.2850   13.4830   43.9240 O.2    47  THR47      -0.2717
     76  CB         9.1350   15.9840   42.6140 C.3    47  THR47       0.1784
     77  OG1        9.5810   16.4420   41.3230 O.3    47  THR47      -0.2211
     78  CG2       10.1380   14.9570   43.2060 C.3    47  THR47       0.0376
     79  N          6.8980   15.5610   44.7650 N.am   48  ASP48      -0.1973
     80  CA         6.3250   15.0680   46.0010 C.3    48  ASP48       0.1709
     81  C          5.1100   14.1730   45.7220 C.2    48  ASP48       0.2293
     82  O          4.9620   13.1310   46.3300 O.2    48  ASP48      -0.2864
     83  CB         5.9300   16.2270   46.9340 C.3    48  ASP48       0.1436
     84  CG         7.1370   16.9020   47.5550 C.2    48  ASP48       0.3671
     85  OD1        8.2800   16.5420   47.2010 O.co2  48  ASP48      -0.2456
     86  OD2        6.9670   17.8050   48.3890 O.co2  48  ASP48      -0.2456
     87  N         22.3830   22.0340   41.8650 N.3   132  LYS132     -0.1231
     88  CA        21.0480   21.6680   41.4410 C.3   132  LYS132      0.1693
     89  C         20.2740   22.9040   40.9150 C.2   132  LYS132      0.2591
     90  O         19.7180   22.8520   39.8010 O.2   132  LYS132     -0.2718
     91  CB        20.3350   20.9500   42.5970 C.3   132  LYS132      0.0285
     92  CG        18.8440   20.7500   42.4030 C.3   132  LYS132      0.0035
     93  CD        18.1880   20.2220   43.6890 C.3   132  LYS132      0.0206
     94  CE        16.7270   19.8150   43.4660 C.3   132  LYS132      0.1093
     95  NZ        16.4540   19.1200   42.1700 N.3   132  LYS132     -0.1314
     96  N         20.2570   24.0020   41.6850 N.am  133  ALA133     -0.1980
     97  CA        19.5950   25.2330   41.2410 C.3   133  ALA133      0.1597
     98  C         20.2490   25.8150   39.9540 C.2   133  ALA133      0.2287
     99  O         19.5690   26.3550   39.0500 O.2   133  ALA133     -0.2864
    100  CB        19.5990   26.2660   42.3710 C.3   133  ALA133      0.0319
    101  N         21.9230   24.0530   37.5320 N.3   135  PHE135     -0.1227
    102  CA        21.4240   23.3180   36.3710 C.3   135  PHE135      0.1736
    103  C         19.9450   23.4300   36.1750 C.2   135  PHE135      0.2596
    104  O         19.4760   23.2630   35.0670 O.2   135  PHE135     -0.2718
    105  CB        21.9000   21.9070   36.3630 C.3   135  PHE135      0.0547
    106  CG        23.3640   21.8460   36.2490 C.ar  135  PHE135     -0.0202
    107  CD1       23.9920   22.2630   35.0710 C.ar  135  PHE135     -0.0042
    108  CD2       24.1370   21.5020   37.3440 C.ar  135  PHE135     -0.0042
    109  CE1       25.3570   22.2550   34.9710 C.ar  135  PHE135     -0.0003
    110  CE2       25.5080   21.4780   37.2380 C.ar  135  PHE135     -0.0003
    111  CZ        26.1150   21.8620   36.0570 C.ar  135  PHE135     -0.0000
    112  N         19.2110   23.7530   37.2300 N.am  136  GLY136     -0.1957
    113  CA        17.7970   24.0400   37.0650 C.3   136  GLY136      0.1869
    114  C         17.6440   25.1890   36.0880 C.2   136  GLY136      0.2309
    115  O         16.9300   25.0750   35.0900 O.2   136  GLY136     -0.2863
    116  N         18.2370   24.3830   32.3330 N.3   139  LEU139     -0.1245
    117  CA        17.0850   23.7120   31.6500 C.3   139  LEU139      0.1561
    118  C         15.9870   24.7290   31.3830 C.2   139  LEU139      0.2260
    119  O         15.5240   24.8580   30.2700 O.2   139  LEU139     -0.2867
    120  CB        16.4900   22.5680   32.4730 C.3   139  LEU139      0.0270
    121  CG        17.4690   21.4320   32.7530 C.3   139  LEU139      0.0019
    122  CD1       16.9190   20.5030   33.8240 C.3   139  LEU139      0.0001
    123  CD2       17.7930   20.6900   31.4550 C.3   139  LEU139      0.0001
@<TRIPOS>BOND
     1   119   118    2
     2   118   117    1
     3   123   121    1
     4   117   116    1
     5   117   120    1
     6   120   121    1
     7   121   122    1
     8    34    33    2
     9    30    29    2
    10    33    32    1
    11    29    28    1
    12    28    27    1
    13    32    31    1
    14    32    35    1
    15   109   107   ar
    16   109   111   ar
    17   104   103    2
    18   107   106   ar
    19   115   114    2
    20    36    35    1
    21    36    37    1
    22    36    38    1
    23    27    21   am
    24   111   110   ar
    25   114   113    1
    26   103   102    1
    27   103   112   am
    28   106   105    1
    29   106   108   ar
    30   105   102    1
    31   102   101    1
    32    17    16   ar
    33    22    21    2
    34    21    20    1
    35    13    12    2
    36   113   112    1
    37    12    11    1
    38    39    40    1
    39   110   108   ar
    40    45    47   ar
    41    45    44   ar
    42    19    20    1
    43    16    15    1
    44    16    18   ar
    45    40    43    1
    46    40    41    1
    47    15    14    1
    48    43    44    1
    49    47    49   ar
    50    20    23    1
    51    62    60    1
    52    44    46   ar
    53    11    14    1
    54    11    10    1
    55    41    42    2
    56    23    25    1
    57    23    24    1
    58    99    98    2
    59    10     3   am
    60    49    50    1
    61    49    48   ar
    62     4     3    2
    63     3     2    1
    64     1     2    1
    65    61    60    1
    66    60    57    1
    67    46    48   ar
    68    90    89    2
    69    51    52    1
    70    98    97    1
    71     2     5    1
    72    57    56    1
    73    57    58    1
    74    24    26    1
    75    52    55    1
    76    52    53    1
    77    89    88    1
    78    89    96   am
    79    97    96    1
    80    97   100    1
    81    77    76    1
    82    58    59    2
    83    58    63   am
    84    88    87    1
    85    88    91    1
    86     5     6    1
    87    53    54    2
    88    72    73    1
    89    95    94    1
    90     6     7    1
    91    92    91    1
    92    92    93    1
    93    73    76    1
    94    73    74    1
    95    63    64    1
    96    76    78    1
    97    94    93    1
    98     7     8   ar
    99     7     9   ar
   100    74    75    2
   101    74    79   am
   102    64    65    1
   103    64    67    1
   104    65    66    2
   105    79    80    1
   106    67    68    1
   107    81    80    1
   108    81    82    2
   109    80    83    1
   110    68    69    1
   111    83    84    1
   112    85    84   ar
   113    69    70    1
   114    84    86   ar
   115    71    70    1
