@<TRIPOS>MOLECULE
tmp/3v09A01.pdb
 99 91 0 0 0
SMALL
GASTEIGER

@<TRIPOS>ATOM
      1  N         34.4480   35.4440    0.3640 N.3   398  LEU398     -0.1245
      2  CA        34.0550   36.6020    1.1750 C.3   398  LEU398      0.1561
      3  C         34.3730   36.4470    2.6660 C.2   398  LEU398      0.2260
      4  O         34.5490   37.4310    3.3470 O.2   398  LEU398     -0.2867
      5  CB        32.5480   36.8770    1.0120 C.3   398  LEU398      0.0270
      6  CG        32.0190   37.2990   -0.3680 C.3   398  LEU398      0.0019
      7  CD1       30.4960   37.4780   -0.3430 C.3   398  LEU398      0.0001
      8  CD2       32.6800   38.5580   -0.9380 C.3   398  LEU398      0.0001
      9  N         31.6620   37.1440    7.7910 N.3   401  TYR401     -0.1227
     10  CA        30.9440   38.4050    7.8620 C.3   401  TYR401      0.1736
     11  C         30.3300   38.8100    6.5070 C.2   401  TYR401      0.2595
     12  O         29.1560   39.1030    6.4290 O.2   401  TYR401     -0.2718
     13  CB        31.8770   39.5210    8.3500 C.3   401  TYR401      0.0548
     14  CG        31.2340   40.8670    8.6030 C.ar  401  TYR401     -0.0200
     15  CD1       30.0790   41.0010    9.3630 C.ar  401  TYR401     -0.0009
     16  CD2       31.8330   42.0260    8.1040 C.ar  401  TYR401     -0.0009
     17  CE1       29.5270   42.2630    9.6070 C.ar  401  TYR401      0.0417
     18  CE2       31.2990   43.2680    8.3340 C.ar  401  TYR401      0.0417
     19  CZ        30.1570   43.3900    9.0690 C.ar  401  TYR401      0.1957
     20  OH        29.6810   44.6620    9.2540 O.3   401  TYR401     -0.2866
     21  N         31.1100   38.8160    5.4360 N.am  402  ASN402     -0.1974
     22  CA        30.5900   39.3630    4.1470 C.3   402  ASN402      0.1688
     23  C         29.6710   38.3870    3.3710 C.2   402  ASN402      0.2292
     24  O         28.8810   38.7790    2.5150 O.2   402  ASN402     -0.2864
     25  CB        31.7360   39.9010    3.2750 C.3   402  ASN402      0.1181
     26  CG        31.9970   41.3820    3.5070 C.2   402  ASN402      0.2629
     27  OD1       31.0830   42.1400    3.8510 O.2   402  ASN402     -0.2716
     28  ND2       33.2370   41.8090    3.2820 N.am  402  ASN402     -0.0877
     29  N         26.5570   39.2240    5.0290 N.3   405  ASN405     -0.1225
     30  CA        26.0660   40.4520    4.4160 C.3   405  ASN405      0.1785
     31  C         25.4910   40.2060    3.0140 C.2   405  ASN405      0.2597
     32  O         24.4410   40.7330    2.6980 O.2   405  ASN405     -0.2718
     33  CB        27.1360   41.5040    4.3510 C.3   405  ASN405      0.1169
     34  CG        27.6430   41.8990    5.7050 C.2   405  ASN405      0.2627
     35  OD1       26.9410   41.7990    6.6970 O.2   405  ASN405     -0.2716
     36  ND2       28.8740   42.3770    5.7460 N.am  405  ASN405     -0.0877
     37  N         26.1460   39.3960    2.1920 N.am  406  ALA406     -0.1979
     38  CA        25.5730   39.0430    0.8920 C.3   406  ALA406      0.1597
     39  C         24.1770   38.4120    1.0660 C.2   406  ALA406      0.2287
     40  O         23.2050   38.8240    0.3870 O.2   406  ALA406     -0.2864
     41  CB        26.5030   38.1280    0.0840 C.3   406  ALA406      0.0319
     42  N         21.4810   40.8970    2.1060 N.3   409  VAL409     -0.1245
     43  CA        21.0030   41.7300    0.9710 C.3   409  VAL409      0.1561
     44  C         20.1110   40.8960    0.0660 C.2   409  VAL409      0.2260
     45  O         18.9930   41.2940   -0.2290 O.2   409  VAL409     -0.2867
     46  CB        22.1490   42.3580    0.1860 C.3   409  VAL409      0.0252
     47  CG1       21.6330   42.9940   -1.1120 C.3   409  VAL409      0.0019
     48  CG2       22.8660   43.3950    1.0450 C.3   409  VAL409      0.0019
     49  N         22.0300   47.5480    7.8160 N.3   529  LEU529     -0.1245
     50  CA        22.0970   47.0930    6.4140 C.3   529  LEU529      0.1561
     51  C         20.7780   46.6010    5.8790 C.2   529  LEU529      0.2260
     52  O         20.3970   46.9770    4.7960 O.2   529  LEU529     -0.2867
     53  CB        23.1440   46.0040    6.2650 C.3   529  LEU529      0.0270
     54  CG        23.2270   45.2430    4.9490 C.3   529  LEU529      0.0019
     55  CD1       23.5120   46.2270    3.8330 C.3   529  LEU529      0.0001
     56  CD2       24.2890   44.1580    5.1280 C.3   529  LEU529      0.0001
     57  N         26.2430   47.2960   -3.7160 N.3   541  ASN541     -0.1240
     58  CA        27.1430   46.8810   -2.6440 C.3   541  ASN541      0.1653
     59  C         28.0960   47.9780   -2.1820 C.2   541  ASN541      0.2266
     60  O         28.2870   48.1560   -0.9790 O.2   541  ASN541     -0.2867
     61  CB        27.9150   45.6260   -3.0490 C.3   541  ASN541      0.1155
     62  CG        27.0610   44.3710   -2.9780 C.2   541  ASN541      0.2627
     63  OD1       25.9040   44.4090   -2.5700 O.2   541  ASN541     -0.2716
     64  ND2       27.6440   43.2490   -3.3520 N.am  541  ASN541     -0.0877
     65  N         26.0940   50.4160   -0.1100 N.3   544  LEU544     -0.1231
     66  CA        25.8090   49.8050    1.1790 C.3   544  LEU544      0.1693
     67  C         27.1060   49.7850    2.0050 C.2   544  LEU544      0.2591
     68  O         27.1350   50.2770    3.1350 O.2   544  LEU544     -0.2718
     69  CB        25.1940   48.4280    0.9570 C.3   544  LEU544      0.0284
     70  CG        23.8200   48.4580    0.2720 C.3   544  LEU544      0.0019
     71  CD1       23.3650   47.0860   -0.1890 C.3   544  LEU544      0.0001
     72  CD2       22.7810   49.0970    1.1740 C.3   544  LEU544      0.0001
     73  N         28.1960   49.3320    1.3880 N.am  545  LYS545     -0.1980
     74  CA        29.5190   49.3610    1.9910 C.3   545  LYS545      0.1596
     75  C         29.9890   50.7140    2.5050 C.2   545  LYS545      0.2287
     76  O         30.6290   50.7520    3.5570 O.2   545  LYS545     -0.2864
     77  CB        30.5650   48.8130    1.0230 C.3   545  LYS545      0.0298
     78  CG        30.4810   47.3110    0.8340 C.3   545  LYS545      0.0038
     79  CD        31.5550   46.7640   -0.0940 C.3   545  LYS545      0.0206
     80  CE        31.3320   45.2720   -0.3360 C.3   545  LYS545      0.1093
     81  NZ        30.8210   44.5120    0.8590 N.3   545  LYS545     -0.1314
     82  N         27.6820   51.5320    5.6700 N.3   548  VAL548     -0.1231
     83  CA        28.0190   50.6530    6.8180 C.3   548  VAL548      0.1692
     84  C         29.4820   50.8460    7.1810 C.2   548  VAL548      0.2592
     85  O         29.8560   50.8540    8.3600 O.2   548  VAL548     -0.2718
     86  CB        27.7470   49.1630    6.5260 C.3   548  VAL548      0.0266
     87  CG1       28.3580   48.2690    7.6040 C.3   548  VAL548      0.0020
     88  CG2       26.2460   48.9130    6.4070 C.3   548  VAL548      0.0020
     89  N         30.3110   51.0310    6.1600 N.am  549  GLY549     -0.1957
     90  CA        31.6570   51.5480    6.3790 C.3   549  GLY549      0.1869
     91  C         31.6460   52.8120    7.2290 C.2   549  GLY549      0.2309
     92  O         32.4500   52.9410    8.1380 O.2   549  GLY549     -0.2863
     93  N         30.5780   51.7830   10.8160 N.3   552  THR552     -0.1218
     94  CA        31.7940   51.1880   11.3860 C.3   552  THR552      0.1862
     95  C         32.7190   52.2680   11.9180 C.2   552  THR552      0.2287
     96  O         33.1030   52.2260   13.0820 O.2   552  THR552     -0.2866
     97  CB        32.5960   50.3680   10.3330 C.3   552  THR552      0.1770
     98  OG1       31.8100   49.2650    9.8590 O.3   552  THR552     -0.2211
     99  CG2       33.8960   49.8560   10.9220 C.3   552  THR552      0.0375
@<TRIPOS>BOND
     1    57    58    1
     2    64    62   am
     3    61    62    1
     4    61    58    1
     5    62    63    2
     6    58    59    1
     7    59    60    2
     8    47    46    1
     9     8     6    1
    10     6     7    1
    11     6     5    1
    12    80    79    1
    13    80    81    1
    14    45    44    2
    15    71    70    1
    16    65    66    1
    17    79    78    1
    18    44    43    1
    19    41    38    1
    20    46    43    1
    21    46    48    1
    22    70    69    1
    23    70    72    1
    24     1     2    1
    25    40    39    2
    26    78    77    1
    27    38    39    1
    28    38    37    1
    29    69    66    1
    30    43    42    1
    31     5     2    1
    32    77    74    1
    33     2     3    1
    34    66    67    1
    35    73    74    1
    36    73    67   am
    37    74    75    1
    38    67    68    2
    39    37    31   am
    40    75    76    2
    41    24    23    2
    42     3     4    2
    43    32    31    2
    44    31    30    1
    45    25    26    1
    46    25    22    1
    47    28    26   am
    48    23    22    1
    49    26    27    2
    50    55    54    1
    51    22    21    1
    52    33    30    1
    53    33    34    1
    54    30    29    1
    55    52    51    2
    56    54    56    1
    57    54    53    1
    58    21    11   am
    59    82    83    1
    60    34    36   am
    61    34    35    2
    62    51    50    1
    63    89    90    1
    64    89    84   am
    65    53    50    1
    66    90    91    1
    67    88    86    1
    68    50    49    1
    69    12    11    2
    70    11    10    1
    71    86    83    1
    72    86    87    1
    73    83    84    1
    74    84    85    2
    75    91    92    2
    76     9    10    1
    77    10    13    1
    78    16    18   ar
    79    16    14   ar
    80    18    19   ar
    81    13    14    1
    82    14    15   ar
    83    19    20    1
    84    19    17   ar
    85    15    17   ar
    86    98    97    1
    87    97    99    1
    88    97    94    1
    89    93    94    1
    90    94    95    1
    91    95    96    2
