@<TRIPOS>MOLECULE
tmp/3v09A00.pdb
 150 140 0 0 0
SMALL
GASTEIGER

@<TRIPOS>ATOM
      1  N         24.0060   24.7900   -6.5950 N.3   387  LEU387     -0.1231
      2  CA        23.7280   25.7070   -5.5150 C.3   387  LEU387      0.1693
      3  C         24.8870   25.6280   -4.5230 C.2   387  LEU387      0.2591
      4  O         25.5050   26.6470   -4.1540 O.2   387  LEU387     -0.2718
      5  CB        22.4100   25.2750   -4.8790 C.3   387  LEU387      0.0284
      6  CG        21.7140   26.0300   -3.7550 C.3   387  LEU387      0.0019
      7  CD1       22.5500   25.9540   -2.5020 C.3   387  LEU387      0.0001
      8  CD2       21.4120   27.4510   -4.2130 C.3   387  LEU387      0.0001
      9  N         25.2180   24.4060   -4.1400 N.am  388  VAL388     -0.1980
     10  CA        26.3000   24.1710   -3.1840 C.3   388  VAL388      0.1595
     11  C         27.6460   24.6260   -3.7120 C.2   388  VAL388      0.2287
     12  O         28.3960   25.3630   -3.0540 O.2   388  VAL388     -0.2864
     13  CB        26.3760   22.6790   -2.8800 C.3   388  VAL388      0.0276
     14  CG1       27.6700   22.3000   -2.1550 C.3   388  VAL388      0.0022
     15  CG2       25.1280   22.3020   -2.1120 C.3   388  VAL388      0.0022
     16  N         27.5940   28.6990   -3.9440 N.3   391  ASN391     -0.1225
     17  CA        27.5790   29.3760   -2.6760 C.3   391  ASN391      0.1785
     18  C         28.8300   29.0950   -1.8290 C.2   391  ASN391      0.2597
     19  O         29.3270   30.0190   -1.1590 O.2   391  ASN391     -0.2718
     20  CB        26.2820   29.1350   -1.9290 C.3   391  ASN391      0.1169
     21  CG        25.1280   29.8650   -2.5680 C.2   391  ASN391      0.2627
     22  OD1       24.9450   31.0980   -2.3700 O.2   391  ASN391     -0.2716
     23  ND2       24.3530   29.1240   -3.3990 N.am  391  ASN391     -0.0877
     24  N         29.3590   27.8670   -1.8790 N.am  392  CYS392     -0.1970
     25  CA        30.6390   27.6030   -1.1920 C.3   392  CYS392      0.1712
     26  C         31.7870   28.3840   -1.8040 C.2   392  CYS392      0.2296
     27  O         32.5990   28.9420   -1.0720 O.2   392  CYS392     -0.2864
     28  CB        30.9740   26.1330   -1.1400 C.3   392  CYS392      0.0983
     29  SG        29.9480   25.2390    0.0530 S.3   392  CYS392     -0.0798
     30  N         29.7930   37.1280    3.7040 N.3   403  PHE403     -0.1241
     31  CA        28.8790   36.1010    3.2560 C.3   403  PHE403      0.1605
     32  C         27.5060   36.2900    3.9110 C.2   403  PHE403      0.2264
     33  O         26.4770   36.2600    3.2190 O.2   403  PHE403     -0.2867
     34  CB        29.4290   34.7200    3.5930 C.3   403  PHE403      0.0534
     35  CG        28.6710   33.6150    2.9340 C.ar  403  PHE403     -0.0203
     36  CD1       28.5980   33.5640    1.5610 C.ar  403  PHE403     -0.0042
     37  CD2       28.0210   32.6600    3.6650 C.ar  403  PHE403     -0.0042
     38  CE1       27.9300   32.5520    0.9140 C.ar  403  PHE403     -0.0003
     39  CE2       27.3350   31.6430    3.0250 C.ar  403  PHE403     -0.0003
     40  CZ        27.2760   31.6000    1.6380 C.ar  403  PHE403     -0.0000
     41  N         24.0360   37.4660    1.9950 N.3   407  LEU407     -0.1245
     42  CA        22.7560   36.7610    2.1480 C.3   407  LEU407      0.1561
     43  C         21.6800   37.6470    2.7240 C.2   407  LEU407      0.2260
     44  O         20.4800   37.4850    2.4060 O.2   407  LEU407     -0.2867
     45  CB        22.9210   35.5300    3.0290 C.3   407  LEU407      0.0270
     46  CG        23.7700   34.4470    2.4340 C.3   407  LEU407      0.0019
     47  CD1       23.8220   33.2430    3.3680 C.3   407  LEU407      0.0001
     48  CD2       23.2720   34.0830    1.0490 C.3   407  LEU407      0.0001
     49  N         20.5700   39.7020   -0.2820 N.3   410  ARG410     -0.1231
     50  CA        19.8210   38.7920   -1.1320 C.3   410  ARG410      0.1694
     51  C         18.4370   38.4410   -0.5240 C.2   410  ARG410      0.2592
     52  O         17.4240   38.4930   -1.2190 O.2   410  ARG410     -0.2718
     53  CB        20.6160   37.4990   -1.3370 C.3   410  ARG410      0.0321
     54  CG        19.9960   36.4890   -2.3280 C.3   410  ARG410      0.0489
     55  CD        20.6420   35.1200   -2.2420 C.3   410  ARG410      0.2205
     56  NE        22.0250   35.1800   -2.7530 N.pl3 410  ARG410     -0.0865
     57  CZ        22.8970   34.1730   -2.8140 C.cat 410  ARG410      0.5346
     58  NH1       24.0940   34.3880   -3.2950 N.pl3 410  ARG410      0.1354
     59  NH2       22.5600   32.9660   -2.3760 N.pl3 410  ARG410      0.1354
     60  N         18.3880   38.0570    0.7450 N.am  411  TYR411     -0.1976
     61  CA        17.1110   37.7180    1.3510 C.3   411  TYR411      0.1639
     62  C         16.1980   38.9210    1.5890 C.2   411  TYR411      0.2290
     63  O         14.9670   38.8230    1.4480 O.2   411  TYR411     -0.2864
     64  CB        17.2900   36.8620    2.6160 C.3   411  TYR411      0.0560
     65  CG        17.2250   35.4440    2.2290 C.ar  411  TYR411     -0.0198
     66  CD1       18.2480   34.8560    1.4920 C.ar  411  TYR411     -0.0009
     67  CD2       16.0850   34.7050    2.4740 C.ar  411  TYR411     -0.0009
     68  CE1       18.1600   33.5300    1.0600 C.ar  411  TYR411      0.0417
     69  CE2       15.9660   33.3820    2.0450 C.ar  411  TYR411      0.0417
     70  CZ        16.9950   32.7910    1.3560 C.ar  411  TYR411      0.1957
     71  OH        16.8360   31.4650    0.9610 O.3   411  TYR411     -0.2866
     72  N         14.3670   39.4170   -1.6210 N.3   414  LYS414     -0.1245
     73  CA        13.4130   38.3890   -2.0390 C.3   414  LYS414      0.1561
     74  C         12.1510   38.5980   -1.2700 C.2   414  LYS414      0.2260
     75  O         11.1170   38.5160   -1.8410 O.2   414  LYS414     -0.2867
     76  CB        13.8490   36.9490   -1.7080 C.3   414  LYS414      0.0271
     77  CG        14.9680   36.3250   -2.4830 C.3   414  LYS414      0.0035
     78  CD        15.3810   35.0530   -1.7380 C.3   414  LYS414      0.0206
     79  CE        16.5830   34.3730   -2.3590 C.3   414  LYS414      0.1093
     80  NZ        16.2350   33.5430   -3.5220 N.3   414  LYS414     -0.1314
     81  N         21.9160   31.2650    7.7920 N.3   430  LEU430     -0.1245
     82  CA        22.2940   30.7270    6.4790 C.3   430  LEU430      0.1561
     83  C         23.7880   30.8960    6.2860 C.2   430  LEU430      0.2260
     84  O         24.4520   30.0080    5.7930 O.2   430  LEU430     -0.2867
     85  CB        21.5780   31.4480    5.3230 C.3   430  LEU430      0.0270
     86  CG        20.0600   31.3030    5.2130 C.3   430  LEU430      0.0019
     87  CD1       19.4640   32.4310    4.3510 C.3   430  LEU430      0.0001
     88  CD2       19.6700   29.9240    4.6930 C.3   430  LEU430      0.0001
     89  N         25.6330   28.1290    7.6460 N.3   433  VAL433     -0.1231
     90  CA        25.6650   26.8820    6.8480 C.3   433  VAL433      0.1692
     91  C         26.9890   26.7680    6.0670 C.2   433  VAL433      0.2592
     92  O         27.6250   25.7090    6.0560 O.2   433  VAL433     -0.2718
     93  CB        24.4180   26.7080    5.9670 C.3   433  VAL433      0.0266
     94  CG1       24.4590   25.3790    5.1830 C.3   433  VAL433      0.0020
     95  CG2       23.1840   26.7510    6.8500 C.3   433  VAL433      0.0020
     96  N         27.4450   27.8800    5.4900 N.am  434  GLY434     -0.1957
     97  CA        28.7260   27.9090    4.8000 C.3   434  GLY434      0.1869
     98  C         29.8730   27.4460    5.6520 C.2   434  GLY434      0.2309
     99  O         30.5740   26.4830    5.3200 O.2   434  GLY434     -0.2863
    100  N         24.7440   20.5790    3.5790 N.3   449  VAL449     -0.1245
    101  CA        24.2310   21.8890    3.2610 C.3   449  VAL449      0.1561
    102  C         22.6830   21.9040    3.1850 C.2   449  VAL449      0.2260
    103  O         22.0240   22.6760    3.8620 O.2   449  VAL449     -0.2867
    104  CB        24.7860   22.4450    1.9390 C.3   449  VAL449      0.0252
    105  CG1       24.1000   23.7660    1.6230 C.3   449  VAL449      0.0019
    106  CG2       26.3030   22.5920    1.9530 C.3   449  VAL449      0.0019
    107  N         20.0780   23.7990    5.4840 N.3   453  LEU453     -0.1245
    108  CA        19.1140   24.7850    4.9560 C.3   453  LEU453      0.1561
    109  C         17.6570   24.5000    5.3240 C.2   453  LEU453      0.2260
    110  O         16.8630   25.4330    5.6200 O.2   453  LEU453     -0.2867
    111  CB        19.1710   24.8950    3.4390 C.3   453  LEU453      0.0270
    112  CG        20.4000   25.6180    2.9070 C.3   453  LEU453      0.0019
    113  CD1       20.3090   25.5700    1.3910 C.3   453  LEU453      0.0001
    114  CD2       20.5470   27.0470    3.4100 C.3   453  LEU453      0.0001
    115  N         15.3380   27.2880    7.1730 N.3   457  LEU457     -0.1245
    116  CA        14.2270   27.8420    6.4550 C.3   457  LEU457      0.1561
    117  C         12.9930   27.5460    7.2620 C.2   457  LEU457      0.2260
    118  O         12.0730   28.3710    7.2640 O.2   457  LEU457     -0.2867
    119  CB        14.1170   27.2880    5.0070 C.3   457  LEU457      0.0270
    120  CG        15.1450   27.8990    3.9980 C.3   457  LEU457      0.0019
    121  CD1       15.1240   27.1500    2.6400 C.3   457  LEU457      0.0001
    122  CD2       14.9110   29.3880    3.7770 C.3   457  LEU457      0.0001
    123  N         13.2580   24.4600   -0.1280 N.3   485  ARG485     -0.1245
    124  CA        14.5330   25.0750   -0.4280 C.3   485  ARG485      0.1563
    125  C         14.5950   25.5110   -1.8960 C.2   485  ARG485      0.2260
    126  O         14.9370   26.6660   -2.1780 O.2   485  ARG485     -0.2867
    127  CB        15.6600   24.1250   -0.0460 C.3   485  ARG485      0.0307
    128  CG        17.0090   24.7830    0.1600 C.3   485  ARG485      0.0489
    129  CD        17.7300   24.9640   -1.1570 C.3   485  ARG485      0.2205
    130  NE        17.6950   23.7500   -1.9890 N.pl3 485  ARG485     -0.0865
    131  CZ        17.7690   23.7190   -3.3220 C.cat 485  ARG485      0.5346
    132  NH1       17.8670   24.8600   -4.0200 N.pl3 485  ARG485      0.1354
    133  NH2       17.7350   22.5470   -3.9750 N.pl3 485  ARG485      0.1354
    134  N         12.4580   28.6200   -2.2380 N.3   488  PHE488     -0.1227
    135  CA        13.1110   29.8510   -1.7780 C.3   488  PHE488      0.1736
    136  C         14.2510   30.2840   -2.6740 C.2   488  PHE488      0.2596
    137  O         14.4180   31.4820   -2.8770 O.2   488  PHE488     -0.2718
    138  CB        13.5900   29.7620   -0.3440 C.3   488  PHE488      0.0547
    139  CG        12.5110   30.0250    0.6740 C.ar  488  PHE488     -0.0202
    140  CD1       12.1690   31.3130    1.0080 C.ar  488  PHE488     -0.0042
    141  CD2       11.8650   28.9640    1.3390 C.ar  488  PHE488     -0.0042
    142  CE1       11.1870   31.5670    1.9910 C.ar  488  PHE488     -0.0003
    143  CE2       10.8990   29.2100    2.3320 C.ar  488  PHE488     -0.0003
    144  CZ        10.5490   30.5180    2.6460 C.ar  488  PHE488     -0.0000
    145  N         15.0310   29.3220   -3.1840 N.am  489  SER489     -0.1952
    146  CA        16.1540   29.6360   -4.0760 C.3   489  SER489      0.1924
    147  C         15.6760   30.2590   -5.3940 C.2   489  SER489      0.2314
    148  O         16.3830   31.1040   -5.9690 O.2   489  SER489     -0.2863
    149  CB        16.9930   28.3790   -4.3920 C.3   489  SER489      0.2116
    150  OG        17.5390   27.7530   -3.2320 O.3   489  SER489     -0.2180
@<TRIPOS>BOND
     1     1     2    1
     2   148   147    2
     3     2     5    1
     4     2     3    1
     5   147   146    1
     6     5     6    1
     7     3     4    2
     8     3     9   am
     9   149   146    1
    10   149   150    1
    11     8     6    1
    12     9    10    1
    13   146   145    1
    14   132   131    1
    15   133   131    1
    16    16    17    1
    17     6     7    1
    18    11    10    1
    19    11    12    2
    20    80    79    1
    21    23    21   am
    22   131   130    2
    23    58    57    1
    24    10    13    1
    25   145   136   am
    26    13    14    1
    27    13    15    1
    28   137   136    2
    29    57    56    2
    30    57    59    1
    31    56    55    1
    32    17    20    1
    33    17    18    1
    34   136   135    1
    35    21    22    2
    36    21    20    1
    37    77    78    1
    38    77    76    1
    39    79    78    1
    40    54    55    1
    41    54    53    1
    42   134   135    1
    43   126   125    2
    44    73    76    1
    45    73    72    1
    46    73    74    1
    47   130   129    1
    48   125   124    1
    49    24    18   am
    50    24    25    1
    51    75    74    2
    52    18    19    2
    53    26    25    1
    54    26    27    2
    55   135   138    1
    56    53    50    1
    57    52    51    2
    58    25    28    1
    59   129   128    1
    60    28    29    1
    61    50    51    1
    62    50    49    1
    63    51    60   am
    64   124   123    1
    65   124   127    1
    66   138   139    1
    67   127   128    1
    68   139   140   ar
    69   139   141   ar
    70    60    61    1
    71    38    36   ar
    72    38    40   ar
    73    71    70    1
    74   140   142   ar
    75    48    46    1
    76    68    70   ar
    77    68    66   ar
    78   141   143   ar
    79    61    62    1
    80    61    64    1
    81    70    69   ar
    82   113   112    1
    83    63    62    2
    84    66    65   ar
    85    36    35   ar
    86   105   104    1
    87    40    39   ar
    88   104   106    1
    89   104   101    1
    90   142   144   ar
    91    41    42    1
    92    69    67   ar
    93    42    43    1
    94    42    45    1
    95    65    67   ar
    96    65    64    1
    97   143   144   ar
    98    44    43    2
    99    46    45    1
   100    46    47    1
   101   121   120    1
   102   112   114    1
   103   112   111    1
   104    35    34    1
   105    35    37   ar
   106    39    37   ar
   107   102   101    1
   108   102   103    2
   109    33    32    2
   110    31    34    1
   111    31    30    1
   112    31    32    1
   113   101   100    1
   114   111   108    1
   115   122   120    1
   116   120   119    1
   117    87    86    1
   118    88    86    1
   119    97    96    1
   120    97    98    1
   121   108   109    1
   122   108   107    1
   123   119   116    1
   124    94    93    1
   125    86    85    1
   126    99    98    2
   127    85    82    1
   128   109   110    2
   129    96    91   am
   130    84    83    2
   131    93    90    1
   132    93    95    1
   133    92    91    2
   134    91    90    1
   135    83    82    1
   136   116   115    1
   137   116   117    1
   138    82    81    1
   139    90    89    1
   140   117   118    2
