@<TRIPOS>MOLECULE
tmp/3v0hB00.pdb
 133 128 0 0 0
SMALL
GASTEIGER

@<TRIPOS>ATOM
      1  N         -1.5010   19.8290   -6.4150 N.3     4  LYS4       -0.1245
      2  CA        -1.7760   18.4480   -6.0170 C.3     4  LYS4        0.1561
      3  C         -3.1940   18.4360   -5.4640 C.2     4  LYS4        0.2260
      4  O         -3.5940   19.3890   -4.7800 O.2     4  LYS4       -0.2867
      5  CB        -0.7810   17.9610   -4.9610 C.3     4  LYS4        0.0271
      6  CG         0.6630   17.7700   -5.4530 C.3     4  LYS4        0.0035
      7  CD         1.5510   17.2950   -4.3100 C.3     4  LYS4        0.0206
      8  CE         3.0340   17.4620   -4.5930 C.3     4  LYS4        0.1093
      9  NZ         3.5030   16.6240   -5.7120 N.3     4  LYS4       -0.1314
     10  N         14.4550    8.4970   -2.7680 N.3    83  ASP83      -0.1225
     11  CA        13.9180    9.5860   -3.5790 C.3    83  ASP83       0.1805
     12  C         14.5040    9.5110   -4.9920 C.2    83  ASP83       0.2597
     13  O         15.7170    9.3210   -5.1510 O.2    83  ASP83      -0.2718
     14  CB        14.2740   10.9210   -2.8960 C.3    83  ASP83       0.1424
     15  CG        13.4460   12.0920   -3.3900 C.2    83  ASP83       0.3668
     16  OD1       13.6190   13.2020   -2.8260 O.co2  83  ASP83      -0.2456
     17  OD2       12.6270   11.9250   -4.3200 O.co2  83  ASP83      -0.2456
     18  N         13.6280    9.6220   -5.9960 N.am   84  HIS84      -0.1975
     19  CA        13.9900    9.5990   -7.4300 C.3    84  HIS84       0.1656
     20  C         14.4690    8.2310   -7.9180 C.2    84  HIS84       0.2291
     21  O         15.0280    8.1100   -9.0170 O.2    84  HIS84      -0.2864
     22  CB        15.0320   10.6870   -7.7820 C.3    84  HIS84       0.0771
     23  CG        14.7200   12.0370   -7.2110 C.ar   84  HIS84       0.0820
     24  ND1       15.5300   12.6550   -6.2830 N.ar   84  HIS84      -0.2267
     25  CD2       13.7010   12.8960   -7.4500 C.ar   84  HIS84       0.1154
     26  CE1       15.0200   13.8360   -5.9700 C.ar   84  HIS84       0.1986
     27  NE2       13.9070   14.0020   -6.6600 N.ar   84  HIS84      -0.2212
     28  N          4.8870    8.9430    0.4730 N.3   115  SER115     -0.1202
     29  CA         6.3170    9.0590    0.3590 C.3   115  SER115      0.2020
     30  C          6.6400   10.4440    0.8900 C.2   115  SER115      0.2619
     31  O          6.0620   10.8610    1.9040 O.2   115  SER115     -0.2717
     32  CB         6.7310    8.8860   -1.0990 C.3   115  SER115      0.2103
     33  OG         5.7910    9.5490   -1.9290 O.3   115  SER115     -0.2182
     34  N          7.5490   11.1620    0.2440 N.am  116  LYS116     -0.1965
     35  CA         7.8110   12.5400    0.6600 C.3   116  LYS116      0.1728
     36  C          6.7570   13.4530    0.0360 C.2   116  LYS116      0.2616
     37  O          6.0710   14.1880    0.7460 O.2   116  LYS116     -0.2715
     38  CB         9.2290   12.9810    0.3020 C.3   116  LYS116      0.0311
     39  CG         9.5170   14.4460    0.5890 C.3   116  LYS116      0.0038
     40  CD        10.9680   14.7750    0.2800 C.3   116  LYS116      0.0206
     41  CE        11.1940   16.2820    0.2780 C.3   116  LYS116      0.1093
     42  NZ        12.6330   16.5930    0.0160 N.3   116  LYS116     -0.1314
     43  N          6.6080   13.3790   -1.2850 N.am  117  GLY117     -0.1955
     44  CA         5.6650   14.2380   -1.9990 C.3   117  GLY117      0.1869
     45  C          4.3940   13.5610   -2.4970 C.2   117  GLY117      0.2309
     46  O          3.5050   14.2330   -3.0250 O.2   117  GLY117     -0.2863
     47  N          4.3120   11.5890   -5.0610 N.3   119  LYS119     -0.1231
     48  CA         4.4230   11.7590   -6.5120 C.3   119  LYS119      0.1693
     49  C          5.1100   10.5340   -7.1310 C.2   119  LYS119      0.2593
     50  O          4.4350    9.5400   -7.4100 O.2   119  LYS119     -0.2718
     51  CB         5.1370   13.0780   -6.8430 C.3   119  LYS119      0.0285
     52  CG         5.1970   13.4250   -8.3300 C.3   119  LYS119      0.0035
     53  CD         5.8810   14.7940   -8.5430 C.3   119  LYS119      0.0206
     54  CE         5.8370   15.1980  -10.0150 C.3   119  LYS119      0.1093
     55  NZ         6.5890   14.2410  -10.8840 N.3   119  LYS119     -0.1314
     56  N          6.4340   10.5900   -7.2930 N.am  120  GLY120     -0.1942
     57  CA         7.1800    9.5540   -7.9900 C.3   120  GLY120      0.2014
     58  C          7.1000    8.1700   -7.3670 C.2   120  GLY120      0.2639
     59  O          6.6410    7.2190   -7.9940 O.2   120  GLY120     -0.2714
     60  N          7.5620    8.0470   -6.1280 N.am  121  ARG121     -0.1963
     61  CA         7.5410    6.7470   -5.4690 C.3   121  ARG121      0.1729
     62  C          6.1150    6.2880   -5.1850 C.2   121  ARG121      0.2616
     63  O          5.7740    5.1320   -5.4200 O.2   121  ARG121     -0.2715
     64  CB         8.3720    6.7780   -4.1940 C.3   121  ARG121      0.0348
     65  CG         9.8680    6.9080   -4.4600 C.3   121  ARG121      0.0492
     66  CD        10.6060    7.1600   -3.1640 C.3   121  ARG121      0.2205
     67  NE        10.4310    8.5440   -2.7180 N.pl3 121  ARG121     -0.0865
     68  CZ        11.0130    9.0550   -1.6370 C.cat 121  ARG121      0.5346
     69  NH1       11.8080    8.2960   -0.8760 N.pl3 121  ARG121      0.1354
     70  NH2       10.8080   10.3310   -1.3250 N.pl3 121  ARG121      0.1354
     71  N          5.2810    7.1930   -4.6810 N.am  122  THR122     -0.1951
     72  CA         3.8920    6.8350   -4.3920 C.3   122  THR122      0.1897
     73  C          3.1770    6.3520   -5.6570 C.2   122  THR122      0.2313
     74  O          2.5040    5.3200   -5.6430 O.2   122  THR122     -0.2863
     75  CB         3.1440    7.9820   -3.7090 C.3   122  THR122      0.1794
     76  OG1        3.6400    8.1150   -2.3690 O.3   122  THR122     -0.2208
     77  CG2        1.6460    7.6910   -3.6550 C.3   122  THR122      0.0378
     78  N          7.0800   10.7500  -13.2940 N.3   163  GLU163     -0.1231
     79  CA         7.8270   11.2930  -14.4320 C.3   163  GLU163      0.1699
     80  C          9.2140   10.6750  -14.6450 C.2   163  GLU163      0.2592
     81  O          9.6660   10.5580  -15.7830 O.2   163  GLU163     -0.2718
     82  CB         7.9320   12.8120  -14.2990 C.3   163  GLU163      0.0402
     83  CG         6.5900   13.5150  -14.4530 C.3   163  GLU163      0.1161
     84  CD         6.6920   15.0220  -14.3970 C.2   163  GLU163      0.3649
     85  OE1        7.1100   15.5570  -13.3520 O.co2 163  GLU163     -0.2457
     86  OE2        6.3330   15.6740  -15.4050 O.co2 163  GLU163     -0.2457
     87  N          9.8990   10.2930  -13.5680 N.am  164  THR164     -0.1953
     88  CA        11.2520    9.7590  -13.7300 C.3   164  THR164      0.1897
     89  C         11.1810    8.4310  -14.4820 C.2   164  THR164      0.2313
     90  O         10.2830    7.6040  -14.2570 O.2   164  THR164     -0.2863
     91  CB        12.0500    9.6410  -12.4050 C.3   164  THR164      0.1794
     92  OG1       11.5790    8.5210  -11.6640 O.3   164  THR164     -0.2208
     93  CG2       11.8810   10.8750  -11.5690 C.3   164  THR164      0.0378
     94  N         11.0770    4.8890  -12.7610 N.3   167  GLN167     -0.1245
     95  CA         9.8250    4.6130  -12.0520 C.3   167  GLN167      0.1566
     96  C          8.7560    4.1500  -13.0440 C.2   167  GLN167      0.2260
     97  O          8.0390    3.1810  -12.7850 O.2   167  GLN167     -0.2867
     98  CB         9.3740    5.8320  -11.2570 C.3   167  GLN167      0.0367
     99  CG        10.2520    6.0890  -10.0420 C.3   167  GLN167      0.0905
    100  CD        10.0060    7.4390   -9.3960 C.2   167  GLN167      0.2608
    101  OE1        9.2900    8.2870   -9.9440 O.2   167  GLN167     -0.2717
    102  NE2       10.6300    7.6580   -8.2370 N.am  167  GLN167     -0.0878
    103  N         18.9710   14.5210  -10.8510 N.3   274  TYR274     -0.1241
    104  CA        18.7590   13.7430   -9.6450 C.3   274  TYR274      0.1605
    105  C         19.9110   12.7670   -9.4410 C.2   274  TYR274      0.2264
    106  O         20.7160   12.5300  -10.3520 O.2   274  TYR274     -0.2867
    107  CB        17.4310   12.9820   -9.7120 C.3   274  TYR274      0.0534
    108  CG        16.1990   13.8490   -9.8340 C.ar  274  TYR274     -0.0201
    109  CD1       16.0850   15.0510   -9.1270 C.ar  274  TYR274     -0.0009
    110  CD2       15.1260   13.4470  -10.6310 C.ar  274  TYR274     -0.0009
    111  CE1       14.9480   15.8370   -9.2350 C.ar  274  TYR274      0.0417
    112  CE2       13.9800   14.2270  -10.7450 C.ar  274  TYR274      0.0417
    113  CZ        13.9000   15.4200  -10.0410 C.ar  274  TYR274      0.1957
    114  OH        12.7780   16.1980  -10.1460 O.3   274  TYR274     -0.2866
    115  N         15.1940   12.6770  -19.3120 N.3   304  HIS304     -0.1226
    116  CA        13.7310   12.6510  -19.4530 C.3   304  HIS304      0.1752
    117  C         13.1020   14.0450  -19.3160 C.2   304  HIS304      0.2595
    118  O         12.0340   14.3060  -19.8780 O.2   304  HIS304     -0.2718
    119  CB        13.0970   11.6570  -18.4670 C.3   304  HIS304      0.0759
    120  CG        13.0480   12.1380  -17.0470 C.ar  304  HIS304      0.0818
    121  ND1       14.1230   12.0380  -16.1920 N.ar  304  HIS304     -0.2268
    122  CD2       12.0510   12.7180  -16.3300 C.ar  304  HIS304      0.1154
    123  CE1       13.7950   12.5310  -15.0100 C.ar  304  HIS304      0.1986
    124  NE2       12.5450   12.9570  -15.0680 N.ar  304  HIS304     -0.2212
    125  N         13.7880   14.9330  -18.5900 N.am  305  LYS305     -0.1980
    126  CA        13.3360   16.3170  -18.3960 C.3   305  LYS305      0.1596
    127  C         13.5820   17.1750  -19.6340 C.2   305  LYS305      0.2287
    128  O         14.7200   17.3200  -20.0840 O.2   305  LYS305     -0.2864
    129  CB        14.0410   16.9590  -17.1970 C.3   305  LYS305      0.0298
    130  CG        13.6920   16.3440  -15.8530 C.3   305  LYS305      0.0038
    131  CD        13.8500   17.3730  -14.7370 C.3   305  LYS305      0.0206
    132  CE        13.3570   16.8000  -13.4060 C.3   305  LYS305      0.1093
    133  NZ        13.5090   17.7690  -12.2940 N.3   305  LYS305     -0.1314
@<TRIPOS>BOND
     1   128   127    2
     2   118   117    2
     3   127   126    1
     4   116   117    1
     5   116   115    1
     6   116   119    1
     7   117   125   am
     8   125   126    1
     9   119   120    1
    10   126   129    1
    11   129   130    1
    12   120   122   ar
    13   120   121   ar
    14   122   124   ar
    15   121   123   ar
    16   130   131    1
    17    81    80    2
    18    86    84   ar
    19   124   123   ar
    20   131   132    1
    21    80    79    1
    22    80    87   am
    23    89    90    2
    24    89    88    1
    25    83    84    1
    26    83    82    1
    27    79    82    1
    28    79    78    1
    29    84    85   ar
    30    88    87    1
    31    88    91    1
    32   132   133    1
    33    96    97    2
    34    96    95    1
    35    94    95    1
    36    91    92    1
    37    91    93    1
    38    95    98    1
    39    98    99    1
    40    55    54    1
    41   103   104    1
    42   112   110   ar
    43   112   113   ar
    44   110   108   ar
    45   106   105    2
    46   114   113    1
    47    99   100    1
    48   113   111   ar
    49    54    53    1
    50   101   100    2
    51   108   107    1
    52   108   109   ar
    53   107   104    1
    54   104   105    1
    55   100   102   am
    56   111   109   ar
    57    21    20    2
    58    53    52    1
    59    52    51    1
    60    59    58    2
    61    57    58    1
    62    57    56    1
    63    20    19    1
    64    22    19    1
    65    22    23    1
    66    25    23   ar
    67    25    27   ar
    68    19    18    1
    69    50    49    2
    70    58    60   am
    71    56    49   am
    72    23    24   ar
    73    49    48    1
    74    51    48    1
    75    27    26   ar
    76    48    47    1
    77     1     2    1
    78    24    26   ar
    79    60    61    1
    80     2     3    1
    81     2     5    1
    82    18    12   am
    83     9     8    1
    84    73    74    2
    85    73    72    1
    86    61    62    1
    87    61    64    1
    88     3     4    2
    89     6     5    1
    90     6     7    1
    91    63    62    2
    92    62    71   am
    93    13    12    2
    94    12    11    1
    95    71    72    1
    96     8     7    1
    97    65    64    1
    98    65    66    1
    99    72    75    1
   100    17    15   ar
   101    75    77    1
   102    75    76    1
   103    11    14    1
   104    11    10    1
   105    15    14    1
   106    15    16   ar
   107    66    67    1
   108    46    45    2
   109    67    68    2
   110    45    44    1
   111    44    43    1
   112    33    32    1
   113    68    70    1
   114    68    69    1
   115    43    36   am
   116    32    29    1
   117    42    41    1
   118    36    35    1
   119    36    37    2
   120    34    35    1
   121    34    30   am
   122    41    40    1
   123    40    39    1
   124    38    39    1
   125    38    35    1
   126    29    28    1
   127    29    30    1
   128    30    31    2
