@<TRIPOS>MOLECULE
tmp/3v0lA00.pdb
 150 149 0 0 0
SMALL
GASTEIGER

@<TRIPOS>ATOM
      1  N         17.3970  -26.0810   -1.9670 N.3    57  PHE57      -0.1227
      2  CA        17.7390  -26.6430   -3.2860 C.3    57  PHE57       0.1736
      3  C         18.7650  -25.7700   -3.9380 C.2    57  PHE57       0.2595
      4  O         18.6520  -24.5280   -3.9430 O.2    57  PHE57      -0.2718
      5  CB        16.4630  -26.7400   -4.1270 C.3    57  PHE57       0.0547
      6  CG        15.5550  -27.8220   -3.6110 C.ar   57  PHE57      -0.0202
      7  CD1       14.9640  -27.7070   -2.3690 C.ar   57  PHE57      -0.0042
      8  CD2       15.3920  -28.9930   -4.3470 C.ar   57  PHE57      -0.0042
      9  CE1       14.1560  -28.7300   -1.8690 C.ar   57  PHE57      -0.0003
     10  CE2       14.6220  -30.0280   -3.8610 C.ar   57  PHE57      -0.0003
     11  CZ        13.9880  -29.9010   -2.6450 C.ar   57  PHE57      -0.0000
     12  N         19.7620  -26.3950   -4.5170 N.am   58  ALA58      -0.1966
     13  CA        20.7700  -25.6380   -5.2120 C.3    58  ALA58       0.1728
     14  C         21.1560  -26.4230   -6.4680 C.2    58  ALA58       0.2616
     15  O         22.0990  -27.1960   -6.4630 O.2    58  ALA58      -0.2715
     16  CB        21.9940  -25.3980   -4.2940 C.3    58  ALA58       0.0334
     17  N         20.3780  -26.2060   -7.5260 N.am   59  ILE59      -0.1963
     18  CA        20.5530  -26.9800   -8.7480 C.3    59  ILE59       0.1727
     19  C         21.1040  -26.0380   -9.8060 C.2    59  ILE59       0.2616
     20  O         20.7950  -24.8250   -9.7960 O.2    59  ILE59      -0.2715
     21  CB        19.1930  -27.5990   -9.1800 C.3    59  ILE59       0.0290
     22  CG1       18.8610  -28.7920   -8.2760 C.3    59  ILE59       0.0022
     23  CG2       19.2440  -28.0440  -10.6410 C.3    59  ILE59       0.0023
     24  CD1       17.3740  -28.8640   -7.8400 C.3    59  ILE59       0.0001
     25  N         21.9520  -26.5830  -10.6950 N.am   60  LYS60      -0.1977
     26  CA        22.6040  -25.8150  -11.7690 C.3    60  LYS60       0.1596
     27  C         23.4570  -24.6960  -11.1530 C.2    60  LYS60       0.2287
     28  O         24.1800  -24.9360  -10.1570 O.2    60  LYS60      -0.2864
     29  CB        21.5580  -25.2970  -12.7740 C.3    60  LYS60       0.0298
     30  CG        20.5680  -26.3980  -13.1970 C.3    60  LYS60       0.0038
     31  CD        20.4010  -26.6130  -14.7030 C.3    60  LYS60       0.0206
     32  CE        20.1000  -25.3580  -15.5220 C.3    60  LYS60       0.1093
     33  NZ        20.1400  -25.6850  -17.0320 N.3    60  LYS60      -0.1314
     34  N         22.8880  -22.3750   -9.2300 N.3    62  TYR62      -0.1241
     35  CA        22.5230  -21.9070   -7.9070 C.3    62  TYR62       0.1605
     36  C         23.3860  -22.5320   -6.8150 C.2    62  TYR62       0.2264
     37  O         23.3630  -22.0870   -5.6800 O.2    62  TYR62      -0.2867
     38  CB        21.0540  -22.1920   -7.5820 C.3    62  TYR62       0.0534
     39  CG        20.1040  -21.2030   -8.2200 C.ar   62  TYR62      -0.0201
     40  CD1       19.4270  -20.2400   -7.4480 C.ar   62  TYR62      -0.0009
     41  CD2       19.9430  -21.1830   -9.6300 C.ar   62  TYR62      -0.0009
     42  CE1       18.5510  -19.2900   -8.0580 C.ar   62  TYR62       0.0417
     43  CE2       19.0800  -20.2360  -10.2340 C.ar   62  TYR62       0.0417
     44  CZ        18.4040  -19.3060   -9.4340 C.ar   62  TYR62       0.1957
     45  OH        17.5600  -18.4000  -10.0440 O.3    62  TYR62      -0.2866
     46  N         11.6510  -23.9560  -14.8050 N.3   114  TRP114     -0.1241
     47  CA        11.2900  -23.6000  -13.4140 C.3   114  TRP114      0.1605
     48  C         10.0250  -24.3030  -12.9070 C.2   114  TRP114      0.2264
     49  O         10.0030  -24.8390  -11.7860 O.2   114  TRP114     -0.2867
     50  CB        11.1380  -22.0750  -13.1800 C.3   114  TRP114      0.0550
     51  CG        10.4810  -21.7920  -11.8200 C.ar  114  TRP114      0.0003
     52  CD1        9.2410  -21.2760  -11.6050 C.ar  114  TRP114      0.0946
     53  CD2       11.0220  -22.1020  -10.5120 C.ar  114  TRP114      0.0152
     54  NE1        8.9720  -21.2260  -10.2490 N.ar  114  TRP114     -0.2442
     55  CE2       10.0420  -21.7310   -9.5560 C.ar  114  TRP114      0.0810
     56  CE3       12.2330  -22.6590  -10.0640 C.ar  114  TRP114      0.0012
     57  CZ2       10.2370  -21.8870   -8.1660 C.ar  114  TRP114      0.0191
     58  CZ3       12.4290  -22.8270   -8.6850 C.ar  114  TRP114      0.0001
     59  CH2       11.4220  -22.4300   -7.7510 C.ar  114  TRP114      0.0015
     60  N         11.2000  -27.4430  -11.6450 N.3   117  VAL117     -0.1245
     61  CA        11.9270  -27.2990  -10.3710 C.3   117  VAL117      0.1561
     62  C         10.9380  -27.0470   -9.2260 C.2   117  VAL117      0.2260
     63  O         11.0230  -27.6490   -8.1370 O.2   117  VAL117     -0.2867
     64  CB        13.0280  -26.1910  -10.3900 C.3   117  VAL117      0.0252
     65  CG1       13.5500  -25.9290   -8.9700 C.3   117  VAL117      0.0019
     66  CG2       14.1830  -26.5830  -11.3290 C.3   117  VAL117      0.0019
     67  N         10.5210  -29.3950   -5.7940 N.3   121  ARG121     -0.1245
     68  CA        10.7400  -29.0900   -4.3670 C.3   121  ARG121      0.1563
     69  C          9.5800  -29.6460   -3.5220 C.2   121  ARG121      0.2260
     70  O          9.8160  -30.3050   -2.5150 O.2   121  ARG121     -0.2867
     71  CB        10.8600  -27.5970   -4.0700 C.3   121  ARG121      0.0307
     72  CG        12.0960  -26.9830   -4.7130 C.3   121  ARG121      0.0489
     73  CD        12.5270  -25.6690   -4.0590 C.3   121  ARG121      0.2205
     74  NE        11.5330  -24.6440   -4.3170 N.pl3 121  ARG121     -0.0865
     75  CZ        11.6160  -23.3930   -3.8580 C.cat 121  ARG121      0.5346
     76  NH1       12.6370  -23.0210   -3.0820 N.pl3 121  ARG121      0.1354
     77  NH2       10.6310  -22.5370   -4.1480 N.pl3 121  ARG121      0.1354
     78  N         14.6880  -20.6940    0.1330 N.3   144  ASP144     -0.1225
     79  CA        15.4180  -20.4730   -1.1290 C.3   144  ASP144      0.1805
     80  C         16.9380  -20.3760   -0.7740 C.2   144  ASP144      0.2598
     81  O         17.3140  -19.9230    0.3340 O.2   144  ASP144     -0.2718
     82  CB        14.9850  -19.1100   -1.7300 C.3   144  ASP144      0.1424
     83  CG        13.7130  -19.2330   -2.5870 C.2   144  ASP144      0.3668
     84  OD1       12.9780  -20.2280   -2.5000 O.co2 144  ASP144     -0.2456
     85  OD2       13.4410  -18.3210   -3.3340 O.co2 144  ASP144     -0.2456
     86  N         17.7910  -20.6570   -1.7550 N.am  145  VAL145     -0.1966
     87  CA        19.2160  -20.6590   -1.5230 C.3   145  VAL145      0.1727
     88  C         19.8830  -19.3150   -1.8440 C.2   145  VAL145      0.2616
     89  O         20.9920  -19.0550   -1.3360 O.2   145  VAL145     -0.2715
     90  CB        19.9470  -21.8000   -2.3570 C.3   145  VAL145      0.0290
     91  CG1       20.0450  -21.4080   -3.8230 C.3   145  VAL145      0.0023
     92  CG2       21.3790  -22.0350   -1.7720 C.3   145  VAL145      0.0023
     93  N         19.2250  -18.4950   -2.6680 N.am  146  ASP146     -0.1971
     94  CA        19.8170  -17.1870   -3.1110 C.3   146  ASP146      0.1709
     95  C         19.6230  -16.1230   -2.0180 C.2   146  ASP146      0.2293
     96  O         19.1610  -15.0150   -2.2830 O.2   146  ASP146     -0.2864
     97  CB        19.2180  -16.7380   -4.4680 C.3   146  ASP146      0.1436
     98  CG        17.6800  -16.5340   -4.4160 C.2   146  ASP146      0.3671
     99  OD1       16.9900  -17.2300   -3.6200 O.co2 146  ASP146     -0.2456
    100  OD2       17.1280  -15.6830   -5.1500 O.co2 146  ASP146     -0.2456
    101  N          7.0600  -17.6650   -0.9530 N.3   200  GLY200     -0.1210
    102  CA         7.4430  -19.0600   -1.1200 C.3   200  GLY200      0.1956
    103  C          8.8380  -19.3870   -0.5980 C.2   200  GLY200      0.2611
    104  O          9.2080  -20.5600   -0.4970 O.2   200  GLY200     -0.2717
    105  N          9.6620  -18.3660   -0.3680 N.am  201  ALA201     -0.1979
    106  CA        11.0730  -18.5720    0.0240 C.3   201  ALA201      0.1597
    107  C         11.3640  -18.9450    1.4640 C.2   201  ALA201      0.2287
    108  O         12.5160  -19.1640    1.8150 O.2   201  ALA201     -0.2864
    109  CB        11.9200  -17.3610   -0.3600 C.3   201  ALA201      0.0319
    110  N          2.4200  -17.7390   -9.8410 N.3   233  TRP233     -0.1227
    111  CA         3.7110  -17.7290   -9.1280 C.3   233  TRP233      0.1737
    112  C          3.9930  -19.1660   -8.6420 C.2   233  TRP233      0.2595
    113  O          4.6400  -19.3800   -7.6180 O.2   233  TRP233     -0.2718
    114  CB         3.6650  -16.7510   -7.9380 C.3   233  TRP233      0.0564
    115  CG         3.8150  -15.3660   -8.4600 C.ar  233  TRP233      0.0003
    116  CD1        2.8310  -14.4510   -8.6740 C.ar  233  TRP233      0.0946
    117  CD2        5.0350  -14.7710   -8.9080 C.ar  233  TRP233      0.0152
    118  NE1        3.3670  -13.3120   -9.2510 N.ar  233  TRP233     -0.2442
    119  CE2        4.7230  -13.4830   -9.3860 C.ar  233  TRP233      0.0810
    120  CE3        6.3730  -15.2030   -8.9350 C.ar  233  TRP233      0.0012
    121  CZ2        5.6980  -12.6200   -9.8700 C.ar  233  TRP233      0.0191
    122  CZ3        7.3410  -14.3370   -9.4330 C.ar  233  TRP233      0.0001
    123  CH2        6.9950  -13.0650   -9.8920 C.ar  233  TRP233      0.0015
    124  N          3.5040  -20.1330   -9.4180 N.am  234  HIS234     -0.1961
    125  CA         3.9530  -21.5280   -9.2570 C.3   234  HIS234      0.1787
    126  C          3.7130  -22.0480   -7.8290 C.2   234  HIS234      0.2620
    127  O          2.5870  -21.9760   -7.3130 O.2   234  HIS234     -0.2715
    128  CB         5.4320  -21.5970   -9.6510 C.3   234  HIS234      0.0785
    129  CG         5.6790  -20.9830  -10.9880 C.ar  234  HIS234      0.0821
    130  ND1        5.2350  -21.5770  -12.1510 N.ar  234  HIS234     -0.2267
    131  CD2        6.2330  -19.8030  -11.3440 C.ar  234  HIS234      0.1154
    132  CE1        5.5470  -20.8050  -13.1780 C.ar  234  HIS234      0.1986
    133  NE2        6.1440  -19.7180  -12.7140 N.ar  234  HIS234     -0.2212
    134  N          4.7530  -22.5970   -7.1980 N.am  235  ASP235     -0.1957
    135  CA         4.5480  -23.1510   -5.8400 C.3   235  ASP235      0.1840
    136  C          4.1250  -22.0830   -4.8270 C.2   235  ASP235      0.2621
    137  O          3.3860  -22.3760   -3.9110 O.2   235  ASP235     -0.2715
    138  CB         5.8030  -23.9190   -5.3500 C.3   235  ASP235      0.1450
    139  CG         7.0730  -22.9810   -5.2010 C.2   235  ASP235      0.3671
    140  OD1        7.3730  -22.1640   -6.1050 O.co2 235  ASP235     -0.2456
    141  OD2        7.7730  -23.0650   -4.1900 O.co2 235  ASP235     -0.2456
    142  N          4.5110  -20.8390   -5.0260 N.am  236  GLU236     -0.1977
    143  CA         4.1030  -19.7920   -4.0890 C.3   236  GLU236      0.1602
    144  C          2.5730  -19.5770   -4.1400 C.2   236  GLU236      0.2287
    145  O          1.9630  -19.2710   -3.0940 O.2   236  GLU236     -0.2864
    146  CB         4.8530  -18.4900   -4.3820 C.3   236  GLU236      0.0415
    147  CG         4.4690  -17.3060   -3.4590 C.3   236  GLU236      0.1163
    148  CD         5.4090  -16.1550   -3.7520 C.2   236  GLU236      0.3649
    149  OE1        5.0910  -15.3570   -4.6850 O.co2 236  GLU236     -0.2457
    150  OE2        6.5450  -16.1610   -3.1630 O.co2 236  GLU236     -0.2457
@<TRIPOS>BOND
     1    33    32    1
     2    32    31    1
     3    46    47    1
     4    31    30    1
     5    47    50    1
     6    47    48    1
     7    30    29    1
     8    50    51    1
     9   132   133   ar
    10   132   130   ar
    11    48    49    2
    12    29    26    1
    13   133   131   ar
    14   130   129   ar
    15    51    52   ar
    16    51    53   ar
    17    26    27    1
    18    26    25    1
    19    60    61    1
    20    52    54   ar
    21   131   129   ar
    22    66    64    1
    23    27    28    2
    24   129   128    1
    25    25    19   am
    26    23    21    1
    27    53    56   ar
    28    53    55   ar
    29    64    61    1
    30    64    65    1
    31    61    62    1
    32    54    55   ar
    33    43    41   ar
    34    43    44   ar
    35    56    58   ar
    36    45    44    1
    37   123   121   ar
    38   123   122   ar
    39   121   119   ar
    40   110   111    1
    41    19    20    2
    42    19    18    1
    43   128   125    1
    44    41    39   ar
    45    55    57   ar
    46    44    42   ar
    47   122   120   ar
    48   124   125    1
    49   124   112   am
    50   119   118   ar
    51   119   117   ar
    52   125   126    1
    53   118   116   ar
    54    34    35    1
    55    62    63    2
    56    21    18    1
    57    21    22    1
    58   111   112    1
    59   111   114    1
    60   120   117   ar
    61   117   115   ar
    62    18    17    1
    63    58    59   ar
    64   116   115   ar
    65   112   113    2
    66   115   114    1
    67    22    24    1
    68    39    38    1
    69    39    40   ar
    70    57    59   ar
    71    42    40   ar
    72    35    38    1
    73    35    36    1
    74   126   127    2
    75   126   134   am
    76    17    14   am
    77   134   135    1
    78    36    37    2
    79    14    15    2
    80    14    13    1
    81   140   139   ar
    82   135   138    1
    83   135   136    1
    84    67    68    1
    85   138   139    1
    86    13    12    1
    87    13    16    1
    88   139   141   ar
    89   100    98   ar
    90   142   136   am
    91   142   143    1
    92   136   137    2
    93    72    71    1
    94    72    73    1
    95   149   148   ar
    96    12     3   am
    97    97    98    1
    98    97    94    1
    99    98    99   ar
   100   146   143    1
   101   146   147    1
   102    68    71    1
   103    68    69    1
   104     8    10   ar
   105     8     6   ar
   106    74    73    1
   107    74    75    2
   108    77    75    1
   109   144   143    1
   110   144   145    2
   111     5     6    1
   112     5     2    1
   113     4     3    2
   114     3     2    1
   115    10    11   ar
   116    75    76    1
   117    91    90    1
   118   148   147    1
   119   148   150   ar
   120     6     7   ar
   121    69    70    2
   122    85    83   ar
   123     2     1    1
   124    94    93    1
   125    94    95    1
   126    93    88   am
   127    11     9   ar
   128    83    84   ar
   129    83    82    1
   130     7     9   ar
   131    90    92    1
   132    90    87    1
   133    96    95    2
   134    88    87    1
   135    88    89    2
   136    86    87    1
   137    86    80   am
   138    82    79    1
   139    79    80    1
   140    79    78    1
   141   102   101    1
   142   102   103    1
   143    80    81    2
   144   103   104    2
   145   103   105   am
   146   105   106    1
   147   109   106    1
   148   106   107    1
   149   107   108    2
