@<TRIPOS>MOLECULE
tmp/3v0mB00.pdb
 143 141 0 0 0
SMALL
GASTEIGER

@<TRIPOS>ATOM
      1  N         13.7780    6.1140   36.1830 N.3    64  PHE64      -0.1227
      2  CA        12.8580    5.0300   36.5040 C.3    64  PHE64       0.1736
      3  C         13.4080    4.1190   37.5860 C.2    64  PHE64       0.2595
      4  O         14.5640    3.7360   37.5630 O.2    64  PHE64      -0.2718
      5  CB        12.5250    4.2290   35.2550 C.3    64  PHE64       0.0547
      6  CG        11.6660    4.9880   34.2780 C.ar   64  PHE64      -0.0202
      7  CD1       12.1960    6.0070   33.5030 C.ar   64  PHE64      -0.0042
      8  CD2       10.3280    4.6880   34.1500 C.ar   64  PHE64      -0.0042
      9  CE1       11.4000    6.7210   32.6100 C.ar   64  PHE64      -0.0003
     10  CE2        9.5360    5.3840   33.2650 C.ar   64  PHE64      -0.0003
     11  CZ        10.0690    6.4020   32.4910 C.ar   64  PHE64      -0.0000
     12  N         12.5750    3.8060   38.5620 N.am   65  ALA65      -0.1966
     13  CA        13.0420    2.9430   39.6410 C.3    65  ALA65       0.1728
     14  C         11.9610    1.9400   39.9480 C.2    65  ALA65       0.2616
     15  O         11.1960    2.0890   40.9190 O.2    65  ALA65      -0.2715
     16  CB        13.4460    3.7630   40.8750 C.3    65  ALA65       0.0334
     17  N         11.9150    0.9150   39.1020 N.am   66  ILE66      -0.1963
     18  CA        10.8540   -0.0810   39.1200 C.3    66  ILE66       0.1727
     19  C         11.3540   -1.3630   39.7770 C.2    66  ILE66       0.2616
     20  O         12.4860   -1.7340   39.5820 O.2    66  ILE66      -0.2715
     21  CB        10.4320   -0.4390   37.6850 C.3    66  ILE66       0.0290
     22  CG1       10.0460    0.8160   36.8930 C.3    66  ILE66       0.0022
     23  CG2        9.3120   -1.4460   37.7000 C.3    66  ILE66       0.0023
     24  CD1        8.7830    1.4340   37.3600 C.3    66  ILE66       0.0001
     25  N         10.4950   -2.0310   40.5400 N.am   67  LYS67      -0.1963
     26  CA        10.8620   -3.2540   41.2590 C.3    67  LYS67       0.1728
     27  C         12.1290   -3.0420   42.1100 C.2    67  LYS67       0.2616
     28  O         12.1760   -2.0920   42.8840 O.2    67  LYS67      -0.2715
     29  CB        10.9530   -4.4590   40.3110 C.3    67  LYS67       0.0311
     30  CG         9.6790   -4.6400   39.4620 C.3    67  LYS67       0.0038
     31  CD         9.8120   -5.7490   38.4020 C.3    67  LYS67       0.0206
     32  CE         9.9940   -7.1290   39.0370 C.3    67  LYS67       0.1093
     33  NZ        10.0320   -8.2600   38.0410 N.3    67  LYS67      -0.1314
     34  N         13.1390   -3.8980   41.9950 N.am   68  LYS68      -0.1963
     35  CA        14.2680   -3.8070   42.9350 C.3    68  LYS68       0.1728
     36  C         15.1310   -2.5660   42.7440 C.2    68  LYS68       0.2616
     37  O         15.9910   -2.2680   43.5860 O.2    68  LYS68      -0.2715
     38  CB        15.1560   -5.0640   42.9080 C.3    68  LYS68       0.0311
     39  CG        14.4220   -6.3340   43.2870 C.3    68  LYS68       0.0038
     40  CD        15.3870   -7.4390   43.7060 C.3    68  LYS68       0.0206
     41  CE        14.6500   -8.7040   44.1170 C.3    68  LYS68       0.1093
     42  NZ        15.5390   -9.6480   44.8500 N.3    68  LYS68      -0.1314
     43  N         14.9220   -1.8620   41.6370 N.am   69  TYR69      -0.1974
     44  CA        15.7640   -0.7190   41.3190 C.3    69  TYR69       0.1639
     45  C         15.4550    0.4940   42.1990 C.2    69  TYR69       0.2290
     46  O         16.1660    1.4970   42.1500 O.2    69  TYR69      -0.2864
     47  CB        15.7020   -0.3530   39.8250 C.3    69  TYR69       0.0560
     48  CG        16.5650   -1.2430   38.9610 C.ar   69  TYR69      -0.0198
     49  CD1       17.6060   -0.7220   38.2020 C.ar   69  TYR69      -0.0009
     50  CD2       16.3420   -2.6060   38.9100 C.ar   69  TYR69      -0.0009
     51  CE1       18.3940   -1.5520   37.4060 C.ar   69  TYR69       0.0417
     52  CE2       17.1260   -3.4290   38.1270 C.ar   69  TYR69       0.0417
     53  CZ        18.1400   -2.9020   37.3790 C.ar   69  TYR69       0.1957
     54  OH        18.9140   -3.7570   36.6120 O.3    69  TYR69      -0.2866
     55  N         12.5420   -7.4470   31.8570 N.3   124  TRP124     -0.1241
     56  CA        13.4330   -6.3150   32.0920 C.3   124  TRP124      0.1605
     57  C         13.6350   -5.4700   30.8350 C.2   124  TRP124      0.2264
     58  O         13.8390   -4.2470   30.9110 O.2   124  TRP124     -0.2867
     59  CB        14.7700   -6.7990   32.6390 C.3   124  TRP124      0.0550
     60  CG        15.7120   -7.4990   31.6500 C.ar  124  TRP124      0.0003
     61  CD1       15.9510   -8.8490   31.5520 C.ar  124  TRP124      0.0946
     62  CD2       16.5660   -6.8730   30.6700 C.ar  124  TRP124      0.0152
     63  NE1       16.8810   -9.0960   30.5650 N.ar  124  TRP124     -0.2442
     64  CE2       17.2720   -7.9020   30.0100 C.ar  124  TRP124      0.0810
     65  CE3       16.7900   -5.5430   30.2800 C.ar  124  TRP124      0.0012
     66  CZ2       18.1850   -7.6450   28.9840 C.ar  124  TRP124      0.0191
     67  CZ3       17.7020   -5.2910   29.2600 C.ar  124  TRP124      0.0001
     68  CH2       18.3870   -6.3410   28.6240 C.ar  124  TRP124      0.0015
     69  N         10.6420   -3.1530   30.7730 N.3   127  VAL127     -0.1231
     70  CA        10.8290   -2.0080   31.6650 C.3   127  VAL127      0.1692
     71  C         11.7300   -0.9780   30.9890 C.2   127  VAL127      0.2592
     72  O         11.3740    0.1990   30.8690 O.2   127  VAL127     -0.2718
     73  CB        11.4600   -2.3810   33.0190 C.3   127  VAL127      0.0266
     74  CG1       11.6300   -1.1000   33.8800 C.3   127  VAL127      0.0020
     75  CG2       10.6190   -3.4250   33.7420 C.3   127  VAL127      0.0020
     76  N         12.9050   -1.4260   30.5560 N.am  128  SER128     -0.1952
     77  CA        13.8670   -0.5260   29.9190 C.3   128  SER128      0.1924
     78  C         13.2610    0.1440   28.6920 C.2   128  SER128      0.2314
     79  O         13.3680    1.3660   28.5180 O.2   128  SER128     -0.2863
     80  CB        15.1490   -1.2800   29.5440 C.3   128  SER128      0.2116
     81  OG        16.0220   -0.4540   28.7950 O.3   128  SER128     -0.2180
     82  N         10.2170    2.8650   28.9590 N.3   131  ARG131     -0.1245
     83  CA        10.5360    4.2110   29.3980 C.3   131  ARG131      0.1563
     84  C         10.2150    5.1960   28.2880 C.2   131  ARG131      0.2260
     85  O          9.7490    6.2910   28.5670 O.2   131  ARG131     -0.2867
     86  CB        12.0080    4.3420   29.7870 C.3   131  ARG131      0.0307
     87  CG        12.3390    3.6140   31.0610 C.3   131  ARG131      0.0489
     88  CD        13.7760    3.8110   31.4290 C.3   131  ARG131      0.2205
     89  NE        14.6720    3.2790   30.4090 N.pl3 131  ARG131     -0.0865
     90  CZ        15.9880    3.3970   30.4710 C.cat 131  ARG131      0.5346
     91  NH1       16.5270    4.0590   31.4960 N.pl3 131  ARG131      0.1354
     92  NH2       16.7560    2.8790   29.5110 N.pl3 131  ARG131      0.1354
     93  N         19.4680    6.5090   33.3710 N.3   151  ASP151     -0.1225
     94  CA        19.3690    5.2750   34.1870 C.3   151  ASP151      0.1805
     95  C         19.5070    5.6100   35.6770 C.2   151  ASP151      0.2598
     96  O         20.1240    6.6210   36.0490 O.2   151  ASP151     -0.2718
     97  CB        20.5210    4.3250   33.8420 C.3   151  ASP151      0.1424
     98  CG        20.2500    3.4640   32.6290 C.2   151  ASP151      0.3668
     99  OD1       19.3800    3.7980   31.8000 O.co2 151  ASP151     -0.2456
    100  OD2       20.9610    2.4530   32.4970 O.co2 151  ASP151     -0.2456
    101  N         18.9660    4.7420   36.5310 N.am  152  VAL152     -0.1966
    102  CA        18.9850    4.9940   37.9760 C.3   152  VAL152      0.1727
    103  C         20.1650    4.3080   38.6760 C.2   152  VAL152      0.2616
    104  O         20.5560    4.6830   39.7980 O.2   152  VAL152     -0.2715
    105  CB        17.6610    4.5380   38.6420 C.3   152  VAL152      0.0290
    106  CG1       17.5610    2.9870   38.7310 C.3   152  VAL152      0.0023
    107  CG2       17.5390    5.1600   40.0180 C.3   152  VAL152      0.0023
    108  N         20.7400    3.3150   38.0000 N.am  153  ASP153     -0.1971
    109  CA        21.7390    2.4480   38.6190 C.3   153  ASP153      0.1709
    110  C         23.0980    3.1180   38.5050 C.2   153  ASP153      0.2293
    111  O         24.0630    2.5310   38.0010 O.2   153  ASP153     -0.2864
    112  CB        21.7330    1.0470   37.9640 C.3   153  ASP153      0.1436
    113  CG        22.0080    1.0880   36.4750 C.2   153  ASP153      0.3671
    114  OD1       21.5230    2.0240   35.8140 O.co2 153  ASP153     -0.2456
    115  OD2       22.7060    0.1770   35.9510 O.co2 153  ASP153     -0.2456
    116  N         21.4620    5.2600   28.3030 N.3   208  ALA208     -0.1245
    117  CA        21.3630    5.6330   29.7110 C.3   208  ALA208      0.1562
    118  C         21.4240    7.1460   29.9880 C.2   208  ALA208      0.2260
    119  O         21.3110    7.5560   31.1530 O.2   208  ALA208     -0.2867
    120  CB        22.4420    4.8880   30.5150 C.3   208  ALA208      0.0290
    121  N         19.5120   -4.2300   21.0980 N.3   240  TRP240     -0.1241
    122  CA        19.7070   -3.4820   22.3380 C.3   240  TRP240      0.1605
    123  C         18.5080   -2.5820   22.6560 C.2   240  TRP240      0.2264
    124  O         18.6520   -1.5150   23.2570 O.2   240  TRP240     -0.2867
    125  CB        21.0440   -2.7330   22.3530 C.3   240  TRP240      0.0550
    126  CG        22.1850   -3.7080   22.4990 C.ar  240  TRP240      0.0003
    127  CD1       23.0660   -4.1090   21.5310 C.ar  240  TRP240      0.0946
    128  CD2       22.5080   -4.4610   23.6780 C.ar  240  TRP240      0.0152
    129  NE1       23.9320   -5.0640   22.0460 N.ar  240  TRP240     -0.2442
    130  CE2       23.6120   -5.2880   23.3610 C.ar  240  TRP240      0.0810
    131  CE3       21.9740   -4.5080   24.9710 C.ar  240  TRP240      0.0012
    132  CZ2       24.2000   -6.1460   24.3000 C.ar  240  TRP240      0.0191
    133  CZ3       22.5560   -5.3690   25.9010 C.ar  240  TRP240      0.0001
    134  CH2       23.6530   -6.1770   25.5570 C.ar  240  TRP240      0.0015
    135  N         26.1110   -3.7840   40.1530 N.3   286  LYS286     -0.1245
    136  CA        24.8780   -4.5370   40.3210 C.3   286  LYS286      0.1561
    137  C         25.0240   -5.9440   39.7420 C.2   286  LYS286      0.2260
    138  O         26.0050   -6.2350   39.0540 O.2   286  LYS286     -0.2867
    139  CB        23.7060   -3.8010   39.6780 C.3   286  LYS286      0.0271
    140  CG        23.7940   -3.6450   38.1640 C.3   286  LYS286      0.0035
    141  CD        22.5610   -2.9240   37.6230 C.3   286  LYS286      0.0206
    142  CE        22.3970   -3.1230   36.1150 C.3   286  LYS286      0.1093
    143  NZ        23.4670   -2.4470   35.3080 N.3   286  LYS286     -0.1314
@<TRIPOS>BOND
     1   121   122    1
     2   127   129   ar
     3   127   126   ar
     4   129   130   ar
     5   122   125    1
     6   122   123    1
     7   125   126    1
     8   126   128   ar
     9   123   124    2
    10   130   128   ar
    11   130   132   ar
    12   128   131   ar
    13   132   134   ar
    14   131   133   ar
    15   134   133   ar
    16    84    85    2
    17    84    83    1
    18   116   117    1
    19    79    78    2
    20    68    66   ar
    21    68    67   ar
    22    78    77    1
    23    81    80    1
    24    82    83    1
    25    66    64   ar
    26    67    65   ar
    27    83    86    1
    28    92    90    1
    29    80    77    1
    30   117   118    1
    31   117   120    1
    32    86    87    1
    33    77    76    1
    34   118   119    2
    35    64    63   ar
    36    64    62   ar
    37    65    62   ar
    38    89    90    2
    39    89    88    1
    40    90    91    1
    41    76    71   am
    42    63    61   ar
    43    62    60   ar
    44    69    70    1
    45    57    58    2
    46    57    56    1
    47    72    71    2
    48    71    70    1
    49    87    88    1
    50    61    60   ar
    51    60    59    1
    52    70    73    1
    53    99    98   ar
    54    55    56    1
    55    56    59    1
    56    11     9   ar
    57    11    10   ar
    58   100    98   ar
    59     9     7   ar
    60    98    97    1
    61    73    75    1
    62    73    74    1
    63    10     8   ar
    64    93    94    1
    65     7     6   ar
    66    97    94    1
    67     8     6   ar
    68    94    95    1
    69     6     5    1
    70     5     2    1
    71   143   142    1
    72    95    96    2
    73    95   101   am
    74   114   113   ar
    75   115   113   ar
    76   142   141    1
    77     1     2    1
    78   113   112    1
    79     2     3    1
    80   101   102    1
    81    54    53    1
    82    22    24    1
    83    22    21    1
    84    53    51   ar
    85    53    52   ar
    86    51    49   ar
    87     4     3    2
    88     3    12   am
    89   141   140    1
    90    21    23    1
    91    21    18    1
    92   112   109    1
    93   102   105    1
    94   102   103    1
    95   108   109    1
    96   108   103   am
    97   111   110    2
    98    33    32    1
    99    52    50   ar
   100   140   139    1
   101    49    48   ar
   102    31    32    1
   103    31    30    1
   104   110   109    1
   105    12    13    1
   106   105   106    1
   107   105   107    1
   108   103   104    2
   109    50    48   ar
   110    48    47    1
   111   138   137    2
   112    17    18    1
   113    17    14   am
   114    18    19    1
   115    30    29    1
   116    20    19    2
   117    13    14    1
   118    13    16    1
   119   139   136    1
   120   137   136    1
   121    19    25   am
   122    47    44    1
   123    14    15    2
   124   135   136    1
   125    29    26    1
   126    25    26    1
   127    26    27    1
   128    44    43    1
   129    44    45    1
   130    43    36   am
   131    34    27   am
   132    34    35    1
   133    27    28    2
   134    46    45    2
   135    36    35    1
   136    36    37    2
   137    38    35    1
   138    38    39    1
   139    39    40    1
   140    40    41    1
   141    41    42    1
