@<TRIPOS>MOLECULE
tmp/3v0nB00.pdb
 216 215 0 0 0
SMALL
GASTEIGER

@<TRIPOS>ATOM
      1  N         25.1710   -5.9190    9.8300 N.3    64  PHE64      -0.1241
      2  CA        26.0940   -4.8020   10.0750 C.3    64  PHE64       0.1605
      3  C         25.5560   -3.8870   11.1520 C.2    64  PHE64       0.2264
      4  O         24.4190   -3.4270   11.0790 O.2    64  PHE64      -0.2867
      5  CB        26.3740   -4.0210    8.7800 C.3    64  PHE64       0.0534
      6  CG        27.2480   -4.7720    7.8240 C.ar   64  PHE64      -0.0203
      7  CD1       26.7570   -5.8780    7.1470 C.ar   64  PHE64      -0.0042
      8  CD2       28.5790   -4.3980    7.6440 C.ar   64  PHE64      -0.0042
      9  CE1       27.5780   -6.6000    6.2610 C.ar   64  PHE64      -0.0003
     10  CE2       29.4030   -5.1070    6.7680 C.ar   64  PHE64      -0.0003
     11  CZ        28.8940   -6.2140    6.0790 C.ar   64  PHE64      -0.0000
     12  N         26.9940   -0.7010   12.6330 N.3    66  ILE66      -0.1231
     13  CA        28.0080    0.3390   12.5580 C.3    66  ILE66       0.1692
     14  C         27.5210    1.6080   13.2430 C.2    66  ILE66       0.2592
     15  O         26.3700    1.9950   13.0890 O.2    66  ILE66      -0.2718
     16  CB        28.3370    0.6570   11.0860 C.3    66  ILE66       0.0266
     17  CG1       28.7830   -0.6200   10.3530 C.3    66  ILE66       0.0019
     18  CG2       29.3930    1.7650   10.9880 C.3    66  ILE66       0.0020
     19  CD1       30.0480   -1.1960   10.8770 C.3    66  ILE66       0.0001
     20  N         28.4090    2.2340   14.0040 N.am   67  LYS67      -0.1966
     21  CA        28.0900    3.4370   14.7900 C.3    67  LYS67       0.1728
     22  C         26.8620    3.2110   15.6830 C.2    67  LYS67       0.2616
     23  O         26.8260    2.2190   16.4060 O.2    67  LYS67      -0.2715
     24  CB        27.9710    4.6600   13.8810 C.3    67  LYS67       0.0311
     25  CG        29.2470    4.8940   13.0860 C.3    67  LYS67       0.0038
     26  CD        29.1860    6.1800   12.2590 C.3    67  LYS67       0.0206
     27  CE        28.4540    5.9540   10.9340 C.3    67  LYS67       0.1093
     28  NZ        28.6380    7.1390   10.0190 N.3    67  LYS67      -0.1314
     29  N         25.8550    4.0830   15.6290 N.am   68  LYS68      -0.1963
     30  CA        24.7350    3.9780   16.5850 C.3    68  LYS68       0.1728
     31  C         23.8360    2.7600   16.3690 C.2    68  LYS68       0.2616
     32  O         22.9780    2.4600   17.2060 O.2    68  LYS68      -0.2715
     33  CB        23.8690    5.2430   16.5680 C.3    68  LYS68       0.0311
     34  CG        24.6070    6.5090   16.9610 C.3    68  LYS68       0.0038
     35  CD        23.6620    7.7030   16.9560 C.3    68  LYS68       0.0206
     36  CE        24.3890    8.9780   17.3540 C.3    68  LYS68       0.1093
     37  NZ        24.9740    8.8250   18.7180 N.3    68  LYS68      -0.1314
     38  N         23.9990    2.0700   15.2420 N.am   69  TYR69      -0.1974
     39  CA        23.1470    0.9170   14.9840 C.3    69  TYR69       0.1639
     40  C         23.4800   -0.3050   15.8470 C.2    69  TYR69       0.2290
     41  O         22.7850   -1.3130   15.7670 O.2    69  TYR69      -0.2864
     42  CB        23.1220    0.5440   13.4930 C.3    69  TYR69       0.0560
     43  CG        22.1890    1.4100   12.6690 C.ar   69  TYR69      -0.0198
     44  CD1       21.2080    0.8380   11.8650 C.ar   69  TYR69      -0.0009
     45  CD2       22.2860    2.7960   12.6980 C.ar   69  TYR69      -0.0009
     46  CE1       20.3500    1.6260   11.1090 C.ar   69  TYR69       0.0417
     47  CE2       21.4380    3.5880   11.9450 C.ar   69  TYR69       0.0417
     48  CZ        20.4790    2.9990   11.1500 C.ar   69  TYR69       0.1957
     49  OH        19.6420    3.8050   10.4160 O.3    69  TYR69      -0.2866
     50  N         26.2130    7.6000    5.5100 N.3   124  TRP124     -0.1241
     51  CA        25.3330    6.4410    5.6260 C.3   124  TRP124      0.1605
     52  C         25.2300    5.6800    4.2990 C.2   124  TRP124      0.2264
     53  O         25.1680    4.4510    4.2980 O.2   124  TRP124     -0.2867
     54  CB        23.9420    6.8250    6.1550 C.3   124  TRP124      0.0550
     55  CG        23.0270    7.4990    5.1450 C.ar  124  TRP124      0.0003
     56  CD1       22.7690    8.8430    5.0430 C.ar  124  TRP124      0.0946
     57  CD2       22.2280    6.8620    4.1320 C.ar  124  TRP124      0.0152
     58  NE1       21.8790    9.0790    4.0190 N.ar  124  TRP124     -0.2442
     59  CE2       21.5300    7.8840    3.4460 C.ar  124  TRP124      0.0810
     60  CE3       22.0450    5.5370    3.7310 C.ar  124  TRP124      0.0012
     61  CZ2       20.6670    7.6180    2.3820 C.ar  124  TRP124      0.0191
     62  CZ3       21.1770    5.2720    2.6770 C.ar  124  TRP124      0.0001
     63  CH2       20.4970    6.3090    2.0180 C.ar  124  TRP124      0.0015
     64  N         28.2960    3.4680    4.3730 N.3   127  VAL127     -0.1231
     65  CA        28.0870    2.3640    5.3130 C.3   127  VAL127      0.1692
     66  C         27.2040    1.2900    4.6640 C.2   127  VAL127      0.2592
     67  O         27.5290    0.0980    4.7150 O.2   127  VAL127     -0.2718
     68  CB        27.4450    2.8360    6.6450 C.3   127  VAL127      0.0266
     69  CG1       27.0960    1.6220    7.5360 C.3   127  VAL127      0.0020
     70  CG2       28.3740    3.7980    7.3730 C.3   127  VAL127      0.0020
     71  N         26.1060    1.7080    4.0270 N.am  128  SER128     -0.1952
     72  CA        25.1820    0.7450    3.4160 C.3   128  SER128      0.1924
     73  C         25.8070    0.0240    2.2220 C.2   128  SER128      0.2314
     74  O         25.7080   -1.2100    2.0800 O.2   128  SER128     -0.2863
     75  CB        23.8890    1.4430    2.9870 C.3   128  SER128      0.2116
     76  OG        22.9570    0.5210    2.4470 O.3   128  SER128     -0.2180
     77  N         28.8080   -2.6890    2.5450 N.3   131  ARG131     -0.1245
     78  CA        28.4760   -4.0460    2.9700 C.3   131  ARG131      0.1563
     79  C         28.7880   -5.0600    1.8800 C.2   131  ARG131      0.2260
     80  O         29.2000   -6.1820    2.1760 O.2   131  ARG131     -0.2867
     81  CB        26.9970   -4.1530    3.3370 C.3   131  ARG131      0.0307
     82  CG        26.6530   -3.3400    4.5800 C.3   131  ARG131      0.0489
     83  CD        25.2160   -3.5440    4.9960 C.3   131  ARG131      0.2205
     84  NE        24.2600   -2.9730    4.0440 N.pl3 131  ARG131     -0.0865
     85  CZ        22.9470   -3.1370    4.1420 C.cat 131  ARG131      0.5346
     86  NH1       22.4410   -3.8680    5.1450 N.pl3 131  ARG131      0.1354
     87  NH2       22.1310   -2.5700    3.2570 N.pl3 131  ARG131      0.1354
     88  N         19.5380   -6.4360    7.1130 N.3   154  ASP154     -0.1225
     89  CA        19.6250   -5.1840    7.8880 C.3   154  ASP154      0.1805
     90  C         19.4910   -5.4790    9.3880 C.2   154  ASP154      0.2598
     91  O         18.8680   -6.4520    9.7700 O.2   154  ASP154     -0.2718
     92  CB        18.4760   -4.2570    7.4730 C.3   154  ASP154      0.1424
     93  CG        18.8040   -3.4230    6.2540 C.2   154  ASP154      0.3668
     94  OD1       19.7740   -3.7250    5.5260 O.co2 154  ASP154     -0.2456
     95  OD2       18.0820   -2.4470    6.0250 O.co2 154  ASP154     -0.2456
     96  N         20.0420   -4.6150   10.2340 N.am  155  VAL155     -0.1966
     97  CA        20.0320   -4.8630   11.6810 C.3   155  VAL155      0.1727
     98  C         18.8590   -4.2080   12.4200 C.2   155  VAL155      0.2616
     99  O         18.4910   -4.6420   13.5280 O.2   155  VAL155     -0.2715
    100  CB        21.3580   -4.4190   12.3350 C.3   155  VAL155      0.0290
    101  CG1       21.4440   -2.8850   12.4410 C.3   155  VAL155      0.0023
    102  CG2       21.5330   -5.0590   13.7190 C.3   155  VAL155      0.0023
    103  N         18.3000   -3.1450   11.8340 N.am  156  ASP156     -0.1957
    104  CA        17.2490   -2.3880   12.5130 C.3   156  ASP156      0.1840
    105  C         15.9070   -3.0870   12.3610 C.2   156  ASP156      0.2621
    106  O         14.9170   -2.4920   11.9150 O.2   156  ASP156     -0.2715
    107  CB        17.1770   -0.9490   11.9760 C.3   156  ASP156      0.1450
    108  CG        16.8950   -0.8980   10.4810 C.2   156  ASP156      0.3671
    109  OD1       17.2860   -1.8390    9.7730 O.co2 156  ASP156     -0.2456
    110  OD2       16.2710    0.0700    9.9910 O.co2 156  ASP156     -0.2456
    111  N         15.8800   -4.3540   12.7640 N.am  157  MET157     -0.1977
    112  CA        14.7800   -5.2320   12.4530 C.3   157  MET157      0.1605
    113  C         14.5940   -6.1980   13.5970 C.2   157  MET157      0.2287
    114  O         15.4820   -6.3690   14.4210 O.2   157  MET157     -0.2864
    115  CB        15.1410   -6.0790   11.2270 C.3   157  MET157      0.0413
    116  CG        15.5400   -5.2830   10.0200 C.3   157  MET157      0.0598
    117  SD        14.1280   -4.4980    9.2300 S.3   157  MET157     -0.1393
    118  CE        13.3160   -5.9620    8.5770 C.3   157  MET157      0.0692
    119  N         10.5660   -6.1870   -2.0230 N.3   176  HIS176     -0.1227
    120  CA        10.5100   -4.9690   -1.2350 C.3   176  HIS176      0.1737
    121  C          9.0620   -4.6750   -0.8680 C.2   176  HIS176      0.2438
    122  O          8.1720   -4.7310   -1.7190 O.2   176  HIS176     -0.2733
    123  CB        11.1060   -3.8280   -2.0660 C.3   176  HIS176      0.0758
    124  CG        11.3490   -2.5630   -1.3000 C.ar  176  HIS176      0.0818
    125  ND1       10.3310   -1.8310   -0.7260 N.ar  176  HIS176     -0.2268
    126  CD2       12.4880   -1.8660   -1.0740 C.ar  176  HIS176      0.1154
    127  CE1       10.8360   -0.7490   -0.1590 C.ar  176  HIS176      0.1986
    128  NE2       12.1420   -0.7420   -0.3640 N.ar  176  HIS176     -0.2212
    129  N          8.8090   -4.3670    0.4130 N.am  177  PRO177     -0.2729
    130  CA         7.4230   -4.2500    0.8660 C.3   177  PRO177      0.1401
    131  C          6.6990   -3.0340    0.2720 C.2   177  PRO177      0.2269
    132  O          5.4670   -2.9930    0.2560 O.2   177  PRO177     -0.2865
    133  CB         7.5700   -4.1270    2.4000 C.3   177  PRO177      0.0296
    134  CG         8.9270   -3.5290    2.6060 C.3   177  PRO177      0.0237
    135  CD         9.7770   -4.1750    1.5110 C.3   177  PRO177      0.0939
    136  N         14.3760   -5.9760   -2.1670 N.3   209  GLY209     -0.1210
    137  CA        14.8250   -5.1080   -1.0970 C.3   209  GLY209      0.1956
    138  C         16.2620   -5.4050   -0.7150 C.2   209  GLY209      0.2612
    139  O         16.6560   -6.5650   -0.5690 O.2   209  GLY209     -0.2717
    140  N         17.0460   -4.3510   -0.5360 N.am  210  GLY210     -0.1942
    141  CA        18.4410   -4.4890   -0.1550 C.3   210  GLY210      0.2014
    142  C         18.6470   -5.1060    1.2250 C.2   210  GLY210      0.2638
    143  O         19.7600   -5.5400    1.5580 O.2   210  GLY210     -0.2714
    144  N         17.5840   -5.1230    2.0270 N.am  211  ALA211     -0.1977
    145  CA        17.6720   -5.5010    3.4480 C.3   211  ALA211      0.1597
    146  C         17.5770   -7.0020    3.7130 C.2   211  ALA211      0.2287
    147  O         17.6210   -7.4230    4.8680 O.2   211  ALA211     -0.2864
    148  CB        16.6000   -4.7700    4.2400 C.3   211  ALA211      0.0319
    149  N         19.4610    4.3220   -5.2380 N.3   243  TRP243     -0.1227
    150  CA        19.2510    3.5520   -4.0070 C.3   243  TRP243      0.1737
    151  C         20.4400    2.6560   -3.7000 C.2   243  TRP243      0.2595
    152  O         20.2950    1.5670   -3.1190 O.2   243  TRP243     -0.2718
    153  CB        17.9040    2.8020   -4.0010 C.3   243  TRP243      0.0564
    154  CG        16.7820    3.7980   -3.8870 C.ar  243  TRP243      0.0003
    155  CD1       15.9500    4.2330   -4.8900 C.ar  243  TRP243      0.0946
    156  CD2       16.4440    4.5550   -2.7260 C.ar  243  TRP243      0.0152
    157  NE1       15.0910    5.1980   -4.4040 N.ar  243  TRP243     -0.2442
    158  CE2       15.3790    5.4150   -3.0790 C.ar  243  TRP243      0.0810
    159  CE3       16.9300    4.5800   -1.4100 C.ar  243  TRP243      0.0012
    160  CZ2       14.7890    6.2950   -2.1570 C.ar  243  TRP243      0.0191
    161  CZ3       16.3440    5.4670   -0.4960 C.ar  243  TRP243      0.0001
    162  CH2       15.2850    6.3040   -0.8780 C.ar  243  TRP243      0.0015
    163  N         21.6150    3.1380   -4.0920 N.am  244  HIS244     -0.1975
    164  CA        22.8710    2.6180   -3.5630 C.3   244  HIS244      0.1656
    165  C         22.9980    1.1080   -3.7690 C.2   244  HIS244      0.2291
    166  O         22.7880    0.6220   -4.8870 O.2   244  HIS244     -0.2864
    167  CB        22.9940    3.0730   -2.1000 C.3   244  HIS244      0.0771
    168  CG        22.5640    4.4990   -1.9240 C.ar  244  HIS244      0.0820
    169  ND1       21.3820    4.8500   -1.3060 N.ar  244  HIS244     -0.2267
    170  CD2       23.1020    5.6530   -2.3900 C.ar  244  HIS244      0.1154
    171  CE1       21.2400    6.1650   -1.3450 C.ar  244  HIS244      0.1986
    172  NE2       22.2680    6.6770   -2.0030 N.ar  244  HIS244     -0.2212
    173  N         21.1180   -1.2820   -2.9970 N.3   246  GLU246     -0.1245
    174  CA        19.8570   -1.8830   -3.4290 C.3   246  GLU246      0.1567
    175  C         19.6760   -1.7680   -4.9410 C.2   246  GLU246      0.2260
    176  O         19.1460   -2.6750   -5.5990 O.2   246  GLU246     -0.2867
    177  CB        18.6870   -1.2300   -2.6930 C.3   246  GLU246      0.0388
    178  CG        17.3080   -1.7300   -3.1080 C.3   246  GLU246      0.1160
    179  CD        16.2420   -1.1570   -2.1970 C.2   246  GLU246      0.3649
    180  OE1       15.7500   -0.0390   -2.4840 O.co2 246  GLU246     -0.2457
    181  OE2       15.9290   -1.8100   -1.1710 O.co2 246  GLU246     -0.2457
    182  N         10.1440   -9.2760    4.8430 N.3   267  LEU267     -0.1231
    183  CA        10.7400   -7.9420    4.9010 C.3   267  LEU267      0.1693
    184  C          9.6300   -6.8950    4.9260 C.2   267  LEU267      0.2592
    185  O          9.1170   -6.4890    3.8900 O.2   267  LEU267     -0.2718
    186  CB        11.6830   -7.7280    3.7040 C.3   267  LEU267      0.0284
    187  CG        12.3880   -6.3600    3.6470 C.3   267  LEU267      0.0019
    188  CD1       13.2850   -6.1640    4.8550 C.3   267  LEU267      0.0001
    189  CD2       13.1930   -6.2520    2.3510 C.3   267  LEU267      0.0001
    190  N          9.2570   -6.4640    6.1280 N.am  268  TRP268     -0.1962
    191  CA         8.0670   -5.6560    6.2880 C.3   268  TRP268      0.1771
    192  C          8.3180   -4.4400    7.1900 C.2   268  TRP268      0.2619
    193  O          9.2890   -4.3960    7.9620 O.2   268  TRP268     -0.2715
    194  CB         6.9120   -6.5110    6.8390 C.3   268  TRP268      0.0590
    195  CG         5.6000   -5.8540    6.6460 C.ar  268  TRP268      0.0006
    196  CD1        4.8080   -5.2890    7.6120 C.ar  268  TRP268      0.0946
    197  CD2        4.9370   -5.6240    5.3990 C.ar  268  TRP268      0.0152
    198  NE1        3.6890   -4.7410    7.0370 N.ar  268  TRP268     -0.2442
    199  CE2        3.7370   -4.9390    5.6840 C.ar  268  TRP268      0.0810
    200  CE3        5.2300   -5.9500    4.0680 C.ar  268  TRP268      0.0012
    201  CZ2        2.8350   -4.5620    4.6940 C.ar  268  TRP268      0.0191
    202  CZ3        4.3280   -5.5780    3.0810 C.ar  268  TRP268      0.0001
    203  CH2        3.1440   -4.8870    3.4000 C.ar  268  TRP268      0.0015
    204  N          7.4460   -3.4440    7.0700 N.am  269  ASP269     -0.1971
    205  CA         7.4700   -2.2860    7.9630 C.3   269  ASP269      0.1709
    206  C          6.0200   -2.0000    8.3130 C.2   269  ASP269      0.2293
    207  O          5.2800   -1.4010    7.5200 O.2   269  ASP269     -0.2864
    208  CB         8.1660   -1.0710    7.3300 C.3   269  ASP269      0.1436
    209  CG         8.2840    0.1150    8.2920 C.2   269  ASP269      0.3671
    210  OD1        7.4350    0.2660    9.1990 O.co2 269  ASP269     -0.2456
    211  OD2        9.2330    0.9090    8.1470 O.co2 269  ASP269     -0.2456
    212  N         10.6420   -4.0460   10.4180 N.3   286  ALA286     -0.1245
    213  CA        11.3730   -2.8640   10.8730 C.3   286  ALA286      0.1562
    214  C         11.0800   -2.4970   12.3210 C.2   286  ALA286      0.2260
    215  O          9.9440   -2.5840   12.7650 O.2   286  ALA286     -0.2867
    216  CB        11.0530   -1.6660    9.9960 C.3   286  ALA286      0.0290
@<TRIPOS>BOND
     1   176   175    2
     2   149   150    1
     3   175   174    1
     4   155   157   ar
     5   155   154   ar
     6   166   165    2
     7   157   158   ar
     8   163   151   am
     9   163   164    1
    10   150   153    1
    11   150   151    1
    12   153   154    1
    13   154   156   ar
    14   165   164    1
    15   151   152    2
    16   164   167    1
    17   174   173    1
    18   174   177    1
    19   178   177    1
    20   178   179    1
    21   158   156   ar
    22   158   160   ar
    23   156   159   ar
    24   180   179   ar
    25   170   172   ar
    26   170   168   ar
    27   179   181   ar
    28   136   137    1
    29   160   162   ar
    30   167   168    1
    31   123   124    1
    32   123   120    1
    33   119   120    1
    34   172   171   ar
    35   168   169   ar
    36   122   121    2
    37   159   161   ar
    38   171   169   ar
    39   124   126   ar
    40   124   125   ar
    41   120   121    1
    42   137   138    1
    43   126   128   ar
    44   162   161   ar
    45   121   129   am
    46   125   127   ar
    47   138   139    2
    48   138   140   am
    49   140   141    1
    50   128   127   ar
    51   141   142    1
    52   132   131    2
    53   131   130    1
    54   129   130    1
    55   129   135    1
    56   130   133    1
    57   142   143    2
    58   142   144   am
    59   135   134    1
    60    79    80    2
    61    79    78    1
    62    63    61   ar
    63    63    62   ar
    64   144   145    1
    65    74    73    2
    66    73    72    1
    67   189   187    1
    68    61    59   ar
    69   133   134    1
    70    76    75    1
    71    77    78    1
    72    62    60   ar
    73    78    81    1
    74    75    72    1
    75   202   203   ar
    76   202   200   ar
    77    87    85    1
    78    81    82    1
    79   203   201   ar
    80    72    71    1
    81    59    58   ar
    82    59    57   ar
    83   145   146    1
    84   145   148    1
    85   187   186    1
    86   187   188    1
    87   186   183    1
    88   146   147    2
    89    60    57   ar
    90   185   184    2
    91    58    56   ar
    92    71    66   am
    93    84    85    2
    94    84    83    1
    95   200   197   ar
    96    57    55   ar
    97    85    86    1
    98    53    52    2
    99    52    51    1
   100    64    65    1
   101    82    83    1
   102    66    67    2
   103    66    65    1
   104   201   199   ar
   105   182   183    1
   106   183   184    1
   107   184   190   am
   108    56    55   ar
   109    55    54    1
   110    65    68    1
   111   197   199   ar
   112   197   195   ar
   113    50    51    1
   114    94    93   ar
   115    51    54    1
   116   199   198   ar
   117    95    93   ar
   118    11     9   ar
   119    11    10   ar
   120   190   191    1
   121    93    92    1
   122     9     7   ar
   123   191   194    1
   124   191   192    1
   125    68    70    1
   126    68    69    1
   127   195   194    1
   128   195   196   ar
   129    10     8   ar
   130   198   196   ar
   131   204   192   am
   132   204   205    1
   133    88    89    1
   134     7     6   ar
   135   192   193    2
   136   208   205    1
   137   208   209    1
   138    92    89    1
   139   207   206    2
   140     8     6   ar
   141     6     5    1
   142    89    90    1
   143   205   206    1
   144   211   209   ar
   145   209   210   ar
   146   118   117    1
   147     5     2    1
   148   117   116    1
   149    90    91    2
   150    90    96   am
   151   109   108   ar
   152     1     2    1
   153   110   108   ar
   154   216   213    1
   155    28    27    1
   156   116   115    1
   157     2     3    1
   158    96    97    1
   159    17    19    1
   160    17    16    1
   161    49    48    1
   162   212   213    1
   163   108   107    1
   164   213   214    1
   165    27    26    1
   166    18    16    1
   167     4     3    2
   168    16    13    1
   169    46    48   ar
   170    46    44   ar
   171    48    47   ar
   172   115   112    1
   173    97   100    1
   174    97    98    1
   175   103    98   am
   176   103   104    1
   177    44    43   ar
   178   106   105    2
   179    47    45   ar
   180   107   104    1
   181    26    25    1
   182   214   215    2
   183   100   101    1
   184   100   102    1
   185   105   104    1
   186   105   111   am
   187    98    99    2
   188   112   111    1
   189   112   113    1
   190    13    12    1
   191    13    14    1
   192    43    45   ar
   193    43    42    1
   194    25    24    1
   195    15    14    2
   196    14    20   am
   197    42    39    1
   198   113   114    2
   199    24    21    1
   200    20    21    1
   201    21    22    1
   202    39    38    1
   203    39    40    1
   204    38    31   am
   205    29    22   am
   206    29    30    1
   207    22    23    2
   208    41    40    2
   209    31    30    1
   210    31    32    2
   211    33    30    1
   212    33    34    1
   213    35    34    1
   214    35    36    1
   215    36    37    1
