@<TRIPOS>MOLECULE
tmp/3v0pB00.pdb
 138 135 0 0 0
SMALL
GASTEIGER

@<TRIPOS>ATOM
      1  N        -13.8620   -6.1320   36.2340 N.3    64  PHE64      -0.1241
      2  CA       -12.9560   -5.0340   36.5280 C.3    64  PHE64       0.1605
      3  C        -13.5280   -4.1320   37.6080 C.2    64  PHE64       0.2264
      4  O        -14.6670   -3.6940   37.5230 O.2    64  PHE64      -0.2867
      5  CB       -12.6350   -4.2490   35.2590 C.3    64  PHE64       0.0534
      6  CG       -11.8010   -5.0310   34.2660 C.ar   64  PHE64      -0.0203
      7  CD1      -12.3700   -6.0560   33.5180 C.ar   64  PHE64      -0.0042
      8  CD2      -10.4540   -4.7480   34.0900 C.ar   64  PHE64      -0.0042
      9  CE1      -11.6050   -6.7930   32.6010 C.ar   64  PHE64      -0.0003
     10  CE2       -9.6820   -5.4720   33.1810 C.ar   64  PHE64      -0.0003
     11  CZ       -10.2560   -6.4980   32.4350 C.ar   64  PHE64      -0.0000
     12  N        -11.9900   -0.9750   39.1130 N.3    66  ILE66      -0.1231
     13  CA       -10.9360    0.0240   39.0790 C.3    66  ILE66       0.1692
     14  C        -11.4090    1.3310   39.7100 C.2    66  ILE66       0.2592
     15  O        -12.5330    1.7710   39.4730 O.2    66  ILE66      -0.2718
     16  CB       -10.5100    0.2910   37.6170 C.3    66  ILE66       0.0266
     17  CG1      -10.0080   -1.0050   36.9580 C.3    66  ILE66       0.0019
     18  CG2       -9.4790    1.4040   37.5480 C.3    66  ILE66       0.0020
     19  CD1       -8.6450   -1.4220   37.4280 C.3    66  ILE66       0.0001
     20  N        -10.5310    1.9430   40.5000 N.am   67  LYS67      -0.1966
     21  CA       -10.8390    3.1610   41.2530 C.3    67  LYS67       0.1728
     22  C        -12.0570    2.9700   42.1690 C.2    67  LYS67       0.2616
     23  O        -12.0660    2.0510   42.9860 O.2    67  LYS67      -0.2715
     24  CB       -10.9630    4.3630   40.3140 C.3    67  LYS67       0.0311
     25  CG        -9.6500    4.6580   39.5840 C.3    67  LYS67       0.0038
     26  CD        -9.7080    5.9220   38.7270 C.3    67  LYS67       0.0206
     27  CE       -10.3400    5.6440   37.3660 C.3    67  LYS67       0.1093
     28  NZ       -10.2680    6.8340   36.4530 N.3    67  LYS67      -0.1314
     29  N        -13.0790    3.8120   42.0420 N.am   68  LYS68      -0.1963
     30  CA       -14.2080    3.7500   42.9760 C.3    68  LYS68       0.1728
     31  C        -15.1250    2.5400   42.7680 C.2    68  LYS68       0.2616
     32  O        -15.9540    2.2370   43.6270 O.2    68  LYS68      -0.2715
     33  CB       -15.0260    5.0490   42.9540 C.3    68  LYS68       0.0311
     34  CG       -14.2900    6.2370   43.5620 C.3    68  LYS68       0.0038
     35  CD       -15.1110    7.5160   43.5020 C.3    68  LYS68       0.0206
     36  CE       -14.3440    8.6690   44.1460 C.3    68  LYS68       0.1093
     37  NZ       -14.9970    9.9860   43.9110 N.3    68  LYS68      -0.1314
     38  N        -14.9820    1.8430   41.6440 N.am   69  TYR69      -0.1974
     39  CA       -15.8430    0.6890   41.3880 C.3    69  TYR69       0.1639
     40  C        -15.5100   -0.5250   42.2530 C.2    69  TYR69       0.2290
     41  O        -16.2050   -1.5410   42.1830 O.2    69  TYR69      -0.2864
     42  CB       -15.8470    0.2900   39.9020 C.3    69  TYR69       0.0560
     43  CG       -16.7350    1.1650   39.0390 C.ar   69  TYR69      -0.0198
     44  CD1      -17.6550    0.6090   38.1540 C.ar   69  TYR69      -0.0009
     45  CD2      -16.6550    2.5530   39.1130 C.ar   69  TYR69      -0.0009
     46  CE1      -18.4670    1.4210   37.3550 C.ar   69  TYR69       0.0417
     47  CE2      -17.4640    3.3700   38.3220 C.ar   69  TYR69       0.0417
     48  CZ       -18.3600    2.8040   37.4480 C.ar   69  TYR69       0.1957
     49  OH       -19.1530    3.6240   36.6680 O.3    69  TYR69      -0.2866
     50  N        -12.6550    7.4250   32.0030 N.3   124  TRP124     -0.1241
     51  CA       -13.5120    6.2650   32.2220 C.3   124  TRP124      0.1605
     52  C        -13.6780    5.4460   30.9350 C.2   124  TRP124      0.2264
     53  O        -13.8550    4.2230   30.9880 O.2   124  TRP124     -0.2867
     54  CB       -14.8740    6.6710   32.7960 C.3   124  TRP124      0.0550
     55  CG       -15.7980    7.3750   31.8370 C.ar  124  TRP124      0.0003
     56  CD1      -16.0180    8.7240   31.7470 C.ar  124  TRP124      0.0946
     57  CD2      -16.6470    6.7650   30.8520 C.ar  124  TRP124      0.0152
     58  NE1      -16.9430    8.9890   30.7610 N.ar  124  TRP124     -0.2442
     59  CE2      -17.3420    7.8040   30.1960 C.ar  124  TRP124      0.0810
     60  CE3      -16.8800    5.4420   30.4560 C.ar  124  TRP124      0.0012
     61  CZ2      -18.2500    7.5610   29.1620 C.ar  124  TRP124      0.0191
     62  CZ3      -17.7890    5.2020   29.4280 C.ar  124  TRP124      0.0001
     63  CH2      -18.4620    6.2580   28.7960 C.ar  124  TRP124      0.0015
     64  N        -10.6430    3.1810   30.7990 N.3   127  VAL127     -0.1231
     65  CA       -10.8700    2.0850   31.7380 C.3   127  VAL127      0.1692
     66  C        -11.7630    1.0050   31.1010 C.2   127  VAL127      0.2592
     67  O        -11.4440   -0.1920   31.1330 O.2   127  VAL127     -0.2718
     68  CB       -11.5040    2.5800   33.0630 C.3   127  VAL127      0.0266
     69  CG1      -11.8680    1.3910   33.9430 C.3   127  VAL127      0.0020
     70  CG2      -10.5480    3.5620   33.8100 C.3   127  VAL127      0.0020
     71  N        -12.8750    1.4350   30.5090 N.am  128  SER128     -0.1952
     72  CA       -13.8250    0.5070   29.8900 C.3   128  SER128      0.1924
     73  C        -13.2370   -0.1990   28.6670 C.2   128  SER128      0.2314
     74  O        -13.3290   -1.4180   28.5400 O.2   128  SER128     -0.2863
     75  CB       -15.1150    1.2430   29.5000 C.3   128  SER128      0.2116
     76  OG       -16.0480    0.3760   28.8790 O.3   128  SER128     -0.2180
     77  N        -10.2550   -2.9050   28.9470 N.3   131  ARG131     -0.1245
     78  CA       -10.6280   -4.2430   29.3740 C.3   131  ARG131      0.1563
     79  C        -10.3390   -5.2650   28.2800 C.2   131  ARG131      0.2260
     80  O         -9.9040   -6.3750   28.5730 O.2   131  ARG131     -0.2867
     81  CB       -12.1030   -4.2910   29.7690 C.3   131  ARG131      0.0307
     82  CG       -12.4050   -3.5470   31.0600 C.3   131  ARG131      0.0489
     83  CD       -13.8570   -3.7400   31.4540 C.3   131  ARG131      0.2205
     84  NE       -14.7620   -3.1320   30.4780 N.pl3 131  ARG131     -0.0865
     85  CZ       -16.0760   -3.3360   30.4620 C.cat 131  ARG131      0.5346
     86  NH1      -16.6310   -4.1380   31.3690 N.pl3 131  ARG131      0.1354
     87  NH2      -16.8370   -2.7370   29.5450 N.pl3 131  ARG131      0.1354
     88  N        -19.6220   -6.5610   33.4210 N.3   154  ASP154     -0.1225
     89  CA       -19.4980   -5.3100   34.1720 C.3   154  ASP154      0.1805
     90  C        -19.5920   -5.6300   35.6650 C.2   154  ASP154      0.2598
     91  O        -20.1850   -6.6420   36.0570 O.2   154  ASP154     -0.2718
     92  CB       -20.6310   -4.3330   33.8070 C.3   154  ASP154      0.1424
     93  CG       -20.3250   -3.4680   32.5730 C.2   154  ASP154      0.3668
     94  OD1      -19.4090   -3.7990   31.7920 O.co2 154  ASP154     -0.2456
     95  OD2      -21.0370   -2.4550   32.3710 O.co2 154  ASP154     -0.2456
     96  N        -19.0240   -4.7600   36.4950 N.am  155  VAL155     -0.1966
     97  CA       -19.0070   -4.9820   37.9450 C.3   155  VAL155      0.1727
     98  C        -20.1880   -4.3120   38.6490 C.2   155  VAL155      0.2616
     99  O        -20.5990   -4.7420   39.7290 O.2   155  VAL155     -0.2715
    100  CB       -17.6910   -4.4910   38.5760 C.3   155  VAL155      0.0290
    101  CG1      -17.6520   -2.9530   38.6230 C.3   155  VAL155      0.0023
    102  CG2      -17.5160   -5.0790   39.9820 C.3   155  VAL155      0.0023
    103  N        -20.7370   -3.2690   38.0270 N.am  156  ASP156     -0.1971
    104  CA       -21.8070   -2.4700   38.6390 C.3   156  ASP156      0.1709
    105  C        -23.1540   -3.1860   38.5160 C.2   156  ASP156      0.2293
    106  O        -24.1450   -2.6250   38.0250 O.2   156  ASP156     -0.2864
    107  CB       -21.8730   -1.0660   38.0170 C.3   156  ASP156      0.1436
    108  CG       -22.0360   -1.0990   36.5060 C.2   156  ASP156      0.3671
    109  OD1      -21.4550   -2.0050   35.8660 O.co2 156  ASP156     -0.2456
    110  OD2      -22.7440   -0.2190   35.9570 O.co2 156  ASP156     -0.2456
    111  N        -21.5030   -5.2320   28.3130 N.3   211  ALA211     -0.1245
    112  CA       -21.4180   -5.6270   29.7230 C.3   211  ALA211      0.1562
    113  C        -21.5200   -7.1410   29.9870 C.2   211  ALA211      0.2260
    114  O        -21.4310   -7.5790   31.1390 O.2   211  ALA211     -0.2867
    115  CB       -22.4690   -4.8600   30.5580 C.3   211  ALA211      0.0290
    116  N        -19.6070    4.2990   21.1490 N.3   243  TRP243     -0.1241
    117  CA       -19.8250    3.5500   22.3860 C.3   243  TRP243      0.1605
    118  C        -18.6530    2.6340   22.7220 C.2   243  TRP243      0.2264
    119  O        -18.8200    1.5480   23.2930 O.2   243  TRP243     -0.2867
    120  CB       -21.1540    2.8100   22.3580 C.3   243  TRP243      0.0550
    121  CG       -22.2880    3.7660   22.5390 C.ar  243  TRP243      0.0003
    122  CD1      -23.2010    4.1560   21.6000 C.ar  243  TRP243      0.0946
    123  CD2      -22.5880    4.5130   23.7310 C.ar  243  TRP243      0.0152
    124  NE1      -24.0680    5.0880   22.1440 N.ar  243  TRP243     -0.2442
    125  CE2      -23.7150    5.3160   23.4510 C.ar  243  TRP243      0.0810
    126  CE3      -22.0210    4.5660   25.0110 C.ar  243  TRP243      0.0012
    127  CZ2      -24.2880    6.1640   24.4080 C.ar  243  TRP243      0.0191
    128  CZ3      -22.5880    5.4090   25.9580 C.ar  243  TRP243      0.0001
    129  CH2      -23.7090    6.1990   25.6480 C.ar  243  TRP243      0.0015
    130  N        -25.8850    3.7860   40.1980 N.3   289  LYS289     -0.1245
    131  CA       -24.6130    4.4810   40.3060 C.3   289  LYS289      0.1561
    132  C        -24.7620    5.8960   39.7640 C.2   289  LYS289      0.2260
    133  O        -25.8580    6.2890   39.3570 O.2   289  LYS289     -0.2867
    134  CB       -23.5270    3.7270   39.5470 C.3   289  LYS289      0.0271
    135  CG       -23.7570    3.6370   38.0510 C.3   289  LYS289      0.0035
    136  CD       -22.5750    2.9820   37.3750 C.3   289  LYS289      0.0206
    137  CE       -22.6310    3.1390   35.8620 C.3   289  LYS289      0.1093
    138  NZ       -23.7430    2.3820   35.2290 N.3   289  LYS289     -0.1314
@<TRIPOS>BOND
     1   116   117    1
     2   122   124   ar
     3   122   121   ar
     4   124   125   ar
     5   120   117    1
     6   120   121    1
     7   117   118    1
     8   121   123   ar
     9   118   119    2
    10   125   123   ar
    11   125   127   ar
    12   123   126   ar
    13   127   129   ar
    14   126   128   ar
    15   129   128   ar
    16    79    80    2
    17    79    78    1
    18   111   112    1
    19    74    73    2
    20    73    72    1
    21    63    61   ar
    22    63    62   ar
    23    76    75    1
    24    77    78    1
    25    61    59   ar
    26    78    81    1
    27    62    60   ar
    28    75    72    1
    29    87    85    1
    30   112   113    1
    31   112   115    1
    32    81    82    1
    33    72    71    1
    34   113   114    2
    35    59    58   ar
    36    59    57   ar
    37    60    57   ar
    38    85    84    2
    39    85    86    1
    40    84    83    1
    41    71    66   am
    42    58    56   ar
    43    64    65    1
    44    57    55   ar
    45    52    53    2
    46    52    51    1
    47    82    83    1
    48    66    67    2
    49    66    65    1
    50    65    68    1
    51    56    55   ar
    52    94    93   ar
    53    55    54    1
    54    50    51    1
    55    51    54    1
    56    95    93   ar
    57    11     9   ar
    58    11    10   ar
    59    93    92    1
    60     9     7   ar
    61    68    70    1
    62    68    69    1
    63    10     8   ar
    64    88    89    1
    65     7     6   ar
    66    92    89    1
    67     8     6   ar
    68    89    90    1
    69     6     5    1
    70   138   137    1
    71     5     2    1
    72    90    91    2
    73    90    96   am
    74   137   136    1
    75   109   108   ar
    76   110   108   ar
    77     1     2    1
    78    28    27    1
    79    96    97    1
    80   108   107    1
    81     2     3    1
    82    49    48    1
    83    17    19    1
    84    17    16    1
    85    46    48   ar
    86    46    44   ar
    87    27    26    1
    88   136   135    1
    89    48    47   ar
    90     4     3    2
    91    18    16    1
    92    16    13    1
    93    97   100    1
    94    97    98    1
    95   107   104    1
    96   106   105    2
    97   103   104    1
    98   103    98   am
    99   135   134    1
   100    44    43   ar
   101    47    45   ar
   102   105   104    1
   103   100   101    1
   104   100   102    1
   105    98    99    2
   106    26    25    1
   107    43    45   ar
   108    43    42    1
   109    13    12    1
   110    13    14    1
   111   133   132    2
   112    15    14    2
   113   134   131    1
   114    25    24    1
   115    14    20   am
   116   132   131    1
   117    42    39    1
   118   130   131    1
   119    24    21    1
   120    20    21    1
   121    21    22    1
   122    39    38    1
   123    39    40    1
   124    38    31   am
   125    29    22   am
   126    29    30    1
   127    22    23    2
   128    41    40    2
   129    31    30    1
   130    31    32    2
   131    33    30    1
   132    33    34    1
   133    35    34    1
   134    35    36    1
   135    37    36    1
