@<TRIPOS>MOLECULE
tmp/3v0qA01.pdb
 166 161 0 0 0
SMALL
GASTEIGER

@<TRIPOS>ATOM
      1  N          5.1280   45.8000   26.8500 N.3   156  ASP156     -0.1239
      2  CA         3.7860   45.8550   27.4410 C.3   156  ASP156      0.1674
      3  C          3.0640   44.5120   27.2960 C.2   156  ASP156      0.2266
      4  O          1.9620   44.4470   26.7560 O.2   156  ASP156     -0.2867
      5  CB         2.9490   47.0010   26.8250 C.3   156  ASP156      0.1410
      6  CG         2.8220   46.8930   25.3030 C.2   156  ASP156      0.3668
      7  OD1        3.7930   46.4500   24.6570 O.co2 156  ASP156     -0.2456
      8  OD2        1.7590   47.2550   24.7490 O.co2 156  ASP156     -0.2456
      9  N          0.3690   38.6800   13.1080 N.3   176  HIS176     -0.1227
     10  CA        -0.2960   39.6860   13.9400 C.3   176  HIS176      0.1737
     11  C         -1.6590   39.1270   14.3160 C.2   176  HIS176      0.2438
     12  O         -2.3670   38.6060   13.4490 O.2   176  HIS176     -0.2733
     13  CB        -0.4560   40.9660   13.1080 C.3   176  HIS176      0.0758
     14  CG        -0.9470   42.1580   13.8710 C.ar  176  HIS176      0.0818
     15  ND1       -2.1750   42.1880   14.5000 N.ar  176  HIS176     -0.2268
     16  CD2       -0.4010   43.3860   14.0500 C.ar  176  HIS176      0.1154
     17  CE1       -2.3530   43.3780   15.0550 C.ar  176  HIS176      0.1986
     18  NE2       -1.2930   44.1250   14.7910 N.ar  176  HIS176     -0.2212
     19  N         -2.0410   39.2330   15.6020 N.am  177  PRO177     -0.2718
     20  CA        -3.2910   38.6410   16.0860 C.3   177  PRO177      0.1535
     21  C         -4.5690   39.2370   15.4430 C.2   177  PRO177      0.2599
     22  O         -5.5980   38.5630   15.3750 O.2   177  PRO177     -0.2715
     23  CB        -3.2480   38.9320   17.5940 C.3   177  PRO177      0.0310
     24  CG        -2.3180   40.1020   17.7390 C.3   177  PRO177      0.0237
     25  CD        -1.2820   39.8910   16.6850 C.3   177  PRO177      0.0939
     26  N         -4.5090   40.4790   14.9730 N.am  178  GLY178     -0.1941
     27  CA        -5.6910   41.1060   14.3940 C.3   178  GLY178      0.2014
     28  C         -5.9420   40.7410   12.9350 C.2   178  GLY178      0.2638
     29  O         -6.9990   41.0560   12.3770 O.2   178  GLY178     -0.2714
     30  N         -4.9870   40.0610   12.3050 N.am  179  PHE179     -0.1973
     31  CA        -5.0660   39.8770   10.8550 C.3   179  PHE179      0.1639
     32  C         -4.7790   38.4620   10.3480 C.2   179  PHE179      0.2290
     33  O         -4.7810   38.2340    9.1400 O.2   179  PHE179     -0.2864
     34  CB        -4.1240   40.8650   10.1500 C.3   179  PHE179      0.0560
     35  CG        -4.4410   42.3090   10.4310 C.ar  179  PHE179     -0.0200
     36  CD1       -3.8320   42.9800   11.4860 C.ar  179  PHE179     -0.0042
     37  CD2       -5.3690   42.9910    9.6550 C.ar  179  PHE179     -0.0042
     38  CE1       -4.1270   44.3080   11.7500 C.ar  179  PHE179     -0.0003
     39  CE2       -5.6680   44.3180    9.9120 C.ar  179  PHE179     -0.0003
     40  CZ        -5.0440   44.9840   10.9580 C.ar  179  PHE179     -0.0000
     41  N         -7.1970   37.3670    7.8640 N.3   182  SER182     -0.1217
     42  CA        -7.6080   38.3930    6.9010 C.3   182  SER182      0.1889
     43  C         -7.0350   38.1910    5.5090 C.2   182  SER182      0.2288
     44  O         -5.9520   37.6430    5.3520 O.2   182  SER182     -0.2866
     45  CB        -7.1890   39.7820    7.3920 C.3   182  SER182      0.2089
     46  OG        -7.7170   40.0370    8.6750 O.3   182  SER182     -0.2183
     47  N         -7.1270   43.5240    3.2180 N.3   186  ALA186     -0.1245
     48  CA        -7.5110   44.0530    4.5140 C.3   186  ALA186      0.1562
     49  C         -6.2860   44.3270    5.3920 C.2   186  ALA186      0.2260
     50  O         -6.3800   45.0480    6.3790 O.2   186  ALA186     -0.2867
     51  CB        -8.4840   43.1040    5.2150 C.3   186  ALA186      0.0290
     52  N         -3.2320   46.0860    6.9280 N.3   188  THR188     -0.1218
     53  CA        -2.9870   47.5210    7.0360 C.3   188  THR188      0.1862
     54  C         -1.5470   47.8910    6.6720 C.2   188  THR188      0.2287
     55  O         -0.8700   48.5920    7.4210 O.2   188  THR188     -0.2866
     56  CB        -3.3250   48.0440    8.4460 C.3   188  THR188      0.1770
     57  OG1       -2.5770   47.3070    9.4200 O.3   188  THR188     -0.2211
     58  CG2       -4.8050   47.8720    8.7320 C.3   188  THR188      0.0375
     59  N          0.3580   39.4770    7.4830 N.3   207  TYR207     -0.1241
     60  CA         0.6250   40.7190    8.1810 C.3   207  TYR207      0.1605
     61  C          1.3650   40.3720    9.4630 C.2   207  TYR207      0.2264
     62  O          0.7750   39.8130   10.3950 O.2   207  TYR207     -0.2867
     63  CB        -0.6590   41.4900    8.4920 C.3   207  TYR207      0.0534
     64  CG        -0.3490   42.9130    8.9210 C.ar  207  TYR207     -0.0201
     65  CD1       -0.0010   43.8830    7.9820 C.ar  207  TYR207     -0.0009
     66  CD2       -0.3460   43.2690   10.2660 C.ar  207  TYR207     -0.0009
     67  CE1        0.3120   45.1960    8.3780 C.ar  207  TYR207      0.0417
     68  CE2       -0.0310   44.5690   10.6690 C.ar  207  TYR207      0.0417
     69  CZ         0.2950   45.5240    9.7220 C.ar  207  TYR207      0.1957
     70  OH         0.5990   46.8170   10.1300 O.3   207  TYR207     -0.2866
     71  N          1.8670   52.4070    9.9900 N.3   243  TRP243     -0.1241
     72  CA         2.1770   51.7050   11.2370 C.3   243  TRP243      0.1605
     73  C          3.6670   51.6360   11.5540 C.2   243  TRP243      0.2264
     74  O          4.1640   50.6490   12.1160 O.2   243  TRP243     -0.2867
     75  CB         1.5020   50.3370   11.2620 C.3   243  TRP243      0.0550
     76  CG         0.0240   50.5330   11.4180 C.ar  243  TRP243      0.0003
     77  CD1       -0.9460   50.3730   10.4580 C.ar  243  TRP243      0.0946
     78  CD2       -0.6430   51.0070   12.5900 C.ar  243  TRP243      0.0152
     79  NE1       -2.1810   50.6880   10.9850 N.ar  243  TRP243     -0.2442
     80  CE2       -2.0230   51.0820   12.2870 C.ar  243  TRP243      0.0810
     81  CE3       -0.2130   51.3560   13.8730 C.ar  243  TRP243      0.0012
     82  CZ2       -2.9700   51.4830   13.2250 C.ar  243  TRP243      0.0191
     83  CZ3       -1.1570   51.7660   14.8050 C.ar  243  TRP243      0.0001
     84  CH2       -2.5200   51.8250   14.4730 C.ar  243  TRP243      0.0015
     85  N          6.4720   48.6790   12.2090 N.3   246  GLU246     -0.1245
     86  CA         5.7300   47.4910   11.7380 C.3   246  GLU246      0.1567
     87  C          5.4900   47.5120   10.2240 C.2   246  GLU246      0.2260
     88  O          5.4900   46.4710    9.5570 O.2   246  GLU246     -0.2867
     89  CB         4.3940   47.3940   12.4640 C.3   246  GLU246      0.0388
     90  CG         3.5450   46.2090   12.0740 C.3   246  GLU246      0.1160
     91  CD         2.3370   46.0670   12.9780 C.2   246  GLU246      0.3649
     92  OE1        1.2850   46.6610   12.6670 O.co2 246  GLU246     -0.2457
     93  OE2        2.4450   45.3760   14.0100 O.co2 246  GLU246     -0.2457
     94  N         -0.6280   37.8390   21.2060 N.3   268  TRP268     -0.1227
     95  CA        -2.0750   37.8510   21.3380 C.3   268  TRP268      0.1737
     96  C         -2.5420   38.9620   22.2660 C.2   268  TRP268      0.2595
     97  O         -1.7580   39.5090   23.0480 O.2   268  TRP268     -0.2718
     98  CB        -2.5470   36.4810   21.8420 C.3   268  TRP268      0.0564
     99  CG        -4.0250   36.3000   21.6390 C.ar  268  TRP268      0.0003
    100  CD1       -4.9980   36.3040   22.5980 C.ar  268  TRP268      0.0946
    101  CD2       -4.6870   36.1250   20.3880 C.ar  268  TRP268      0.0152
    102  NE1       -6.2330   36.1240   22.0110 N.ar  268  TRP268     -0.2442
    103  CE2       -6.0670   36.0280   20.6530 C.ar  268  TRP268      0.0810
    104  CE3       -4.2450   36.0500   19.0620 C.ar  268  TRP268      0.0012
    105  CZ2       -7.0110   35.8390   19.6440 C.ar  268  TRP268      0.0191
    106  CZ3       -5.1870   35.8780   18.0560 C.ar  268  TRP268      0.0001
    107  CH2       -6.5550   35.7740   18.3560 C.ar  268  TRP268      0.0015
    108  N         -3.8230   39.3150   22.1660 N.am  269  ASP269     -0.1974
    109  CA        -4.4310   40.2500   23.1100 C.3   269  ASP269      0.1709
    110  C         -5.7730   39.6570   23.5020 C.2   269  ASP269      0.2293
    111  O         -6.7180   39.6670   22.7180 O.2   269  ASP269     -0.2864
    112  CB        -4.5980   41.6440   22.4860 C.3   269  ASP269      0.1436
    113  CG        -5.2700   42.6440   23.4330 C.2   269  ASP269      0.3671
    114  OD1       -6.0510   42.2280   24.3240 O.co2 269  ASP269     -0.2456
    115  OD2       -5.0210   43.8580   23.2770 O.co2 269  ASP269     -0.2456
    116  N         -9.0260   41.9470   23.8870 N.3   272  LEU272     -0.1231
    117  CA        -9.5240   42.4320   22.6130 C.3   272  LEU272      0.1693
    118  C        -10.0980   41.3350   21.7250 C.2   272  LEU272      0.2591
    119  O        -11.1190   41.5530   21.0720 O.2   272  LEU272     -0.2718
    120  CB        -8.4210   43.1880   21.8600 C.3   272  LEU272      0.0284
    121  CG        -8.8550   43.8280   20.5440 C.3   272  LEU272      0.0019
    122  CD1       -9.6580   45.1010   20.8240 C.3   272  LEU272      0.0001
    123  CD2       -7.6460   44.1390   19.6520 C.3   272  LEU272      0.0001
    124  N         -9.4570   40.1630   21.7190 N.am  273  LEU273     -0.1980
    125  CA        -9.7240   39.1210   20.7230 C.3   273  LEU273      0.1596
    126  C        -10.1650   37.7750   21.2970 C.2   273  LEU273      0.2287
    127  O        -10.3400   36.8090   20.5490 O.2   273  LEU273     -0.2864
    128  CB        -8.4850   38.8980   19.8460 C.3   273  LEU273      0.0297
    129  CG        -8.0620   40.1580   19.0910 C.3   273  LEU273      0.0022
    130  CD1       -6.6600   40.0160   18.5120 C.3   273  LEU273      0.0001
    131  CD2       -9.0880   40.4630   17.9920 C.3   273  LEU273      0.0001
    132  N         -0.8410   40.6060   25.5240 N.3   286  ALA286     -0.1245
    133  CA        -0.8410   42.0230   25.8640 C.3   286  ALA286      0.1562
    134  C         -1.1710   42.2770   27.3290 C.2   286  ALA286      0.2260
    135  O         -1.9670   41.5630   27.9280 O.2   286  ALA286     -0.2867
    136  CB        -1.8330   42.7620   24.9880 C.3   286  ALA286      0.0290
    137  N         -3.3460   48.5630   28.8120 N.3   289  LYS289     -0.1245
    138  CA        -2.7570   49.8740   29.0300 C.3   289  LYS289      0.1561
    139  C         -3.6290   50.9890   28.4820 C.2   289  LYS289      0.2260
    140  O         -4.4330   50.7850   27.5680 O.2   289  LYS289     -0.2867
    141  CB        -1.3620   49.9590   28.4160 C.3   289  LYS289      0.0271
    142  CG        -1.3360   50.0120   26.9020 C.3   289  LYS289      0.0035
    143  CD         0.1020   50.0910   26.4020 C.3   289  LYS289      0.0206
    144  CE         0.1660   50.3210   24.8980 C.3   289  LYS289      0.1093
    145  NZ        -0.2150   49.1040   24.1290 N.3   289  LYS289     -0.1314
    146  N         -3.2230   53.8340   26.3640 N.3   291  HIS291     -0.1241
    147  CA        -2.2170   54.3090   25.4010 C.3   291  HIS291      0.1621
    148  C         -1.8760   55.7900   25.5770 C.2   291  HIS291      0.2264
    149  O         -0.7070   56.1590   25.7170 O.2   291  HIS291     -0.2867
    150  CB        -2.6620   54.0570   23.9540 C.3   291  HIS291      0.0745
    151  CG        -2.9540   52.6220   23.6400 C.ar  291  HIS291      0.0817
    152  ND1       -4.0530   51.9550   24.1390 N.ar  291  HIS291     -0.2268
    153  CD2       -2.3050   51.7350   22.8470 C.ar  291  HIS291      0.1154
    154  CE1       -4.0630   50.7170   23.6770 C.ar  291  HIS291      0.1986
    155  NE2       -3.0130   50.5570   22.8900 N.ar  291  HIS291     -0.2212
    156  N          1.8070   56.9230   27.1730 N.3   295  ARG295     -0.1245
    157  CA         2.7010   57.4210   26.1190 C.3   295  ARG295      0.1563
    158  C          3.1050   58.8860   26.2750 C.2   295  ARG295      0.2260
    159  O          3.9480   59.3850   25.5250 O.2   295  ARG295     -0.2867
    160  CB         2.0730   57.2180   24.7360 C.3   295  ARG295      0.0307
    161  CG         2.1760   55.7870   24.2270 C.3   295  ARG295      0.0489
    162  CD         1.3790   55.6350   22.9470 C.3   295  ARG295      0.2205
    163  NE         1.4420   54.2860   22.3860 N.pl3 295  ARG295     -0.0865
    164  CZ         0.6190   53.8520   21.4330 C.cat 295  ARG295      0.5346
    165  NH1        0.7360   52.6170   20.9580 N.pl3 295  ARG295      0.1354
    166  NH2       -0.3220   54.6680   20.9480 N.pl3 295  ARG295      0.1354
@<TRIPOS>BOND
     1    47    48    1
     2    48    51    1
     3    48    49    1
     4    44    43    2
     5    49    50    2
     6    43    42    1
     7    54    53    1
     8    54    55    2
     9    42    45    1
    10    42    41    1
    11    52    53    1
    12    53    56    1
    13    45    46    1
    14    59    60    1
    15    65    67   ar
    16    65    64   ar
    17    60    63    1
    18    60    61    1
    19    67    69   ar
    20    56    58    1
    21    56    57    1
    22    63    64    1
    23    64    66   ar
    24    33    32    2
    25    61    62    2
    26    88    87    2
    27    37    39   ar
    28    37    35   ar
    29    69    70    1
    30    69    68   ar
    31    39    40   ar
    32    71    72    1
    33    34    35    1
    34    34    31    1
    35    87    86    1
    36    66    68   ar
    37    32    31    1
    38    35    36   ar
    39    77    79   ar
    40    77    76   ar
    41    31    30    1
    42    40    38   ar
    43    79    80   ar
    44    72    75    1
    45    72    73    1
    46    75    76    1
    47    76    78   ar
    48    36    38   ar
    49    73    74    2
    50    86    85    1
    51    86    89    1
    52    90    89    1
    53    90    91    1
    54    80    78   ar
    55    80    82   ar
    56    30    28   am
    57    29    28    2
    58    78    81   ar
    59    92    91   ar
    60    28    27    1
    61    91    93   ar
    62     9    10    1
    63    13    14    1
    64    13    10    1
    65    82    84   ar
    66    12    11    2
    67    14    16   ar
    68    14    15   ar
    69    81    83   ar
    70    10    11    1
    71    16    18   ar
    72    11    19   am
    73    27    26    1
    74    84    83   ar
    75    15    17   ar
    76    18    17   ar
    77    26    21   am
    78    22    21    2
    79    21    20    1
    80    19    20    1
    81    19    25    1
    82    20    23    1
    83    25    24    1
    84    23    24    1
    85   131   129    1
    86   106   107   ar
    87   106   104   ar
    88   107   105   ar
    89   130   129    1
    90   104   101   ar
    91   129   128    1
    92   105   103   ar
    93   123   121    1
    94   128   125    1
    95   101   103   ar
    96   101    99   ar
    97   121   122    1
    98   121   120    1
    99   127   126    2
   100   103   102   ar
   101   125   126    1
   102   125   124    1
   103   166   164    1
   104   165   164    1
   105   119   118    2
   106    94    95    1
   107    95    98    1
   108    95    96    1
   109   164   163    2
   110    99    98    1
   111    99   100   ar
   112   124   118   am
   113   118   117    1
   114   120   117    1
   115   102   100   ar
   116   108    96   am
   117   108   109    1
   118    96    97    2
   119   163   162    1
   120   112   109    1
   121   112   113    1
   122   117   116    1
   123   111   110    2
   124   153   155   ar
   125   153   151   ar
   126   155   154   ar
   127   162   161    1
   128   109   110    1
   129   115   113   ar
   130   113   114   ar
   131   151   150    1
   132   151   152   ar
   133   154   152   ar
   134   150   147    1
   135   145   144    1
   136   161   160    1
   137     7     6   ar
   138   160   157    1
   139     8     6   ar
   140   144   143    1
   141   136   133    1
   142     6     5    1
   143   147   148    1
   144   147   146    1
   145   132   133    1
   146   159   158    2
   147   148   149    2
   148   133   134    1
   149   157   158    1
   150   157   156    1
   151   143   142    1
   152     4     3    2
   153     5     2    1
   154     1     2    1
   155   142   141    1
   156     3     2    1
   157   134   135    2
   158   140   139    2
   159   141   138    1
   160   139   138    1
   161   137   138    1
