@<TRIPOS>MOLECULE
tmp/3v0qA00.pdb
 157 152 0 0 0
SMALL
GASTEIGER

@<TRIPOS>ATOM
      1  N         12.3600   47.2790   25.0490 N.3    64  PHE64      -0.1241
      2  CA        12.5200   48.7100   25.2900 C.3    64  PHE64       0.1605
      3  C         11.5780   49.1830   26.3660 C.2    64  PHE64       0.2264
      4  O         10.3780   48.9310   26.3110 O.2    64  PHE64      -0.2867
      5  CB        12.2960   49.4990   23.9990 C.3    64  PHE64       0.0534
      6  CG        13.4280   49.3620   23.0260 C.ar   64  PHE64      -0.0203
      7  CD1       13.6540   48.1600   22.3790 C.ar   64  PHE64      -0.0042
      8  CD2       14.2860   50.4290   22.7820 C.ar   64  PHE64      -0.0042
      9  CE1       14.7200   48.0230   21.4780 C.ar   64  PHE64      -0.0003
     10  CE2       15.3570   50.2980   21.9040 C.ar   64  PHE64      -0.0003
     11  CZ        15.5700   49.1020   21.2490 C.ar   64  PHE64      -0.0000
     12  N         11.1830   52.6770   27.7900 N.3    66  ILE66      -0.1231
     13  CA        11.5130   54.0960   27.7360 C.3    66  ILE66       0.1692
     14  C         10.3850   54.8850   28.3930 C.2    66  ILE66       0.2591
     15  O          9.1990   54.5800   28.1990 O.2    66  ILE66      -0.2718
     16  CB        11.6520   54.5510   26.2560 C.3    66  ILE66       0.0266
     17  CG1       12.7050   53.7170   25.5220 C.3    66  ILE66       0.0019
     18  CG2       11.9660   56.0410   26.1490 C.3    66  ILE66       0.0020
     19  CD1       14.0890   53.9740   25.9860 C.3    66  ILE66       0.0001
     20  N         10.7550   55.8970   29.1730 N.am   67  LYS67      -0.1980
     21  CA         9.7850   56.7220   29.8870 C.3    67  LYS67       0.1596
     22  C          8.8740   55.8740   30.7850 C.2    67  LYS67       0.2287
     23  O          9.3760   55.0970   31.5910 O.2    67  LYS67      -0.2864
     24  CB         9.0220   57.6490   28.9230 C.3    67  LYS67       0.0298
     25  CG         9.9520   58.6600   28.2450 C.3    67  LYS67       0.0038
     26  CD         9.2240   59.6330   27.3100 C.3    67  LYS67       0.0206
     27  CE         8.8120   58.9710   25.9920 C.3    67  LYS67       0.1093
     28  NZ         8.2530   59.9560   24.9960 N.3    67  LYS67      -0.1314
     29  N          7.1480   53.3030   30.3270 N.3    69  TYR69      -0.1241
     30  CA         7.0690   51.8740   30.0590 C.3    69  TYR69       0.1605
     31  C          7.9750   51.0310   30.9610 C.2    69  TYR69       0.2264
     32  O          7.9240   49.8130   30.9150 O.2    69  TYR69      -0.2867
     33  CB         7.3250   51.5780   28.5770 C.3    69  TYR69       0.0534
     34  CG         6.1200   51.8360   27.6980 C.ar   69  TYR69      -0.0201
     35  CD1        5.5590   50.8170   26.9390 C.ar   69  TYR69      -0.0009
     36  CD2        5.5330   53.1020   27.6370 C.ar   69  TYR69      -0.0009
     37  CE1        4.4470   51.0550   26.1370 C.ar   69  TYR69       0.0417
     38  CE2        4.4160   53.3500   26.8400 C.ar   69  TYR69       0.0417
     39  CZ         3.8830   52.3230   26.0910 C.ar   69  TYR69       0.1957
     40  OH         2.7870   52.5590   25.2920 O.3    69  TYR69      -0.2866
     41  N          5.9830   58.9620   20.8060 N.3   124  TRP124     -0.1241
     42  CA         5.9590   57.5040   20.9580 C.3   124  TRP124      0.1605
     43  C          6.2660   56.8280   19.6250 C.2   124  TRP124      0.2264
     44  O          6.9190   55.7760   19.5940 O.2   124  TRP124     -0.2867
     45  CB         4.6120   57.0170   21.5160 C.3   124  TRP124      0.0550
     46  CG         3.4280   57.2220   20.5960 C.ar  124  TRP124      0.0003
     47  CD1        2.5710   58.2910   20.5780 C.ar  124  TRP124      0.0946
     48  CD2        2.9610   56.3170   19.5840 C.ar  124  TRP124      0.0152
     49  NE1        1.6030   58.1070   19.6110 N.ar  124  TRP124     -0.2442
     50  CE2        1.8230   56.9040   18.9860 C.ar  124  TRP124      0.0810
     51  CE3        3.3990   55.0660   19.1240 C.ar  124  TRP124      0.0012
     52  CZ2        1.1200   56.2850   17.9500 C.ar  124  TRP124      0.0191
     53  CZ3        2.6990   54.4490   18.1060 C.ar  124  TRP124      0.0001
     54  CH2        1.5710   55.0590   17.5250 C.ar  124  TRP124      0.0015
     55  N          9.9510   56.7440   19.4550 N.3   127  VAL127     -0.1231
     56  CA        10.4750   55.7550   20.3940 C.3   127  VAL127      0.1692
     57  C         10.3570   54.3600   19.7880 C.2   127  VAL127      0.2592
     58  O         11.3070   53.5600   19.7990 O.2   127  VAL127     -0.2718
     59  CB         9.7240   55.7650   21.7500 C.3   127  VAL127      0.0266
     60  CG1       10.2380   54.6340   22.6500 C.3   127  VAL127      0.0020
     61  CG2        9.8830   57.1240   22.4590 C.3   127  VAL127      0.0020
     62  N          9.1760   54.0630   19.2570 N.am  128  SER128     -0.1952
     63  CA         8.9250   52.7440   18.6820 C.3   128  SER128      0.1924
     64  C          9.7850   52.4980   17.4390 C.2   128  SER128      0.2314
     65  O         10.3600   51.4290   17.2750 O.2   128  SER128     -0.2863
     66  CB         7.4380   52.6010   18.3300 C.3   128  SER128      0.2116
     67  OG         7.1690   51.3510   17.7100 O.3   128  SER128     -0.2180
     68  N         13.7090   51.8940   17.7640 N.3   131  ARG131     -0.1245
     69  CA        14.1310   50.5610   18.1790 C.3   131  ARG131      0.1563
     70  C         14.9500   49.8780   17.0830 C.2   131  ARG131      0.2260
     71  O         15.9150   49.1630   17.3670 O.2   131  ARG131     -0.2867
     72  CB        12.9190   49.6890   18.5130 C.3   131  ARG131      0.0307
     73  CG        12.1570   50.1440   19.7550 C.3   131  ARG131      0.0489
     74  CD        11.1140   49.0890   20.1100 C.3   131  ARG131      0.2205
     75  NE         9.9950   49.0710   19.1680 N.pl3 131  ARG131     -0.0865
     76  CZ         8.9850   48.2150   19.2700 C.cat 131  ARG131      0.5346
     77  NH1        7.9800   48.2630   18.4100 N.pl3 131  ARG131      0.1354
     78  NH2        8.9890   47.3070   20.2530 N.pl3 131  ARG131      0.1354
     79  N          7.9300   43.6860   22.2240 N.3   154  ASP154     -0.1225
     80  CA         7.3620   44.7590   23.0470 C.3   154  ASP154      0.1805
     81  C          7.4320   44.4280   24.5440 C.2   154  ASP154      0.2598
     82  O          7.4250   43.2540   24.9250 O.2   154  ASP154     -0.2718
     83  CB         5.8890   44.9420   22.6810 C.3   154  ASP154      0.1424
     84  CG         5.6890   45.7760   21.4260 C.2   154  ASP154      0.3668
     85  OD1        6.6220   45.9510   20.6110 O.co2 154  ASP154     -0.2456
     86  OD2        4.5770   46.2740   21.2520 O.co2 154  ASP154     -0.2456
     87  N          7.4390   45.4660   25.3870 N.am  155  VAL155     -0.1966
     88  CA         7.5300   45.2920   26.8400 C.3   155  VAL155      0.1727
     89  C          6.1420   45.2280   27.4990 C.2   155  VAL155      0.2616
     90  O          5.9950   44.6410   28.5690 O.2   155  VAL155     -0.2715
     91  CB         8.3540   46.4400   27.4910 C.3   155  VAL155      0.0290
     92  CG1        7.5320   47.7080   27.5440 C.3   155  VAL155      0.0023
     93  CG2        8.8440   46.0590   28.8910 C.3   155  VAL155      0.0023
     94  N          5.1280   45.8000   26.8500 N.am  156  ASP156     -0.1971
     95  CA         3.7860   45.8550   27.4410 C.3   156  ASP156      0.1709
     96  C          3.0640   44.5120   27.2960 C.2   156  ASP156      0.2293
     97  O          1.9620   44.4470   26.7560 O.2   156  ASP156     -0.2864
     98  CB         2.9490   47.0010   26.8250 C.3   156  ASP156      0.1436
     99  CG         2.8220   46.8930   25.3030 C.2   156  ASP156      0.3671
    100  OD1        3.7930   46.4500   24.6570 O.co2 156  ASP156     -0.2456
    101  OD2        1.7590   47.2550   24.7490 O.co2 156  ASP156     -0.2456
    102  N          5.6400   43.6350   17.1500 N.3   211  ALA211     -0.1245
    103  CA         5.8920   43.3810   18.5670 C.3   211  ALA211      0.1562
    104  C          6.6790   42.0820   18.8270 C.2   211  ALA211      0.2260
    105  O          7.0060   41.7860   19.9730 O.2   211  ALA211     -0.2867
    106  CB         4.5700   43.3690   19.3300 C.3   211  ALA211      0.0290
    107  N          1.8670   52.4070    9.9900 N.3   243  TRP243     -0.1241
    108  CA         2.1770   51.7050   11.2370 C.3   243  TRP243      0.1605
    109  C          3.6670   51.6360   11.5540 C.2   243  TRP243      0.2264
    110  O          4.1640   50.6490   12.1160 O.2   243  TRP243     -0.2867
    111  CB         1.5020   50.3370   11.2620 C.3   243  TRP243      0.0550
    112  CG         0.0240   50.5330   11.4180 C.ar  243  TRP243      0.0003
    113  CD1       -0.9460   50.3730   10.4580 C.ar  243  TRP243      0.0946
    114  CD2       -0.6430   51.0070   12.5900 C.ar  243  TRP243      0.0152
    115  NE1       -2.1810   50.6880   10.9850 N.ar  243  TRP243     -0.2442
    116  CE2       -2.0230   51.0820   12.2870 C.ar  243  TRP243      0.0810
    117  CE3       -0.2130   51.3560   13.8730 C.ar  243  TRP243      0.0012
    118  CZ2       -2.9700   51.4830   13.2250 C.ar  243  TRP243      0.0191
    119  CZ3       -1.1570   51.7660   14.8050 C.ar  243  TRP243      0.0001
    120  CH2       -2.5200   51.8250   14.4730 C.ar  243  TRP243      0.0015
    121  N         -3.3460   48.5630   28.8120 N.3   289  LYS289     -0.1245
    122  CA        -2.7570   49.8740   29.0300 C.3   289  LYS289      0.1561
    123  C         -3.6290   50.9890   28.4820 C.2   289  LYS289      0.2260
    124  O         -4.4330   50.7850   27.5680 O.2   289  LYS289     -0.2867
    125  CB        -1.3620   49.9590   28.4160 C.3   289  LYS289      0.0271
    126  CG        -1.3360   50.0120   26.9020 C.3   289  LYS289      0.0035
    127  CD         0.1020   50.0910   26.4020 C.3   289  LYS289      0.0206
    128  CE         0.1660   50.3210   24.8980 C.3   289  LYS289      0.1093
    129  NZ        -0.2150   49.1040   24.1290 N.3   289  LYS289     -0.1314
    130  N         -3.2230   53.8340   26.3640 N.3   291  HIS291     -0.1241
    131  CA        -2.2170   54.3090   25.4010 C.3   291  HIS291      0.1621
    132  C         -1.8760   55.7900   25.5770 C.2   291  HIS291      0.2264
    133  O         -0.7070   56.1590   25.7170 O.2   291  HIS291     -0.2867
    134  CB        -2.6620   54.0570   23.9540 C.3   291  HIS291      0.0745
    135  CG        -2.9540   52.6220   23.6400 C.ar  291  HIS291      0.0817
    136  ND1       -4.0530   51.9550   24.1390 N.ar  291  HIS291     -0.2268
    137  CD2       -2.3050   51.7350   22.8470 C.ar  291  HIS291      0.1154
    138  CE1       -4.0630   50.7170   23.6770 C.ar  291  HIS291      0.1986
    139  NE2       -3.0130   50.5570   22.8900 N.ar  291  HIS291     -0.2212
    140  N         -0.0700   56.5200   29.0850 N.3   294  VAL294     -0.1231
    141  CA         1.2220   55.8860   29.3010 C.3   294  VAL294      0.1692
    142  C          2.2690   56.3580   28.2900 C.2   294  VAL294      0.2591
    143  O          3.4720   56.2400   28.5350 O.2   294  VAL294     -0.2718
    144  CB         1.0900   54.3470   29.2960 C.3   294  VAL294      0.0266
    145  CG1        0.9150   53.8250   27.8690 C.3   294  VAL294      0.0020
    146  CG2        2.2940   53.6950   29.9860 C.3   294  VAL294      0.0020
    147  N          1.8070   56.9230   27.1730 N.am  295  ARG295     -0.1980
    148  CA         2.7010   57.4210   26.1190 C.3   295  ARG295      0.1597
    149  C          3.1050   58.8860   26.2750 C.2   295  ARG295      0.2287
    150  O          3.9480   59.3850   25.5250 O.2   295  ARG295     -0.2864
    151  CB         2.0730   57.2180   24.7360 C.3   295  ARG295      0.0334
    152  CG         2.1760   55.7870   24.2270 C.3   295  ARG295      0.0492
    153  CD         1.3790   55.6350   22.9470 C.3   295  ARG295      0.2205
    154  NE         1.4420   54.2860   22.3860 N.pl3 295  ARG295     -0.0865
    155  CZ         0.6190   53.8520   21.4330 C.cat 295  ARG295      0.5346
    156  NH1        0.7360   52.6170   20.9580 N.pl3 295  ARG295      0.1354
    157  NH2       -0.3220   54.6680   20.9480 N.pl3 295  ARG295      0.1354
@<TRIPOS>BOND
     1   107   108    1
     2   113   115   ar
     3   113   112   ar
     4   115   116   ar
     5   108   111    1
     6   108   109    1
     7   111   112    1
     8   112   114   ar
     9   109   110    2
    10   116   114   ar
    11   116   118   ar
    12   114   117   ar
    13   118   120   ar
    14   117   119   ar
    15   120   119   ar
    16    70    71    2
    17    70    69    1
    18   102   103    1
    19    65    64    2
    20    64    63    1
    21    54    52   ar
    22    54    53   ar
    23    67    66    1
    24    68    69    1
    25    52    50   ar
    26    53    51   ar
    27    69    72    1
    28    66    63    1
    29    77    76    1
    30    72    73    1
    31   103   104    1
    32   103   106    1
    33    63    62    1
    34   104   105    2
    35    50    48   ar
    36    50    49   ar
    37    51    48   ar
    38    75    76    2
    39    75    74    1
    40    62    57   am
    41    76    78    1
    42    55    56    1
    43    48    46   ar
    44    44    43    2
    45    49    47   ar
    46    43    42    1
    47    73    74    1
    48    57    58    2
    49    57    56    1
    50    56    59    1
    51    47    46   ar
    52    46    45    1
    53    85    84   ar
    54    41    42    1
    55   157   155    1
    56    42    45    1
    57   156   155    1
    58    11     9   ar
    59    11    10   ar
    60    86    84   ar
    61    84    83    1
    62   155   154    2
    63     9     7   ar
    64    59    61    1
    65    59    60    1
    66    10     8   ar
    67    79    80    1
    68     7     6   ar
    69   154   153    1
    70    83    80    1
    71     8     6   ar
    72   137   139   ar
    73   137   135   ar
    74   139   138   ar
    75   153   152    1
    76     6     5    1
    77    80    81    1
    78   135   134    1
    79   135   136   ar
    80   138   136   ar
    81   134   131    1
    82     5     2    1
    83   129   128    1
    84   152   151    1
    85    81    82    2
    86    81    87   am
    87   100    99   ar
    88   151   148    1
    89   101    99   ar
    90   128   127    1
    91    28    27    1
    92     1     2    1
    93     2     3    1
    94    40    39    1
    95    99    98    1
    96    87    88    1
    97   131   132    1
    98   131   130    1
    99    17    19    1
   100    17    16    1
   101   150   149    2
   102   132   133    2
   103    27    26    1
   104    39    37   ar
   105    39    38   ar
   106   148   149    1
   107   148   147    1
   108    37    35   ar
   109    18    16    1
   110    16    13    1
   111     4     3    2
   112   127   126    1
   113    97    96    2
   114    98    95    1
   115    38    36   ar
   116    88    91    1
   117    88    89    1
   118    94    95    1
   119    94    89   am
   120   126   125    1
   121    35    34   ar
   122   147   142   am
   123    96    95    1
   124    26    25    1
   125    91    92    1
   126    91    93    1
   127    89    90    2
   128   124   123    2
   129    36    34   ar
   130    34    33    1
   131    13    12    1
   132    13    14    1
   133   145   144    1
   134    15    14    2
   135    25    24    1
   136   142   143    2
   137   142   141    1
   138    14    20   am
   139   125   122    1
   140   123   122    1
   141    33    30    1
   142   121   122    1
   143    24    21    1
   144   140   141    1
   145    20    21    1
   146   144   141    1
   147   144   146    1
   148    21    22    1
   149    30    29    1
   150    30    31    1
   151    22    23    2
   152    32    31    2
