@<TRIPOS>MOLECULE
tmp/3v0rA03.pdb
 80 76 0 0 0
SMALL
GASTEIGER

@<TRIPOS>ATOM
      1  N         21.1170   11.0490   35.8330 N.3    17  GLU17      -0.1245
      2  CA        21.3820   11.0410   37.3090 C.3    17  GLU17       0.1567
      3  C         22.6540   11.7910   37.7410 C.2    17  GLU17       0.2260
      4  O         23.4660   11.3820   38.5850 O.2    17  GLU17      -0.2867
      5  CB        21.2380    9.6090   37.8810 C.3    17  GLU17       0.0388
      6  CG        20.1390    8.6540   37.3110 C.3    17  GLU17       0.1160
      7  CD        18.6860    9.1950   36.9250 C.2    17  GLU17       0.3649
      8  OE1       18.2680    8.6370   35.9160 O.co2  17  GLU17      -0.2457
      9  OE2       17.9020   10.0360   37.5660 O.co2  17  GLU17      -0.2457
     10  N         24.7490   14.1400   39.8570 N.3    19  TYR19      -0.1241
     11  CA        24.7540   14.5690   41.2610 C.3    19  TYR19       0.1605
     12  C         25.9770   15.4090   41.4720 C.2    19  TYR19       0.2264
     13  O         26.9740   15.2170   40.8310 O.2    19  TYR19      -0.2867
     14  CB        24.8010   13.3580   42.2230 C.3    19  TYR19       0.0534
     15  CG        24.8110   13.6590   43.7340 C.ar   19  TYR19      -0.0201
     16  CD1       23.6230   13.6050   44.5110 C.ar   19  TYR19      -0.0009
     17  CD2       26.0000   13.9110   44.4170 C.ar   19  TYR19      -0.0009
     18  CE1       23.6410   13.8220   45.8930 C.ar   19  TYR19       0.0417
     19  CE2       26.0080   14.1650   45.7980 C.ar   19  TYR19       0.0417
     20  CZ        24.8400   14.1390   46.5240 C.ar   19  TYR19       0.1957
     21  OH        24.8820   14.3140   47.8980 O.3    19  TYR19      -0.2866
     22  N         32.2030   16.5160   45.3690 N.3    30  SER30      -0.1202
     23  CA        31.6960   15.2470   44.8930 C.3    30  SER30       0.2020
     24  C         30.8980   15.5180   43.6200 C.2    30  SER30       0.2619
     25  O         30.0610   16.3770   43.6260 O.2    30  SER30      -0.2717
     26  CB        30.8230   14.5840   45.9720 C.3    30  SER30       0.2103
     27  OG        30.3700   13.3050   45.5260 O.3    30  SER30      -0.2182
     28  N         31.1430   14.7450   42.5600 N.am   31  LEU31      -0.1965
     29  CA        30.4520   14.9040   41.3000 C.3    31  LEU31       0.1731
     30  C         30.3110   13.5490   40.6390 C.2    31  LEU31       0.2656
     31  O         31.2580   12.7480   40.6590 O.2    31  LEU31      -0.2711
     32  CB        31.3140   15.8360   40.4100 C.3    31  LEU31       0.0311
     33  CG        30.8330   16.7870   39.3630 C.3    31  LEU31       0.0022
     34  CD1       29.8230   17.7740   39.8300 C.3    31  LEU31       0.0001
     35  CD2       32.0640   17.5980   38.9240 C.3    31  LEU31       0.0001
     36  N         29.1650   13.2910   40.0360 N.am   32  GLY32      -0.1716
     37  CA        28.9560   12.0630   39.3250 C.2    32  GLY32       0.1480
     38  C         27.7490   12.0220   38.4240 C.2    32  GLY32       0.2820
     39  O         26.8640   12.8640   38.5090 O.2    32  GLY32      -0.2669
     40  N         27.7030   10.9870   37.5780 N.am   33  PHE33      -0.1925
     41  CA        26.6100   10.8240   36.6300 C.3    33  PHE33       0.1774
     42  C         26.6780    9.4400   36.0320 C.2    33  PHE33       0.2619
     43  O         27.6730    8.7600   36.1820 O.2    33  PHE33      -0.2715
     44  CB        26.6660   11.9030   35.5140 C.3    33  PHE33       0.0574
     45  CG        27.9920   12.0080   34.8760 C.ar   33  PHE33      -0.0200
     46  CD1       28.9530   12.8990   35.3770 C.ar   33  PHE33      -0.0042
     47  CD2       28.3200   11.2120   33.7620 C.ar   33  PHE33      -0.0042
     48  CE1       30.2090   12.9610   34.8090 C.ar   33  PHE33      -0.0003
     49  CE2       29.5980   11.2830   33.1930 C.ar   33  PHE33      -0.0003
     50  CZ        30.5290   12.1550   33.7170 C.ar   33  PHE33      -0.0000
     51  N         25.5840    8.9740   35.4750 N.am   34  ASN34      -0.1972
     52  CA        25.5010    7.6410   34.8650 C.3    34  ASN34       0.1688
     53  C         25.6810    7.7920   33.3710 C.2    34  ASN34       0.2292
     54  O         25.1950    8.8050   32.7680 O.2    34  ASN34      -0.2864
     55  CB        24.1330    7.0070   35.1340 C.3    34  ASN34       0.1181
     56  CG        23.9410    6.5840   36.5990 C.2    34  ASN34       0.2629
     57  OD1       24.9380    6.4100   37.3620 O.2    34  ASN34      -0.2716
     58  ND2       22.6560    6.3450   36.9950 N.am   34  ASN34      -0.0877
     59  N         28.7920    4.2130   36.2500 N.3    46  THR46      -0.1218
     60  CA        28.9140    5.5070   36.9300 C.3    46  THR46       0.1862
     61  C         30.2640    6.1190   36.7090 C.2    46  THR46       0.2287
     62  O         31.3320    5.4510   36.7490 O.2    46  THR46      -0.2866
     63  CB        28.6090    5.3870   38.4180 C.3    46  THR46       0.1770
     64  OG1       27.3070    4.8360   38.5590 O.3    46  THR46      -0.2211
     65  CG2       28.5350    6.8260   39.0470 C.3    46  THR46       0.0375
     66  N         32.4250    9.1310   38.3220 N.3    48  SER48      -0.1217
     67  CA        32.4190   10.0560   39.4510 C.3    48  SER48       0.1889
     68  C         33.7810   10.3820   39.9430 C.2    48  SER48       0.2288
     69  O         34.7560    9.6600   39.6870 O.2    48  SER48      -0.2866
     70  CB        31.6320    9.4250   40.5900 C.3    48  SER48       0.2089
     71  OG        32.3430    8.3060   41.0930 O.3    48  SER48      -0.2183
     72  N         35.6990   12.4040   43.6600 N.3    50  GLN50      -0.1245
     73  CA        35.6670   13.1100   44.9300 C.3    50  GLN50       0.1566
     74  C         37.0300   13.6570   45.2870 C.2    50  GLN50       0.2260
     75  O         38.0280   13.0520   45.0150 O.2    50  GLN50      -0.2867
     76  CB        35.2610   12.2100   46.0840 C.3    50  GLN50       0.0367
     77  CG        33.8340   11.7160   45.9720 C.3    50  GLN50       0.0905
     78  CD        33.7760   10.4900   45.0960 C.2    50  GLN50       0.2608
     79  OE1       34.8580    9.8930   44.7630 O.2    50  GLN50      -0.2717
     80  NE2       32.5210   10.0890   44.7000 N.am   50  GLN50      -0.0878
@<TRIPOS>BOND
     1    54    53    2
     2    49    50   ar
     3    49    47   ar
     4    53    52    1
     5    50    48   ar
     6    47    45   ar
     7    48    46   ar
     8    52    55    1
     9    52    51    1
    10    45    46   ar
    11    45    44    1
    12    55    56    1
    13    51    42   am
    14    44    41    1
    15     1     2    1
    16     8     7   ar
    17    42    43    2
    18    42    41    1
    19    59    60    1
    20    56    58   am
    21    56    57    2
    22    41    40    1
    23    61    62    2
    24    61    60    1
    25     7     6    1
    26     7     9   ar
    27    60    63    1
    28     2     3    1
    29     2     5    1
    30     6     5    1
    31    40    38   am
    32     3     4    2
    33    66    67    1
    34    63    64    1
    35    63    65    1
    36    38    39    2
    37    38    37    1
    38    35    33    1
    39    37    36    2
    40    33    34    1
    41    33    32    1
    42    67    68    1
    43    67    70    1
    44    69    68    2
    45    10    11    1
    46    36    30    1
    47    32    29    1
    48    70    71    1
    49    30    31    2
    50    30    29    1
    51    13    12    2
    52    11    12    1
    53    11    14    1
    54    29    28    1
    55    14    15    1
    56    28    24   am
    57    24    25    2
    58    24    23    1
    59    72    73    1
    60    15    17   ar
    61    15    16   ar
    62    17    19   ar
    63    16    18   ar
    64    80    78   am
    65    79    78    2
    66    23    22    1
    67    23    26    1
    68    73    74    1
    69    73    76    1
    70    75    74    2
    71    78    77    1
    72    27    26    1
    73    19    20   ar
    74    18    20   ar
    75    77    76    1
    76    20    21    1
