@<TRIPOS>MOLECULE
tmp/3v0tA00.pdb
 126 122 0 0 0
SMALL
GASTEIGER

@<TRIPOS>ATOM
      1  N         14.2540    5.6310   17.3520 N.3    21  MET21      -0.1245
      2  CA        13.9150    5.6820   18.7780 C.3    21  MET21       0.1570
      3  C         13.5590    7.0920   19.2860 C.2    21  MET21       0.2261
      4  O         12.4160    7.3390   19.6860 O.2    21  MET21      -0.2867
      5  CB        15.0310    5.0690   19.6250 C.3    21  MET21       0.0387
      6  CG        14.7390    5.1010   21.1200 C.3    21  MET21       0.0595
      7  SD        16.0030    4.2540   22.1020 S.3    21  MET21      -0.1393
      8  CE        17.3170    5.4680   22.0760 C.3    21  MET21       0.0692
      9  N         24.8810    1.0760   17.5390 N.3   197  TYR197     -0.1227
     10  CA        23.9790    2.0810   18.0810 C.3   197  TYR197      0.1736
     11  C         24.7480    2.9270   19.0840 C.2   197  TYR197      0.2596
     12  O         25.7810    2.4930   19.6080 O.2   197  TYR197     -0.2718
     13  CB        22.7490    1.4470   18.7330 C.3   197  TYR197      0.0548
     14  CG        23.0190    0.7210   20.0360 C.ar  197  TYR197     -0.0200
     15  CD1       23.0930    1.4110   21.2420 C.ar  197  TYR197     -0.0009
     16  CD2       23.1530   -0.6590   20.0640 C.ar  197  TYR197     -0.0009
     17  CE1       23.3230    0.7360   22.4460 C.ar  197  TYR197      0.0417
     18  CE2       23.3700   -1.3410   21.2500 C.ar  197  TYR197      0.0417
     19  CZ        23.4580   -0.6380   22.4370 C.ar  197  TYR197      0.1957
     20  OH        23.6880   -1.3180   23.6070 O.3   197  TYR197     -0.2866
     21  N         24.2430    4.1310   19.3500 N.am  198  SER198     -0.1938
     22  CA        24.9520    5.1030   20.1770 C.3   198  SER198      0.2040
     23  C         26.3660    5.3490   19.6590 C.2   198  SER198      0.2485
     24  O         27.3300    5.3720   20.4320 O.2   198  SER198     -0.2729
     25  CB        24.9910    4.6430   21.6480 C.3   198  SER198      0.2129
     26  OG        25.5450    5.6660   22.4650 O.3   198  SER198     -0.2179
     27  N         26.5050    5.5310   18.3370 N.am  199  PRO199     -0.2715
     28  CA        27.8430    5.8160   17.8030 C.3   199  PRO199      0.1536
     29  C         28.3400    7.2080   18.1810 C.2   199  PRO199      0.2598
     30  O         29.5330    7.4990   18.0630 O.2   199  PRO199     -0.2715
     31  CB        27.6460    5.7240   16.2830 C.3   199  PRO199      0.0310
     32  CG        26.1670    5.9280   16.0670 C.3   199  PRO199      0.0237
     33  CD        25.5010    5.3400   17.2730 C.3   199  PRO199      0.0939
     34  N         27.4360    8.0680   18.6300 N.am  200  ILE200     -0.1964
     35  CA        27.8320    9.4260   18.9860 C.3   200  ILE200      0.1727
     36  C         27.2420    9.9020   20.3120 C.2   200  ILE200      0.2616
     37  O         27.8230   10.7600   20.9750 O.2   200  ILE200     -0.2715
     38  CB        27.4270   10.4250   17.8920 C.3   200  ILE200      0.0290
     39  CG1       25.9390   10.2830   17.5670 C.3   200  ILE200      0.0022
     40  CG2       28.2820   10.2410   16.6370 C.3   200  ILE200      0.0023
     41  CD1       25.4260   11.3910   16.6870 C.3   200  ILE200      0.0001
     42  N         26.0890    9.3470   20.6890 N.am  201  GLY201     -0.1955
     43  CA        25.3730    9.7890   21.8730 C.3   201  GLY201      0.1869
     44  C         26.2010    9.7530   23.1520 C.2   201  GLY201      0.2309
     45  O         26.1210   10.6610   23.9930 O.2   201  GLY201     -0.2863
     46  N         28.7090   12.6170   23.0990 N.3   204  LEU204     -0.1245
     47  CA        28.0010   13.8720   23.3340 C.3   204  LEU204      0.1561
     48  C         27.7360   14.1070   24.8290 C.2   204  LEU204      0.2260
     49  O         28.0320   15.1780   25.3680 O.2   204  LEU204     -0.2867
     50  CB        26.6810   13.8610   22.5640 C.3   204  LEU204      0.0270
     51  CG        26.8020   14.1670   21.0670 C.3   204  LEU204      0.0019
     52  CD1       25.5510   13.7320   20.2970 C.3   204  LEU204      0.0001
     53  CD2       27.0870   15.6460   20.8620 C.3   204  LEU204      0.0001
     54  N         31.3640   15.8630   16.6190 N.3   228  VAL228     -0.1245
     55  CA        30.4070   14.7830   16.4900 C.3   228  VAL228      0.1561
     56  C         30.5540   14.1140   15.1110 C.2   228  VAL228      0.2260
     57  O         30.4140   12.8930   14.9900 O.2   228  VAL228     -0.2867
     58  CB        28.9650   15.2700   16.7370 C.3   228  VAL228      0.0252
     59  CG1       28.4480   16.0110   15.5240 C.3   228  VAL228      0.0019
     60  CG2       28.0540   14.0970   17.0550 C.3   228  VAL228      0.0019
     61  N         23.6820    3.6280   13.2120 N.3   245  ILE245     -0.1231
     62  CA        22.3060    4.1090   13.1820 C.3   245  ILE245      0.1678
     63  C         22.0840    5.2220   14.1870 C.2   245  ILE245      0.2434
     64  O         21.2730    5.0960   15.1050 O.2   245  ILE245     -0.2733
     65  CB        21.2920    2.9610   13.4230 C.3   245  ILE245      0.0265
     66  CG1       21.6110    2.2080   14.7190 C.3   245  ILE245      0.0019
     67  CG2       21.3070    1.9950   12.2410 C.3   245  ILE245      0.0020
     68  CD1       20.4650    1.3460   15.2530 C.3   245  ILE245      0.0001
     69  N         22.8040    6.3330   14.0100 N.am  246  PRO246     -0.2718
     70  CA        22.5780    7.4600   14.9180 C.3   246  PRO246      0.1535
     71  C         21.1650    8.0010   14.7150 C.2   246  PRO246      0.2599
     72  O         20.6150    7.9100   13.5950 O.2   246  PRO246     -0.2715
     73  CB        23.5960    8.4990   14.4360 C.3   246  PRO246      0.0310
     74  CG        23.7320    8.2230   12.9860 C.3   246  PRO246      0.0237
     75  CD        23.6430    6.7070   12.8550 C.3   246  PRO246      0.0939
     76  N         20.5740    8.5410   15.7750 N.am  247  GLY247     -0.1941
     77  CA        19.2710    9.1710   15.6490 C.3   247  GLY247      0.2014
     78  C         19.3200   10.6430   15.9900 C.2   247  GLY247      0.2640
     79  O         20.2410   11.0910   16.6880 O.2   247  GLY247     -0.2714
     80  N         18.3450   11.3950   15.4820 N.am  248  THR248     -0.1936
     81  CA        18.1650   12.7910   15.8850 C.3   248  THR248      0.2028
     82  C         16.7050   13.2190   15.7120 C.2   248  THR248      0.2643
     83  O         15.9520   12.5910   14.9730 O.2   248  THR248     -0.2714
     84  CB        19.1030   13.7490   15.1100 C.3   248  THR248      0.1808
     85  OG1       18.9840   15.0760   15.6380 O.3   248  THR248     -0.2208
     86  CG2       18.7410   13.7770   13.6350 C.3   248  THR248      0.0379
     87  N         16.3140   14.2740   16.4210 N.am  249  THR249     -0.1936
     88  CA        14.9790   14.8470   16.2880 C.3   249  THR249      0.2028
     89  C         15.0440   16.1460   15.5080 C.2   249  THR249      0.2642
     90  O         14.0130   16.7660   15.2440 O.2   249  THR249     -0.2714
     91  CB        14.3830   15.1880   17.6480 C.3   249  THR249      0.1808
     92  OG1       15.2650   16.0820   18.3300 O.3   249  THR249     -0.2208
     93  CG2       14.2150   13.9350   18.4800 C.3   249  THR249      0.0379
     94  N         16.2640   16.5550   15.1580 N.am  250  LYS250     -0.1977
     95  CA        16.5030   17.8330   14.5010 C.3   250  LYS250      0.1596
     96  C         17.0490   17.6740   13.0770 C.2   250  LYS250      0.2287
     97  O         18.1110   17.0720   12.8600 O.2   250  LYS250     -0.2864
     98  CB        17.4780   18.6890   15.3190 C.3   250  LYS250      0.0298
     99  CG        17.2320   18.6710   16.8120 C.3   250  LYS250      0.0038
    100  CD        17.6880   19.9780   17.4510 C.3   250  LYS250      0.0206
    101  CE        18.1290   19.7910   18.8930 C.3   250  LYS250      0.1093
    102  NZ        19.5860   20.1000   19.0530 N.3   250  LYS250     -0.1314
    103  N         20.8150   18.5760   12.7380 N.3   253  ASN253     -0.1240
    104  CA        21.7670   17.5350   13.1150 C.3   253  ASN253      0.1653
    105  C         21.7620   16.3680   12.1340 C.2   253  ASN253      0.2266
    106  O         22.7930   15.7310   11.9180 O.2   253  ASN253     -0.2867
    107  CB        21.5270   17.0480   14.5450 C.3   253  ASN253      0.1155
    108  CG        21.7840   18.1320   15.5780 C.2   253  ASN253      0.2627
    109  OD1       22.3320   19.1960   15.2620 O.2   253  ASN253     -0.2716
    110  ND2       21.3960   17.8640   16.8200 N.am  253  ASN253     -0.0877
    111  N         23.9640   17.3630    9.4880 N.3   256  ASN256     -0.1225
    112  CA        25.2960   17.2750   10.0620 C.3   256  ASN256      0.1785
    113  C         25.8070   15.8240   10.0300 C.2   256  ASN256      0.2597
    114  O         26.9520   15.5630    9.6460 O.2   256  ASN256     -0.2718
    115  CB        25.2710   17.8080   11.4910 C.3   256  ASN256      0.1169
    116  CG        26.6590   18.0230   12.0570 C.2   256  ASN256      0.2627
    117  OD1       27.2500   17.1160   12.6500 O.2   256  ASN256     -0.2716
    118  ND2       27.1860   19.2330   11.8860 N.am  256  ASN256     -0.0877
    119  N         24.9530   14.8840   10.4320 N.am  257  ASN257     -0.1974
    120  CA        25.3260   13.4780   10.4290 C.3   257  ASN257      0.1688
    121  C         25.6250   12.9610    9.0240 C.2   257  ASN257      0.2292
    122  O         26.6230   12.2590    8.8160 O.2   257  ASN257     -0.2864
    123  CB        24.2910   12.6210   11.1660 C.3   257  ASN257      0.1181
    124  CG        24.1830   12.9960   12.6420 C.2   257  ASN257      0.2629
    125  OD1       25.0720   13.6540   13.1860 O.2   257  ASN257     -0.2716
    126  ND2       23.0960   12.5870   13.2910 N.am  257  ASN257     -0.0877
@<TRIPOS>BOND
     1   122   121    2
     2   121   120    1
     3   111   112    1
     4   114   113    2
     5   113   112    1
     6   113   119   am
     7   112   115    1
     8   120   119    1
     9   120   123    1
    10   123   124    1
    11   115   116    1
    12   118   116   am
    13   106   105    2
    14   116   117    2
    15   105   104    1
    16    67    65    1
    17   124   125    2
    18   124   126   am
    19   103   104    1
    20    75    74    1
    21    75    69    1
    22    97    96    2
    23    74    73    1
    24    96    95    1
    25   104   107    1
    26    62    61    1
    27    62    65    1
    28    62    63    1
    29    65    66    1
    30    72    71    2
    31    86    84    1
    32    69    63   am
    33    69    70    1
    34    63    64    2
    35    73    70    1
    36    95    94    1
    37    95    98    1
    38   107   108    1
    39    71    70    1
    40    71    76   am
    41    66    68    1
    42    83    82    2
    43    57    56    2
    44    84    85    1
    45    84    81    1
    46    56    55    1
    47    94    89   am
    48    90    89    2
    49   109   108    2
    50    98    99    1
    51    80    81    1
    52    80    78   am
    53    89    88    1
    54    59    58    1
    55   108   110   am
    56    77    76    1
    57    77    78    1
    58    82    81    1
    59    82    87   am
    60    78    79    2
    61    32    31    1
    62    32    33    1
    63    31    28    1
    64    88    87    1
    65    88    91    1
    66    55    54    1
    67    55    58    1
    68    40    38    1
    69    41    39    1
    70    58    60    1
    71    99   100    1
    72    33    27    1
    73     1     2    1
    74   100   101    1
    75     9    10    1
    76    39    38    1
    77    91    92    1
    78    91    93    1
    79    28    29    1
    80    28    27    1
    81    38    35    1
    82    30    29    2
    83    10    13    1
    84    10    11    1
    85    29    34   am
    86    27    23   am
    87    34    35    1
    88    13    14    1
    89     2     3    1
    90     2     5    1
    91   101   102    1
    92    35    36    1
    93    11    21   am
    94    11    12    2
    95     3     4    2
    96    21    22    1
    97     5     6    1
    98    23    22    1
    99    23    24    2
   100    14    16   ar
   101    14    15   ar
   102    16    18   ar
   103    22    25    1
   104    52    51    1
   105    36    42   am
   106    36    37    2
   107    42    43    1
   108    53    51    1
   109    51    50    1
   110     6     7    1
   111    15    17   ar
   112    18    19   ar
   113    25    26    1
   114    43    44    1
   115     8     7    1
   116    19    17   ar
   117    19    20    1
   118    50    47    1
   119    46    47    1
   120    44    45    2
   121    47    48    1
   122    48    49    2
