@<TRIPOS>MOLECULE
tmp/3v0wB02.pdb
 99 98 0 0 0
SMALL
GASTEIGER

@<TRIPOS>ATOM
      1  N        -25.8020  -47.0560   13.3230 N.3    31  ASP31      -0.1225
      2  CA       -25.4140  -48.4450   13.4000 C.3    31  ASP31       0.1805
      3  C        -24.5780  -48.9090   12.2180 C.2    31  ASP31       0.2598
      4  O        -24.2070  -50.0580   12.2100 O.2    31  ASP31      -0.2718
      5  CB       -26.7260  -49.2860   13.4090 C.3    31  ASP31       0.1424
      6  CG       -27.4180  -49.2860   14.7470 C.2    31  ASP31       0.3668
      7  OD1      -26.7850  -48.8340   15.7160 O.co2  31  ASP31      -0.2456
      8  OD2      -28.5820  -49.7720   14.7840 O.co2  31  ASP31      -0.2456
      9  N        -24.3810  -48.0480   11.2260 N.am   32  TYR32      -0.1962
     10  CA       -23.7050  -48.5100    9.9650 C.3    32  TYR32       0.1771
     11  C        -22.4380  -47.7350    9.6210 C.2    32  TYR32       0.2619
     12  O        -22.3110  -46.5260    9.8290 O.2    32  TYR32      -0.2715
     13  CB       -24.6260  -48.4220    8.7560 C.3    32  TYR32       0.0574
     14  CG       -25.7520  -49.4140    8.9200 C.ar   32  TYR32      -0.0198
     15  CD1      -26.8730  -49.0810    9.7360 C.ar   32  TYR32      -0.0009
     16  CD2      -25.6740  -50.7100    8.3390 C.ar   32  TYR32      -0.0009
     17  CE1      -27.9110  -50.0380    9.9320 C.ar   32  TYR32       0.0417
     18  CE2      -26.7160  -51.6460    8.5240 C.ar   32  TYR32       0.0417
     19  CZ       -27.8100  -51.2860    9.3720 C.ar   32  TYR32       0.1957
     20  OH       -28.8370  -52.2070    9.6060 O.3    32  TYR32      -0.2866
     21  N        -21.4520  -48.5150    9.1710 N.am   33  TYR33      -0.1974
     22  CA       -20.3560  -47.8950    8.4360 C.3    33  TYR33       0.1639
     23  C        -20.8480  -47.4360    7.0490 C.2    33  TYR33       0.2290
     24  O        -21.7990  -48.0600    6.4770 O.2    33  TYR33      -0.2864
     25  CB       -19.2310  -48.9370    8.1760 C.3    33  TYR33       0.0560
     26  CG       -18.5230  -49.4870    9.4250 C.ar   33  TYR33      -0.0198
     27  CD1      -18.8820  -49.1190   10.7440 C.ar   33  TYR33      -0.0009
     28  CD2      -17.4260  -50.3520    9.2510 C.ar   33  TYR33      -0.0009
     29  CE1      -18.1580  -49.6540   11.8180 C.ar   33  TYR33       0.0417
     30  CE2      -16.7360  -50.9230   10.3410 C.ar   33  TYR33       0.0417
     31  CZ       -17.1020  -50.5460   11.6120 C.ar   33  TYR33       0.1957
     32  OH       -16.4520  -51.0770   12.7070 O.3    33  TYR33      -0.2866
     33  N        -18.2070  -45.9670   12.6540 N.3    53  ASN53      -0.1240
     34  CA       -19.1890  -45.2690   13.5080 C.3    53  ASN53       0.1653
     35  C        -18.5470  -44.9570   14.8660 C.2    53  ASN53       0.2266
     36  O        -17.3460  -45.0610   14.9950 O.2    53  ASN53      -0.2867
     37  CB       -20.5110  -46.0310   13.6060 C.3    53  ASN53       0.1155
     38  CG       -20.4340  -47.3710   14.3360 C.2    53  ASN53       0.2627
     39  OD1      -21.5220  -48.0120   14.5810 O.2    53  ASN53      -0.2716
     40  ND2      -19.2870  -47.8070   14.6900 N.am   53  ASN53      -0.0877
     41  N        -18.2410  -45.9880   17.9370 N.3    55  ARG55      -0.1231
     42  CA       -17.4360  -46.9100   18.6920 C.3    55  ARG55       0.1694
     43  C        -16.0010  -46.9860   18.2010 C.2    55  ARG55       0.2592
     44  O        -15.0650  -47.1580   19.0360 O.2    55  ARG55      -0.2718
     45  CB       -18.0720  -48.3280   18.6270 C.3    55  ARG55       0.0321
     46  CG       -17.2380  -49.3800   19.3740 C.3    55  ARG55       0.0489
     47  CD       -17.4950  -49.3520   20.9120 C.3    55  ARG55       0.2205
     48  NE       -18.6830  -50.1560   21.2810 N.pl3  55  ARG55      -0.0865
     49  CZ       -19.2680  -51.0320   20.4660 C.cat  55  ARG55       0.5346
     50  NH1      -18.7610  -51.2180   19.2570 N.pl3  55  ARG55       0.1354
     51  NH2      -20.3490  -51.7140   20.8530 N.pl3  55  ARG55       0.1354
     52  N        -15.7990  -46.8760   16.8660 N.am   56  ASN56      -0.1974
     53  CA       -14.4810  -46.9920   16.2540 C.3    56  ASN56       0.1688
     54  C        -13.9130  -45.6060   16.0370 C.2    56  ASN56       0.2292
     55  O        -12.9260  -45.3900   15.3020 O.2    56  ASN56      -0.2864
     56  CB       -14.5160  -47.7370   14.8630 C.3    56  ASN56       0.1181
     57  CG       -15.1980  -49.0990   14.9810 C.2    56  ASN56       0.2629
     58  OD1      -14.5960  -50.0690   15.5620 O.2    56  ASN56      -0.2716
     59  ND2      -16.3880  -49.1970   14.5500 N.am   56  ASN56      -0.0877
     60  N        -22.4550  -49.7730    4.0040 N.3   101  GLN101     -0.1231
     61  CA       -21.9390  -51.1420    4.2580 C.3   101  GLN101      0.1698
     62  C        -22.8750  -51.8790    5.1960 C.2   101  GLN101      0.2593
     63  O        -23.2100  -51.3540    6.2320 O.2   101  GLN101     -0.2718
     64  CB       -20.5050  -51.1030    4.8170 C.3   101  GLN101      0.0381
     65  CG       -19.9630  -52.5700    4.9790 C.3   101  GLN101      0.0905
     66  CD       -18.5050  -52.5780    5.3740 C.2   101  GLN101      0.2608
     67  OE1      -17.7150  -52.6710    4.4790 O.2   101  GLN101     -0.2717
     68  NE2      -18.1490  -52.5070    6.6890 N.am  101  GLN101     -0.0878
     69  N        -23.3720  -53.0410    4.7970 N.am  102  GLY102     -0.1942
     70  CA       -24.2400  -53.7880    5.7110 C.3   102  GLY102      0.2014
     71  C        -23.4330  -54.8380    6.4350 C.2   102  GLY102      0.2639
     72  O        -22.2000  -54.8100    6.4880 O.2   102  GLY102     -0.2714
     73  N        -24.1260  -55.7630    7.0260 N.am  103  ARG103     -0.1963
     74  CA       -23.4070  -56.7710    7.7090 C.3   103  ARG103      0.1729
     75  C        -22.7380  -57.6500    6.6780 C.2   103  ARG103      0.2617
     76  O        -23.1560  -57.7790    5.6190 O.2   103  ARG103     -0.2715
     77  CB       -24.2910  -57.5220    8.6770 C.3   103  ARG103      0.0348
     78  CG       -24.3820  -56.8320   10.0190 C.3   103  ARG103      0.0492
     79  CD       -25.7200  -57.0660   10.7270 C.3   103  ARG103      0.2205
     80  NE       -26.0840  -58.4680   10.8800 N.pl3 103  ARG103     -0.0865
     81  CZ       -26.7850  -59.2080   10.0120 C.cat 103  ARG103      0.5346
     82  NH1      -27.2260  -58.7120    8.8610 N.pl3 103  ARG103      0.1354
     83  NH2      -27.0300  -60.4810   10.3060 N.pl3 103  ARG103      0.1354
     84  N        -21.6170  -58.1580    7.0550 N.am  104  GLY104     -0.1940
     85  CA       -20.8330  -59.0740    6.2750 C.3   104  GLY104      0.2014
     86  C        -19.9780  -58.4270    5.2140 C.2   104  GLY104      0.2638
     87  O        -19.7200  -58.9620    4.2010 O.2   104  GLY104     -0.2714
     88  N        -19.5390  -57.2080    5.4480 N.am  105  TYR105     -0.1973
     89  CA       -18.6620  -56.5010    4.5240 C.3   105  TYR105      0.1639
     90  C        -19.2140  -56.3500    3.1300 C.2   105  TYR105      0.2290
     91  O        -18.5380  -56.3130    2.1760 O.2   105  TYR105     -0.2864
     92  CB       -17.2460  -57.0520    4.5340 C.3   105  TYR105      0.0560
     93  CG       -16.7410  -57.2320    5.9340 C.ar  105  TYR105     -0.0198
     94  CD1      -16.3210  -56.1620    6.6890 C.ar  105  TYR105     -0.0009
     95  CD2      -16.7350  -58.4610    6.5200 C.ar  105  TYR105     -0.0009
     96  CE1      -15.8700  -56.3430    7.9730 C.ar  105  TYR105      0.0417
     97  CE2      -16.3040  -58.6570    7.7980 C.ar  105  TYR105      0.0417
     98  CZ       -15.8620  -57.5960    8.5480 C.ar  105  TYR105      0.1957
     99  OH       -15.4080  -57.7730    9.8180 O.3   105  TYR105     -0.2866
@<TRIPOS>BOND
     1    91    90    2
     2    90    89    1
     3    60    61    1
     4    87    86    2
     5    61    64    1
     6    61    62    1
     7    67    66    2
     8    89    92    1
     9    89    88    1
    10    92    93    1
    11    69    62   am
    12    69    70    1
    13    64    65    1
    14    65    66    1
    15    62    63    2
    16    86    88   am
    17    86    85    1
    18    66    68   am
    19    76    75    2
    20    70    71    1
    21    93    95   ar
    22    93    94   ar
    23    85    84    1
    24    71    72    2
    25    71    73   am
    26    24    23    2
    27    95    97   ar
    28    75    84   am
    29    75    74    1
    30    94    96   ar
    31    73    74    1
    32    23    22    1
    33    74    77    1
    34    97    98   ar
    35    96    98   ar
    36    25    22    1
    37    25    26    1
    38    16    18   ar
    39    16    14   ar
    40    22    21    1
    41    18    19   ar
    42    98    99    1
    43    77    78    1
    44    13    14    1
    45    13    10    1
    46    82    81    1
    47    14    15   ar
    48    21    11   am
    49    28    26   ar
    50    28    30   ar
    51    19    20    1
    52    19    17   ar
    53    26    27   ar
    54    11    12    2
    55    11    10    1
    56    15    17   ar
    57    10     9    1
    58    81    83    1
    59    81    80    2
    60    78    79    1
    61    30    31   ar
    62    79    80    1
    63    27    29   ar
    64     9     3   am
    65    31    29   ar
    66    31    32    1
    67     4     3    2
    68     3     2    1
    69    33    34    1
    70     1     2    1
    71     2     5    1
    72     5     6    1
    73    34    37    1
    74    34    35    1
    75    37    38    1
    76    38    39    2
    77    38    40   am
    78    59    57   am
    79     6     8   ar
    80     6     7   ar
    81    56    57    1
    82    56    53    1
    83    35    36    2
    84    57    58    2
    85    55    54    2
    86    54    53    1
    87    53    52    1
    88    52    43   am
    89    41    42    1
    90    43    42    1
    91    43    44    2
    92    45    42    1
    93    45    46    1
    94    50    49    1
    95    46    47    1
    96    49    51    1
    97    49    48    2
    98    47    48    1
