@<TRIPOS>MOLECULE
tmp/3v12A00.pdb
 166 164 0 0 0
SMALL
GASTEIGER

@<TRIPOS>ATOM
      1  N        -18.0540   23.6670   13.7880 N.3    40  HIS40      -0.1241
      2  CA       -19.0200   24.7350   13.5430 C.3    40  HIS40       0.1621
      3  C        -20.0610   24.7810   14.6560 C.2    40  HIS40       0.2264
      4  O        -20.8180   25.7280   14.7300 O.2    40  HIS40      -0.2867
      5  CB       -19.6160   24.7050   12.1180 C.3    40  HIS40       0.0745
      6  CG       -20.7440   23.7300   11.9100 C.ar   40  HIS40       0.0817
      7  ND1      -20.5610   22.4610   11.3860 N.ar   40  HIS40      -0.2268
      8  CD2      -22.0800   23.8740   12.0940 C.ar   40  HIS40       0.1154
      9  CE1      -21.7380   21.8590   11.2810 C.ar   40  HIS40       0.1986
     10  NE2      -22.6790   22.7070   11.6750 N.ar   40  HIS40      -0.2212
     11  N        -14.7940   28.7490    6.5940 N.3    79  GLU79      -0.1231
     12  CA       -15.2880   29.0370    5.2390 C.3    79  GLU79       0.1699
     13  C        -15.3030   27.8060    4.2870 C.2    79  GLU79       0.2593
     14  O        -16.0410   27.8130    3.3010 O.2    79  GLU79      -0.2718
     15  CB       -14.5380   30.2210    4.6100 C.3    79  GLU79       0.0402
     16  CG       -13.0740   29.9880    4.2870 C.3    79  GLU79       0.1161
     17  CD       -12.1130   30.5450    5.3620 C.2    79  GLU79       0.3649
     18  OE1      -12.5150   30.6260    6.5550 O.co2  79  GLU79      -0.2457
     19  OE2      -10.9490   30.8860    5.0050 O.co2  79  GLU79      -0.2457
     20  N        -14.4920   26.7800    4.5690 N.am   80  THR80      -0.1939
     21  CA       -14.5300   25.5400    3.7840 C.3    80  THR80       0.2028
     22  C        -15.1080   24.3480    4.5550 C.2    80  THR80       0.2642
     23  O        -15.2850   23.3000    3.9750 O.2    80  THR80      -0.2714
     24  CB       -13.1400   25.1420    3.2480 C.3    80  THR80       0.1808
     25  OG1      -12.2820   24.8140    4.3580 O.3    80  THR80      -0.2208
     26  CG2      -12.5020   26.2950    2.4040 C.3    80  THR80       0.0379
     27  N        -15.3250   24.4940    5.8620 N.am   81  TYR81      -0.1973
     28  CA       -15.7020   23.3520    6.7270 C.3    81  TYR81       0.1639
     29  C        -14.6220   22.2540    6.7620 C.2    81  TYR81       0.2290
     30  O        -14.8850   21.1260    7.1880 O.2    81  TYR81      -0.2864
     31  CB       -17.0810   22.7950    6.3160 C.3    81  TYR81       0.0560
     32  CG       -18.1650   23.8170    6.5580 C.ar   81  TYR81      -0.0198
     33  CD1      -18.6260   24.6630    5.5360 C.ar   81  TYR81      -0.0009
     34  CD2      -18.6890   23.9860    7.8370 C.ar   81  TYR81      -0.0009
     35  CE1      -19.5990   25.6490    5.8020 C.ar   81  TYR81       0.0417
     36  CE2      -19.6440   24.9400    8.1040 C.ar   81  TYR81       0.0417
     37  CZ       -20.0840   25.7770    7.1010 C.ar   81  TYR81       0.1957
     38  OH       -21.0170   26.7210    7.4490 O.3    81  TYR81      -0.2866
     39  N        -18.7330   24.4140   -3.9330 N.3   154  PHE154     -0.1227
     40  CA       -17.8010   24.6550   -2.8460 C.3   154  PHE154      0.1736
     41  C        -16.7970   23.5180   -2.8140 C.2   154  PHE154      0.2595
     42  O        -17.0480   22.3960   -3.3240 O.2   154  PHE154     -0.2718
     43  CB       -18.5280   24.8340   -1.4910 C.3   154  PHE154      0.0547
     44  CG       -19.4370   26.0400   -1.4610 C.ar  154  PHE154     -0.0202
     45  CD1      -20.7750   25.9320   -1.8000 C.ar  154  PHE154     -0.0042
     46  CD2      -18.9200   27.3130   -1.1660 C.ar  154  PHE154     -0.0042
     47  CE1      -21.6070   27.0810   -1.8000 C.ar  154  PHE154     -0.0003
     48  CE2      -19.7430   28.4700   -1.1670 C.ar  154  PHE154     -0.0003
     49  CZ       -21.0800   28.3570   -1.4850 C.ar  154  PHE154     -0.0000
     50  N        -15.6300   23.8120   -2.2600 N.am  155  ILE155     -0.1980
     51  CA       -14.5930   22.8110   -2.2030 C.3   155  ILE155      0.1595
     52  C        -15.0730   21.6220   -1.3720 C.2   155  ILE155      0.2287
     53  O        -15.7020   21.8040   -0.3160 O.2   155  ILE155     -0.2864
     54  CB       -13.2410   23.3890   -1.7000 C.3   155  ILE155      0.0276
     55  CG1      -12.1120   22.4380   -2.1000 C.3   155  ILE155      0.0022
     56  CG2      -13.2780   23.7620   -0.2130 C.3   155  ILE155      0.0022
     57  CD1      -10.7210   22.8530   -1.6610 C.3   155  ILE155      0.0001
     58  N        -32.2690   12.8990    4.3140 N.3   171  ASP171     -0.1225
     59  CA       -31.0400   13.6610    4.5820 C.3   171  ASP171      0.1805
     60  C        -30.9990   14.0810    6.0510 C.2   171  ASP171      0.2598
     61  O        -32.0350   14.1150    6.7370 O.2   171  ASP171     -0.2718
     62  CB       -31.0080   14.9180    3.6620 C.3   171  ASP171      0.1424
     63  CG       -29.5840   15.4880    3.4290 C.2   171  ASP171      0.3668
     64  OD1      -28.5690   14.9200    3.9380 O.co2 171  ASP171     -0.2456
     65  OD2      -29.4820   16.5400    2.7460 O.co2 171  ASP171     -0.2456
     66  N        -29.8020   14.4120    6.5210 N.am  172  ALA172     -0.1966
     67  CA       -29.6310   15.2000    7.7510 C.3   172  ALA172      0.1728
     68  C        -29.9070   16.6730    7.3850 C.2   172  ALA172      0.2616
     69  O        -30.0060   17.0350    6.1810 O.2   172  ALA172     -0.2715
     70  CB       -28.2180   15.0030    8.3020 C.3   172  ALA172      0.0334
     71  N        -30.0270   17.5370    8.3890 N.am  173  CYS173     -0.1954
     72  CA       -30.4350   18.9180    8.1550 C.3   173  CYS173      0.1843
     73  C        -29.9610   19.8310    9.3010 C.2   173  CYS173      0.2625
     74  O        -29.2890   19.3410   10.2250 O.2   173  CYS173     -0.2714
     75  CB       -31.9780   18.9880    7.9610 C.3   173  CYS173      0.0997
     76  SG       -32.5700   20.4780    7.1270 S.3   173  CYS173     -0.0797
     77  N        -30.2800   21.1290    9.2350 N.am  174  GLN174     -0.1977
     78  CA       -29.8570   22.0490   10.2920 C.3   174  GLN174      0.1601
     79  C        -30.3630   21.5650   11.6580 C.2   174  GLN174      0.2287
     80  O        -31.4670   21.0520   11.7940 O.2   174  GLN174     -0.2864
     81  CB       -30.2660   23.5090   10.0140 C.3   174  GLN174      0.0394
     82  CG       -29.2150   24.3370    9.2080 C.3   174  GLN174      0.0908
     83  CD       -28.4340   25.3650   10.0550 C.2   174  GLN174      0.2608
     84  OE1      -27.3520   25.0770   10.5800 O.2   174  GLN174     -0.2717
     85  NE2      -28.9710   26.5910   10.1460 N.am  174  GLN174     -0.0878
     86  N        -26.2680   19.1600   13.0130 N.3   177  SER177     -0.1217
     87  CA       -24.8460   19.5230   13.0840 C.3   177  SER177      0.1889
     88  C        -24.1500   18.9030   14.2840 C.2   177  SER177      0.2288
     89  O        -24.6750   18.9780   15.4190 O.2   177  SER177     -0.2866
     90  CB       -24.7170   21.0560   13.1990 C.3   177  SER177      0.2089
     91  OG       -25.1840   21.7030   12.0210 O.3   177  SER177     -0.2183
     92  N        -21.9870   15.1520   11.3100 N.3   191  VAL191     -0.1231
     93  CA       -22.8690   15.9800   10.4840 C.3   191  VAL191      0.1692
     94  C        -22.2300   17.3580   10.3280 C.2   191  VAL191      0.2593
     95  O        -22.0140   18.0650   11.3170 O.2   191  VAL191     -0.2718
     96  CB       -24.2720   16.1200   11.0980 C.3   191  VAL191      0.0266
     97  CG1      -25.1580   17.0280   10.1800 C.3   191  VAL191      0.0020
     98  CG2      -24.9400   14.7030   11.3140 C.3   191  VAL191      0.0020
     99  N        -21.9240   17.7320    9.0840 N.am  192  SER192     -0.1938
    100  CA       -21.1390   18.9390    8.8430 C.3   192  SER192      0.2055
    101  C        -21.8470   19.9610    7.9530 C.2   192  SER192      0.2643
    102  O        -22.2110   21.0440    8.4330 O.2   192  SER192     -0.2714
    103  CB       -19.7350   18.5730    8.2930 C.3   192  SER192      0.2130
    104  OG       -19.0160   19.7340    7.9150 O.3   192  SER192     -0.2179
    105  N        -21.9920   19.6670    6.6550 N.am  193  TRP193     -0.1959
    106  CA       -22.6440   20.6260    5.7360 C.3   193  TRP193      0.1771
    107  C        -23.3920   20.0060    4.5380 C.2   193  TRP193      0.2620
    108  O        -23.3500   18.7840    4.3300 O.2   193  TRP193     -0.2715
    109  CB       -21.6370   21.6970    5.2990 C.3   193  TRP193      0.0590
    110  CG       -20.5740   21.1880    4.3600 C.ar  193  TRP193      0.0006
    111  CD1      -19.3930   20.5900    4.7050 C.ar  193  TRP193      0.0946
    112  CD2      -20.5870   21.2470    2.9290 C.ar  193  TRP193      0.0152
    113  NE1      -18.6580   20.2810    3.5840 N.ar  193  TRP193     -0.2442
    114  CE2      -19.3680   20.6610    2.4760 C.ar  193  TRP193      0.0810
    115  CE3      -21.5130   21.7140    1.9750 C.ar  193  TRP193      0.0012
    116  CZ2      -19.0410   20.5520    1.1140 C.ar  193  TRP193      0.0191
    117  CZ3      -21.1720   21.5990    0.6020 C.ar  193  TRP193      0.0001
    118  CH2      -19.9440   21.0260    0.2020 C.ar  193  TRP193      0.0015
    119  N        -24.0870   20.8380    3.7650 N.am  194  GLY194     -0.1940
    120  CA       -24.8370   20.3440    2.6120 C.3   194  GLY194      0.2014
    121  C        -25.6140   21.4960    1.9980 C.2   194  GLY194      0.2639
    122  O        -25.8350   22.5200    2.6570 O.2   194  GLY194     -0.2714
    123  N        -26.0280   21.3370    0.7450 N.am  195  GLU195     -0.1963
    124  CA       -26.8070   22.3900    0.0940 C.3   195  GLU195      0.1733
    125  C        -28.3210   22.1860    0.2480 C.2   195  GLU195      0.2617
    126  O        -28.9400   21.3520   -0.4330 O.2   195  GLU195     -0.2715
    127  CB       -26.3410   22.6160   -1.3500 C.3   195  GLU195      0.0429
    128  CG       -25.1230   23.6010   -1.3930 C.3   195  GLU195      0.1163
    129  CD       -24.3310   23.5810   -2.6960 C.2   195  GLU195      0.3649
    130  OE1      -24.9270   23.7110   -3.7980 O.co2 195  GLU195     -0.2457
    131  OE2      -23.0980   23.4530   -2.6310 O.co2 195  GLU195     -0.2457
    132  N        -28.8930   22.9530    1.1770 N.am  196  GLY196     -0.1940
    133  CA       -30.2560   22.7220    1.6640 C.3   196  GLY196      0.2014
    134  C        -30.3350   21.3820    2.3890 C.2   196  GLY196      0.2639
    135  O        -29.3210   20.9040    2.9100 O.2   196  GLY196     -0.2714
    136  N        -31.5220   20.7740    2.4280 N.am  197  CYS197     -0.1967
    137  CA       -31.6670   19.3970    2.8990 C.3   197  CYS197      0.1712
    138  C        -32.5910   18.5830    2.0030 C.2   197  CYS197      0.2296
    139  O        -33.6600   19.0570    1.6020 O.2   197  CYS197     -0.2864
    140  CB       -32.2060   19.3570    4.3370 C.3   197  CYS197      0.0983
    141  SG       -31.4670   20.5760    5.4180 S.3   197  CYS197     -0.0798
    142  N        -28.1650   16.0690   -4.3590 N.3   202  LYS202     -0.1245
    143  CA       -27.4280   16.9790   -3.4760 C.3   202  LYS202      0.1561
    144  C        -27.2730   16.3550   -2.0850 C.2   202  LYS202      0.2260
    145  O        -27.8760   16.8440   -1.1260 O.2   202  LYS202     -0.2867
    146  CB       -28.1660   18.3140   -3.3460 C.3   202  LYS202      0.0271
    147  CG       -28.3320   19.1120   -4.6580 C.3   202  LYS202      0.0035
    148  CD       -27.0210   19.7040   -5.1370 C.3   202  LYS202      0.0206
    149  CE       -27.1840   20.4710   -6.4730 C.3   202  LYS202      0.1093
    150  NZ       -27.9550   21.7330   -6.3280 N.3   202  LYS202     -0.1314
    151  N        -25.5270   15.0120    1.5730 N.3   204  GLY204     -0.1225
    152  CA       -24.7900   15.7420    2.6030 C.3   204  GLY204      0.1811
    153  C        -23.3130   15.3950    2.6950 C.2   204  GLY204      0.2280
    154  O        -22.8670   14.3550    2.1790 O.2   204  GLY204     -0.2866
    155  N        -19.8920   15.0610    5.3660 N.3   206  TYR206     -0.1241
    156  CA       -19.6740   14.7010    6.7580 C.3   206  TYR206      0.1605
    157  C        -18.1780   14.6820    6.9990 C.2   206  TYR206      0.2264
    158  O        -17.4230   14.2440    6.1210 O.2   206  TYR206     -0.2867
    159  CB       -20.3080   13.3220    7.0350 C.3   206  TYR206      0.0534
    160  CG       -21.7880   13.3580    6.7640 C.ar  206  TYR206     -0.0201
    161  CD1      -22.3040   13.2760    5.4450 C.ar  206  TYR206     -0.0009
    162  CD2      -22.6840   13.5680    7.8040 C.ar  206  TYR206     -0.0009
    163  CE1      -23.7030   13.3510    5.2130 C.ar  206  TYR206      0.0417
    164  CE2      -24.0620   13.6290    7.5850 C.ar  206  TYR206      0.0417
    165  CZ       -24.5600   13.5410    6.2930 C.ar  206  TYR206      0.1957
    166  OH       -25.9300   13.6460    6.1140 O.3   206  TYR206     -0.2866
@<TRIPOS>BOND
     1   149   150    1
     2   149   148    1
     3   148   147    1
     4   147   146    1
     5   142   143    1
     6    39    40    1
     7   130   129   ar
     8   143   146    1
     9   143   144    1
    10    42    41    2
    11    40    41    1
    12    40    43    1
    13    41    50   am
    14   129   131   ar
    15   129   128    1
    16    50    51    1
    17    51    54    1
    18    51    52    1
    19    55    54    1
    20    55    57    1
    21   144   145    2
    22    47    45   ar
    23    47    49   ar
    24    45    44   ar
    25    54    56    1
    26    43    44    1
    27    49    48   ar
    28    44    46   ar
    29   128   127    1
    30    52    53    2
    31   127   124    1
    32    48    46   ar
    33   126   125    2
    34   124   125    1
    35   124   123    1
    36   118   117   ar
    37   118   116   ar
    38   125   132   am
    39   117   115   ar
    40   123   121   am
    41   116   114   ar
    42   132   133    1
    43   151   152    1
    44   139   138    2
    45   133   134    1
    46   115   112   ar
    47   121   120    1
    48   121   122    2
    49   138   137    1
    50   154   153    2
    51   134   136   am
    52   134   135    2
    53    26    24    1
    54   136   137    1
    55   114   112   ar
    56   114   113   ar
    57   152   153    1
    58   120   119    1
    59    65    63   ar
    60   137   140    1
    61   112   110   ar
    62    24    21    1
    63    24    25    1
    64    14    13    2
    65    63    62    1
    66    63    64   ar
    67   113   111   ar
    68    62    59    1
    69   119   107   am
    70    21    22    1
    71    21    20    1
    72    23    22    2
    73    13    20   am
    74    13    12    1
    75    16    15    1
    76    16    17    1
    77    58    59    1
    78   108   107    2
    79   140   141    1
    80   110   111   ar
    81   110   109    1
    82   107   106    1
    83    22    27   am
    84    59    60    1
    85    15    12    1
    86    19    17   ar
    87   163   161   ar
    88   163   165   ar
    89    12    11    1
    90   109   106    1
    91    17    18   ar
    92   155   156    1
    93   141    76    1
    94   161   160   ar
    95    33    35   ar
    96    33    32   ar
    97   106   105    1
    98    35    37   ar
    99    27    28    1
   100    60    66   am
   101    60    61    2
   102   166   165    1
   103   158   157    2
   104    69    68    2
   105   165   164   ar
   106    31    32    1
   107    31    28    1
   108    66    67    1
   109    32    34   ar
   110   105   101   am
   111    28    29    1
   112   156   157    1
   113   156   159    1
   114    29    30    2
   115   160   159    1
   116   160   162   ar
   117    37    38    1
   118    37    36   ar
   119    76    75    1
   120    68    67    1
   121    68    71   am
   122   164   162   ar
   123    67    70    1
   124    34    36   ar
   125   104   103    1
   126   101   102    2
   127   101   100    1
   128    75    72    1
   129    72    71    1
   130    72    73    1
   131   103   100    1
   132   100    99    1
   133    99    94   am
   134    82    81    1
   135    82    83    1
   136    77    73   am
   137    77    78    1
   138    73    74    2
   139    81    78    1
   140    83    85   am
   141    83    84    2
   142    97    96    1
   143    78    79    1
   144    94    93    1
   145    94    95    2
   146    93    96    1
   147    93    92    1
   148    96    98    1
   149     9     7   ar
   150     9    10   ar
   151     7     6   ar
   152    79    80    2
   153    10     8   ar
   154     6     8   ar
   155     6     5    1
   156    91    90    1
   157     5     2    1
   158    86    87    1
   159    87    90    1
   160    87    88    1
   161     2     1    1
   162     2     3    1
   163    88    89    2
   164     3     4    2
