@<TRIPOS>MOLECULE
tmp/3v14A01.pdb
 129 124 0 0 0
SMALL
GASTEIGER

@<TRIPOS>ATOM
      1  N        -21.7580  -19.4910  -13.7670 N.3    69  VAL69      -0.1231
      2  CA       -21.4000  -18.2010  -14.3270 C.3    69  VAL69       0.1692
      3  C        -19.9940  -17.7890  -13.9260 C.2    69  VAL69       0.2592
      4  O        -19.6960  -16.6190  -13.8690 O.2    69  VAL69      -0.2718
      5  CB       -22.4160  -17.0790  -13.9780 C.3    69  VAL69       0.0266
      6  CG1      -22.5280  -16.1160  -15.1010 C.3    69  VAL69       0.0020
      7  CG2      -23.8040  -17.6790  -13.6260 C.3    69  VAL69       0.0020
      8  N        -19.1450  -18.7610  -13.6500 N.am   70  TYR70      -0.1962
      9  CA       -17.7600  -18.4220  -13.2310 C.3    70  TYR70       0.1771
     10  C        -16.8980  -18.2690  -14.4660 C.2    70  TYR70       0.2619
     11  O        -16.9720  -19.0340  -15.4040 O.2    70  TYR70      -0.2715
     12  CB       -17.1350  -19.4850  -12.3590 C.3    70  TYR70       0.0574
     13  CG       -17.7340  -19.6960  -10.9950 C.ar   70  TYR70      -0.0198
     14  CD1      -17.5620  -20.9620  -10.3510 C.ar   70  TYR70      -0.0009
     15  CD2      -18.5050  -18.7080  -10.3240 C.ar   70  TYR70      -0.0009
     16  CE1      -18.1540  -21.2180   -9.0770 C.ar   70  TYR70       0.0417
     17  CE2      -19.0980  -18.9630   -9.0690 C.ar   70  TYR70       0.0417
     18  CZ       -18.9190  -20.1980   -8.4530 C.ar   70  TYR70       0.1957
     19  OH       -19.4730  -20.4260   -7.1950 O.3    70  TYR70      -0.2866
     20  N        -16.1010  -17.1750  -14.5340 N.am   71  ILE71      -0.1963
     21  CA       -15.2380  -17.0250  -15.7290 C.3    71  ILE71       0.1727
     22  C        -14.0270  -17.9520  -15.4840 C.2    71  ILE71       0.2616
     23  O        -13.4910  -17.9860  -14.3720 O.2    71  ILE71      -0.2715
     24  CB       -14.7440  -15.5490  -15.7590 C.3    71  ILE71       0.0290
     25  CG1      -15.9250  -14.6680  -16.2630 C.3    71  ILE71       0.0022
     26  CG2      -13.4910  -15.3740  -16.6170 C.3    71  ILE71       0.0023
     27  CD1      -15.7150  -13.1230  -16.1000 C.3    71  ILE71       0.0001
     28  N        -13.7000  -18.7170  -16.4770 N.am   72  MET72      -0.1977
     29  CA       -12.6090  -19.6830  -16.3930 C.3    72  MET72       0.1605
     30  C        -11.2980  -19.0960  -16.9990 C.2    72  MET72       0.2287
     31  O        -10.2170  -19.5000  -16.5720 O.2    72  MET72      -0.2864
     32  CB       -12.9950  -20.9280  -17.2540 C.3    72  MET72       0.0413
     33  CG       -14.1810  -21.8530  -16.6470 C.3    72  MET72       0.0598
     34  SD       -13.7660  -22.4150  -14.9830 S.3    72  MET72      -0.1393
     35  CE       -14.4000  -21.1390  -13.9020 C.3    72  MET72       0.0692
     36  N         -7.4190  -19.1270  -15.1800 N.3    83  PHE83      -0.1241
     37  CA        -7.1140  -19.0920  -13.7640 C.3    83  PHE83       0.1605
     38  C         -6.3600  -20.3500  -13.2780 C.2    83  PHE83       0.2264
     39  O         -6.5050  -21.4510  -13.8350 O.2    83  PHE83      -0.2867
     40  CB        -8.4270  -18.9700  -12.9540 C.3    83  PHE83       0.0534
     41  CG        -9.0380  -17.5950  -13.0410 C.ar   83  PHE83      -0.0203
     42  CD1       -8.2730  -16.5220  -12.5750 C.ar   83  PHE83      -0.0042
     43  CD2      -10.3140  -17.3830  -13.6040 C.ar   83  PHE83      -0.0042
     44  CE1       -8.7730  -15.2040  -12.6420 C.ar   83  PHE83      -0.0003
     45  CE2      -10.8850  -16.0690  -13.6190 C.ar   83  PHE83      -0.0003
     46  CZ       -10.0650  -14.9850  -13.1780 C.ar   83  PHE83      -0.0000
     47  N         -6.6260  -22.8830  -11.2410 N.3    85  GLU85      -0.1245
     48  CA        -7.6250  -23.6900  -10.4290 C.3    85  GLU85       0.1567
     49  C         -8.1200  -24.8340  -11.2740 C.2    85  GLU85       0.2260
     50  O         -8.1200  -24.7860  -12.4920 O.2    85  GLU85      -0.2867
     51  CB        -8.7680  -22.8940   -9.8580 C.3    85  GLU85       0.0388
     52  CG        -9.5970  -22.3160  -10.9040 C.3    85  GLU85       0.1160
     53  CD       -10.7140  -21.6000  -10.2800 C.2    85  GLU85       0.3649
     54  OE1      -10.5730  -20.3650  -10.0880 O.co2  85  GLU85      -0.2457
     55  OE2      -11.6940  -22.3080   -9.8820 O.co2  85  GLU85      -0.2457
     56  N         -9.5730  -17.7220   -9.4950 N.3   109  GLY109     -0.1210
     57  CA       -10.5700  -16.7330   -9.8910 C.3   109  GLY109      0.1956
     58  C        -11.4140  -16.1960   -8.7350 C.2   109  GLY109      0.2612
     59  O        -12.3030  -15.3770   -8.8860 O.2   109  GLY109     -0.2717
     60  N        -11.1360  -16.5930   -7.5500 N.am  110  ASN110     -0.1960
     61  CA       -11.9810  -16.0380   -6.5480 C.3   110  ASN110      0.1819
     62  C        -11.6350  -14.6510   -6.0220 C.2   110  ASN110      0.2621
     63  O        -10.4650  -14.1790   -6.1740 O.2   110  ASN110     -0.2715
     64  CB       -12.1510  -16.9620   -5.4590 C.3   110  ASN110      0.1195
     65  CG       -10.9790  -17.0730   -4.6630 C.2   110  ASN110      0.2630
     66  OD1      -10.7620  -16.3420   -3.6590 O.2   110  ASN110     -0.2716
     67  ND2      -10.1850  -18.0350   -5.0420 N.am  110  ASN110     -0.0877
     68  N        -12.6670  -13.9840   -5.4840 N.am  111  TYR111     -0.1960
     69  CA       -12.5050  -12.5770   -5.1790 C.3   111  TYR111      0.1771
     70  C        -11.3770  -12.3740   -4.1900 C.2   111  TYR111      0.2619
     71  O        -10.6400  -11.3850   -4.2970 O.2   111  TYR111     -0.2715
     72  CB       -13.7610  -12.0820   -4.5690 C.3   111  TYR111      0.0574
     73  CG       -14.8280  -11.7350   -5.6130 C.ar  111  TYR111     -0.0198
     74  CD1      -14.5050  -11.0440   -6.7720 C.ar  111  TYR111     -0.0009
     75  CD2      -16.2240  -11.9850   -5.3470 C.ar  111  TYR111     -0.0009
     76  CE1      -15.5650  -10.6040   -7.6890 C.ar  111  TYR111      0.0417
     77  CE2      -17.2410  -11.5560   -6.2260 C.ar  111  TYR111      0.0417
     78  CZ       -16.9290  -10.8960   -7.3780 C.ar  111  TYR111      0.1957
     79  OH       -17.9060  -10.4780   -8.2630 O.3   111  TYR111     -0.2866
     80  N        -11.2600  -13.2500   -3.2070 N.am  112  GLU112     -0.1977
     81  CA       -10.2010  -13.0460   -2.2260 C.3   112  GLU112      0.1602
     82  C         -8.7730  -13.0790   -2.9140 C.2   112  GLU112      0.2287
     83  O         -7.9730  -12.1440   -2.7300 O.2   112  GLU112     -0.2864
     84  CB       -10.3690  -14.0420   -1.0700 C.3   112  GLU112      0.0415
     85  CG        -9.0740  -14.4200   -0.2950 C.3   112  GLU112      0.1163
     86  CD        -9.0530  -15.8970    0.3280 C.2   112  GLU112      0.3649
     87  OE1       -8.7120  -15.9820    1.5330 O.co2 112  GLU112     -0.2457
     88  OE2       -9.3160  -16.9520   -0.3670 O.co2 112  GLU112     -0.2457
     89  N        -15.5740   -9.4370  -13.9920 N.3   155  ILE155     -0.1245
     90  CA       -16.5080  -10.4180  -13.2780 C.3   155  ILE155      0.1561
     91  C        -17.7860   -9.6770  -12.8380 C.2   155  ILE155      0.2260
     92  O        -18.8990  -10.1560  -13.1480 O.2   155  ILE155     -0.2867
     93  CB       -15.8210  -11.0740  -12.1200 C.3   155  ILE155      0.0252
     94  CG1      -14.7490  -12.0190  -12.7240 C.3   155  ILE155      0.0019
     95  CG2      -16.9030  -11.7500  -11.1550 C.3   155  ILE155      0.0019
     96  CD1      -13.7170  -12.3900  -11.5900 C.3   155  ILE155      0.0001
     97  N        -20.6240  -11.3630  -15.3370 N.3   159  ALA159     -0.1231
     98  CA       -21.4250  -12.4510  -14.7520 C.3   159  ALA159      0.1694
     99  C        -22.1790  -12.0050  -13.5410 C.2   159  ALA159      0.2591
    100  O        -23.4250  -12.1210  -13.3970 O.2   159  ALA159     -0.2718
    101  CB       -20.5480  -13.6360  -14.4140 C.3   159  ALA159      0.0304
    102  N        -21.7710  -10.9550  -12.6990 N.am  160  GLU160     -0.1979
    103  CA       -22.5590  -10.4730  -11.5750 C.3   160  GLU160      0.1602
    104  C        -23.8620   -9.7340  -11.9790 C.2   160  GLU160      0.2287
    105  O        -24.9780  -10.3390  -11.8350 O.2   160  GLU160     -0.2864
    106  CB       -21.8440   -9.4240  -10.6670 C.3   160  GLU160      0.0415
    107  CG       -20.8010  -10.0880   -9.7840 C.3   160  GLU160      0.1163
    108  CD       -21.3590  -11.3630   -9.0600 C.2   160  GLU160      0.3649
    109  OE1      -22.4650  -11.8560   -9.4400 O.co2 160  GLU160     -0.2457
    110  OE2      -20.4460  -11.8790   -8.3680 O.co2 160  GLU160     -0.2457
    111  N        -26.4520  -12.0640  -12.7730 N.3   163  ARG163     -0.1245
    112  CA       -27.1400  -12.7040  -11.6220 C.3   163  ARG163      0.1563
    113  C        -28.1450  -11.7890  -10.9160 C.2   163  ARG163      0.2260
    114  O        -29.0590  -12.3420  -10.2390 O.2   163  ARG163     -0.2867
    115  CB       -26.0870  -13.1240  -10.5620 C.3   163  ARG163      0.0307
    116  CG       -25.1230  -14.1480  -11.0810 C.3   163  ARG163      0.0489
    117  CD       -24.0030  -14.3940  -10.0820 C.3   163  ARG163      0.2205
    118  NE       -23.1110  -15.4740  -10.5170 N.pl3 163  ARG163     -0.0865
    119  CZ       -21.7850  -15.5010  -10.2290 C.cat 163  ARG163      0.5346
    120  NH1      -21.2240  -14.4430   -9.6280 N.pl3 163  ARG163      0.1354
    121  NH2      -21.0060  -16.5320  -10.5560 N.pl3 163  ARG163      0.1354
    122  N        -21.5040  -11.3880   -2.6730 N.3   190  ASN190     -0.1240
    123  CA       -21.0620  -12.2660   -1.6090 C.3   190  ASN190      0.1653
    124  C        -22.1610  -13.2790   -1.1920 C.2   190  ASN190      0.2266
    125  O        -21.8160  -14.3860   -0.7230 O.2   190  ASN190     -0.2867
    126  CB       -20.7030  -11.4230   -0.4370 C.3   190  ASN190      0.1155
    127  CG       -19.2900  -10.7940   -0.5670 C.2   190  ASN190      0.2627
    128  OD1      -18.5520  -11.1470   -1.4890 O.2   190  ASN190     -0.2716
    129  ND2      -19.0120   -9.7560    0.2710 N.am  190  ASN190     -0.0877
@<TRIPOS>BOND
     1    32    33    1
     2    32    29    1
     3    30    31    2
     4    30    29    1
     5    33    34    1
     6    26    24    1
     7    28    29    1
     8    28    22   am
     9    25    27    1
    10    25    24    1
    11    24    21    1
    12    21    22    1
    13    21    20    1
    14    22    23    2
    15    11    10    2
    16    97    98    1
    17    36    37    1
    18     6     5    1
    19    34    35    1
    20    98   101    1
    21    98    99    1
    22    20    10   am
    23    10     9    1
    24     2     5    1
    25     2     3    1
    26     2     1    1
    27    89    90    1
    28     5     7    1
    29     3     4    2
    30     3     8   am
    31    39    38    2
    32    37    38    1
    33    37    40    1
    34     8     9    1
    35    45    43   ar
    36    45    46   ar
    37    43    41   ar
    38    99   100    2
    39    99   102   am
    40    90    91    1
    41    90    93    1
    42     9    12    1
    43    46    44   ar
    44    92    91    2
    45    41    40    1
    46    41    42   ar
    47   111   112    1
    48    94    93    1
    49    94    96    1
    50   102   103    1
    51    44    42   ar
    52    50    49    2
    53    12    13    1
    54    93    95    1
    55   104   105    2
    56   104   103    1
    57   112   113    1
    58   112   115    1
    59   103   106    1
    60    49    48    1
    61    47    48    1
    62   116   115    1
    63   116   117    1
    64    13    14   ar
    65    13    15   ar
    66   113   114    2
    67    52    53    1
    68    52    51    1
    69   106   107    1
    70   121   119    1
    71   118   119    2
    72   118   117    1
    73    48    51    1
    74    14    16   ar
    75    15    17   ar
    76    53    54   ar
    77    53    55   ar
    78   119   120    1
    79    57    56    1
    80    57    58    1
    81   107   108    1
    82   109   108   ar
    83    16    18   ar
    84    17    18   ar
    85   108   110   ar
    86    59    58    2
    87    58    60   am
    88    18    19    1
    89    79    78    1
    90    76    78   ar
    91    76    74   ar
    92    60    61    1
    93    78    77   ar
    94    74    73   ar
    95    61    62    1
    96    61    64    1
    97    77    75   ar
    98    63    62    2
    99    62    68   am
   100    73    75   ar
   101    73    72    1
   102    68    69    1
   103    64    65    1
   104    69    72    1
   105    69    70    1
   106    67    65   am
   107    65    66    2
   108    71    70    2
   109    70    80   am
   110    80    81    1
   111    82    83    2
   112    82    81    1
   113   122   123    1
   114    81    84    1
   115   123   124    1
   116   123   126    1
   117   128   127    2
   118   124   125    2
   119    84    85    1
   120   127   126    1
   121   127   129   am
   122    88    86   ar
   123    85    86    1
   124    86    87   ar
