@<TRIPOS>MOLECULE
tmp/3v17B00.pdb
 129 121 0 0 0
SMALL
GASTEIGER

@<TRIPOS>ATOM
      1  N        -56.1360   77.1720   -8.7780 N.3    82  LEU82      -0.1245
      2  CA       -56.5740   76.4620   -7.5850 C.3    82  LEU82       0.1561
      3  C        -57.0970   77.4810   -6.5870 C.2    82  LEU82       0.2260
      4  O        -56.3200   78.1520   -5.9120 O.2    82  LEU82      -0.2867
      5  CB       -55.4180   75.6680   -6.9730 C.3    82  LEU82       0.0270
      6  CG       -54.5870   74.7930   -7.9210 C.3    82  LEU82       0.0019
      7  CD1      -53.4820   74.0680   -7.1700 C.3    82  LEU82       0.0001
      8  CD2      -55.4680   73.7970   -8.6580 C.3    82  LEU82       0.0001
      9  N        -60.2070   72.0960   -0.8580 N.3    89  VAL89      -0.1245
     10  CA       -58.8750   71.4940   -0.8660 C.3    89  VAL89       0.1561
     11  C        -58.5910   70.7080    0.4090 C.2    89  VAL89       0.2260
     12  O        -57.4390   70.4010    0.7150 O.2    89  VAL89      -0.2867
     13  CB       -57.7710   72.5540   -1.0510 C.3    89  VAL89       0.0252
     14  CG1      -57.9350   73.2600   -2.3840 C.3    89  VAL89       0.0019
     15  CG2      -57.7840   73.5510    0.1090 C.3    89  VAL89       0.0019
     16  N        -56.2760   67.7310    0.1880 N.3    92  ASN92      -0.1240
     17  CA       -54.8400   67.8590   -0.0310 C.3    92  ASN92       0.1653
     18  C        -54.0750   67.7690    1.2850 C.2    92  ASN92       0.2266
     19  O        -52.8450   67.7060    1.2980 O.2    92  ASN92      -0.2867
     20  CB       -54.4980   69.1610   -0.7580 C.3    92  ASN92       0.1155
     21  CG       -55.0630   69.2140   -2.1620 C.2    92  ASN92       0.2627
     22  OD1      -55.5900   70.2400   -2.5900 O.2    92  ASN92      -0.2716
     23  ND2      -54.9610   68.1050   -2.8860 N.am   92  ASN92      -0.0877
     24  N        -49.3860   62.7400   -0.2010 N.3    96  HIS96      -0.1241
     25  CA       -49.6350   62.1630   -1.5110 C.3    96  HIS96       0.1621
     26  C        -48.5420   62.5090   -2.5170 C.2    96  HIS96       0.2264
     27  O        -47.8680   63.5330   -2.4010 O.2    96  HIS96      -0.2867
     28  CB       -51.0000   62.6150   -2.0480 C.3    96  HIS96       0.0745
     29  CG       -51.1180   64.0970   -2.2380 C.ar   96  HIS96       0.0817
     30  ND1      -51.4960   64.9500   -1.2230 N.ar   96  HIS96      -0.2268
     31  CD2      -50.9180   64.8760   -3.3280 C.ar   96  HIS96       0.1154
     32  CE1      -51.5170   66.1910   -1.6770 C.ar   96  HIS96       0.1986
     33  NE2      -51.1700   66.1740   -2.9510 N.ar   96  HIS96      -0.2212
     34  N        -48.5270   63.0950   -6.6170 N.3    98  ASP98      -0.1239
     35  CA       -49.5870   63.4340   -7.5600 C.3    98  ASP98       0.1674
     36  C        -49.8750   62.3420   -8.5840 C.2    98  ASP98       0.2266
     37  O        -48.9590   61.7360   -9.1380 O.2    98  ASP98      -0.2867
     38  CB       -49.2850   64.7630   -8.2530 C.3    98  ASP98       0.1410
     39  CG       -49.4770   65.9510   -7.3320 C.2    98  ASP98       0.3668
     40  OD1      -50.5410   66.0290   -6.6760 O.co2  98  ASP98      -0.2456
     41  OD2      -48.5620   66.7980   -7.2500 O.co2  98  ASP98      -0.2456
     42  N        -45.6320   75.8230   -9.0900 N.3   111  LEU111     -0.1245
     43  CA       -46.7790   76.3960   -8.4020 C.3   111  LEU111      0.1561
     44  C        -46.5340   77.8570   -8.0320 C.2   111  LEU111      0.2260
     45  O        -45.4550   78.2160   -7.5570 O.2   111  LEU111     -0.2867
     46  CB       -47.0780   75.5810   -7.1470 C.3   111  LEU111      0.0270
     47  CG       -48.3810   75.8530   -6.4000 C.3   111  LEU111      0.0019
     48  CD1      -49.5570   75.3020   -7.1860 C.3   111  LEU111      0.0001
     49  CD2      -48.3160   75.2250   -5.0200 C.3   111  LEU111      0.0001
     50  N        -47.1830   74.1890    3.1910 N.3   123  THR123     -0.1218
     51  CA       -47.0580   72.9520    2.4380 C.3   123  THR123      0.1862
     52  C        -45.7790   72.2210    2.8350 C.2   123  THR123      0.2287
     53  O        -44.7110   72.8280    2.9030 O.2   123  THR123     -0.2866
     54  CB       -47.0660   73.2070    0.9270 C.3   123  THR123      0.1770
     55  OG1      -48.2570   73.9180    0.5730 O.3   123  THR123     -0.2211
     56  CG2      -47.0250   71.8860    0.1660 C.3   123  THR123      0.0375
     57  N        -43.0810   68.8670    2.1940 N.3   125  TRP125     -0.1241
     58  CA       -42.6100   67.9060    1.2060 C.3   125  TRP125      0.1605
     59  C        -41.7550   66.8490    1.8830 C.2   125  TRP125      0.2264
     60  O        -41.0500   67.1410    2.8440 O.2   125  TRP125     -0.2867
     61  CB       -41.7880   68.5960    0.1210 C.3   125  TRP125      0.0550
     62  CG       -42.5870   69.2640   -0.9510 C.ar  125  TRP125      0.0003
     63  CD1      -42.9510   68.7300   -2.1530 C.ar  125  TRP125      0.0946
     64  CD2      -43.0960   70.6030   -0.9360 C.ar  125  TRP125      0.0152
     65  NE1      -43.6620   69.6500   -2.8830 N.ar  125  TRP125     -0.2442
     66  CE2      -43.7640   70.8090   -2.1590 C.ar  125  TRP125      0.0810
     67  CE3      -43.0560   71.6450   -0.0050 C.ar  125  TRP125      0.0012
     68  CZ2      -44.3880   72.0150   -2.4770 C.ar  125  TRP125      0.0191
     69  CZ3      -43.6750   72.8450   -0.3230 C.ar  125  TRP125      0.0001
     70  CH2      -44.3310   73.0180   -1.5490 C.ar  125  TRP125      0.0015
     71  N        -41.2080   71.3630   -7.7650 N.3   245  TRP245     -0.1241
     72  CA       -40.8250   70.0870   -7.1650 C.3   245  TRP245      0.1605
     73  C        -40.8100   68.9270   -8.1480 C.2   245  TRP245      0.2264
     74  O        -41.5130   68.9370   -9.1560 O.2   245  TRP245     -0.2867
     75  CB       -41.7160   69.7480   -5.9620 C.3   245  TRP245      0.0550
     76  CG       -43.1620   69.4470   -6.2980 C.ar  245  TRP245      0.0003
     77  CD1      -43.7020   68.2220   -6.5750 C.ar  245  TRP245      0.0946
     78  CD2      -44.2450   70.3870   -6.3700 C.ar  245  TRP245      0.0152
     79  NE1      -45.0500   68.3420   -6.8220 N.ar  245  TRP245     -0.2442
     80  CE2      -45.4080   69.6600   -6.7020 C.ar  245  TRP245      0.0810
     81  CE3      -44.3430   71.7710   -6.1900 C.ar  245  TRP245      0.0012
     82  CZ2      -46.6530   70.2710   -6.8580 C.ar  245  TRP245      0.0191
     83  CZ3      -45.5810   72.3760   -6.3430 C.ar  245  TRP245      0.0001
     84  CH2      -46.7190   71.6270   -6.6720 C.ar  245  TRP245      0.0015
     85  N        -46.0490   65.3520   -0.9210 N.3   252  HIS252     -0.1241
     86  CA       -46.3250   66.6140   -0.2480 C.3   252  HIS252      0.1621
     87  C        -47.6800   66.6140    0.4540 C.2   252  HIS252      0.2264
     88  O        -48.5000   65.7170    0.2560 O.2   252  HIS252     -0.2867
     89  CB       -46.1640   67.8140   -1.1860 C.3   252  HIS252      0.0745
     90  CG       -47.0130   67.7480   -2.4150 C.ar  252  HIS252      0.0817
     91  ND1      -46.7110   66.9330   -3.4850 N.ar  252  HIS252     -0.2268
     92  CD2      -48.1400   68.4170   -2.7570 C.ar  252  HIS252      0.1154
     93  CE1      -47.6230   67.0910   -4.4270 C.ar  252  HIS252      0.1986
     94  NE2      -48.5000   67.9880   -4.0120 N.ar  252  HIS252     -0.2212
     95  N        -50.6750   69.4630    1.9930 N.3   254  ALA254     -0.1245
     96  CA       -51.1630   70.8360    2.0870 C.3   254  ALA254      0.1562
     97  C        -51.9800   71.0270    3.3520 C.2   254  ALA254      0.2260
     98  O        -53.0960   70.5280    3.4590 O.2   254  ALA254     -0.2867
     99  CB       -51.9850   71.1990    0.8640 C.3   254  ALA254      0.0290
    100  N        -57.6290   81.2080   -0.5290 N.3   263  ARG263     -0.1245
    101  CA       -56.2910   80.8500   -0.9740 C.3   263  ARG263      0.1563
    102  C        -56.3180   80.5180   -2.4600 C.2   263  ARG263      0.2260
    103  O        -57.0950   79.6670   -2.9030 O.2   263  ARG263     -0.2867
    104  CB       -55.7600   79.6660   -0.1650 C.3   263  ARG263      0.0307
    105  CG       -54.2620   79.4330   -0.2950 C.3   263  ARG263      0.0489
    106  CD       -53.7820   78.3800    0.7020 C.3   263  ARG263      0.2205
    107  NE       -52.3490   78.1340    0.5880 N.pl3 263  ARG263     -0.0865
    108  CZ       -51.8090   77.1410   -0.1130 C.cat 263  ARG263      0.5346
    109  NH1      -52.5820   76.2800   -0.7650 N.pl3 263  ARG263      0.1354
    110  NH2      -50.4900   77.0050   -0.1560 N.pl3 263  ARG263      0.1354
    111  N        -53.8450   79.5420   -5.7670 N.3   265  MET265     -0.1245
    112  CA       -52.5660   79.1610   -6.3420 C.3   265  MET265      0.1570
    113  C        -52.7610   78.9130   -7.8280 C.2   265  MET265      0.2261
    114  O        -53.8670   78.6040   -8.2670 O.2   265  MET265     -0.2867
    115  CB       -52.0380   77.8900   -5.6750 C.3   265  MET265      0.0387
    116  CG       -52.1300   77.8830   -4.1520 C.3   265  MET265      0.0595
    117  SD       -51.0370   79.0610   -3.3220 S.3   265  MET265     -0.1393
    118  CE       -49.4540   78.2310   -3.4430 C.3   265  MET265      0.0692
    119  N        -51.0920   76.4860  -10.8940 N.3   267  ARG267     -0.1245
    120  CA       -50.2430   75.3130  -11.0670 C.3   267  ARG267      0.1563
    121  C        -50.0450   74.9330  -12.5280 C.2   267  ARG267      0.2260
    122  O        -51.0020   74.8430  -13.2920 O.2   267  ARG267     -0.2867
    123  CB       -50.8180   74.1170  -10.2990 C.3   267  ARG267      0.0307
    124  CG       -50.0790   72.8110  -10.5530 C.3   267  ARG267      0.0489
    125  CD       -50.5850   71.6930   -9.6590 C.3   267  ARG267      0.2205
    126  NE       -51.9440   71.2880  -10.0030 N.pl3 267  ARG267     -0.0865
    127  CZ       -52.8440   70.8680   -9.1190 C.cat 267  ARG267      0.5346
    128  NH1      -54.0580   70.5180   -9.5210 N.pl3 267  ARG267      0.1354
    129  NH2      -52.5330   70.8030   -7.8310 N.pl3 267  ARG267      0.1354
@<TRIPOS>BOND
     1   122   121    2
     2   121   120    1
     3   120   119    1
     4   120   123    1
     5   124   123    1
     6   124   125    1
     7   126   125    1
     8   126   127    2
     9   128   127    1
    10    74    73    2
    11    37    36    2
    12   127   129    1
    13    42    43    1
    14     1     2    1
    15     8     6    1
    16    36    35    1
    17    43    44    1
    18    43    46    1
    19   114   113    2
    20    38    35    1
    21    38    39    1
    22    73    72    1
    23    44    45    2
    24     6     7    1
    25     6     5    1
    26   113   112    1
    27    71    72    1
    28     2     5    1
    29     2     3    1
    30    35    34    1
    31    39    41   ar
    32    39    40   ar
    33    48    47    1
    34    72    75    1
    35    46    47    1
    36    82    80   ar
    37    82    84   ar
    38    79    80   ar
    39    79    77   ar
    40    80    78   ar
    41    84    83   ar
    42     3     4    2
    43    77    76   ar
    44    47    49    1
    45    78    76   ar
    46    78    81   ar
    47    83    81   ar
    48   112   111    1
    49   112   115    1
    50    76    75    1
    51   115   116    1
    52    93    94   ar
    53    93    91   ar
    54   116   117    1
    55    94    92   ar
    56    91    90   ar
    57   118   117    1
    58    31    33   ar
    59    31    29   ar
    60    33    32   ar
    61   103   102    2
    62    23    21   am
    63    65    66   ar
    64    65    63   ar
    65    92    90   ar
    66    22    21    2
    67    26    27    2
    68    26    25    1
    69    68    66   ar
    70    68    70   ar
    71   102   101    1
    72    90    89    1
    73    14    13    1
    74    29    28    1
    75    29    30   ar
    76    21    20    1
    77    66    64   ar
    78    63    62   ar
    79    28    25    1
    80    32    30   ar
    81    70    69   ar
    82    25    24    1
    83    89    86    1
    84    13    10    1
    85    13    15    1
    86   101   100    1
    87   101   104    1
    88    62    64   ar
    89    62    61    1
    90    64    67   ar
    91    85    86    1
    92    10     9    1
    93    10    11    1
    94   109   108    1
    95    20    17    1
    96    69    67   ar
    97   105   104    1
    98   105   106    1
    99    86    87    1
   100   110   108    1
   101   108   107    2
   102    17    16    1
   103    17    18    1
   104    61    58    1
   105    56    54    1
   106    88    87    2
   107    11    12    2
   108    55    54    1
   109   107   106    1
   110    99    96    1
   111    54    51    1
   112    58    59    1
   113    58    57    1
   114    18    19    2
   115    59    60    2
   116    95    96    1
   117    96    97    1
   118    51    52    1
   119    51    50    1
   120    52    53    2
   121    97    98    2
