@<TRIPOS>MOLECULE
tmp/3v1hA00.pdb
 131 124 0 0 0
SMALL
GASTEIGER

@<TRIPOS>ATOM
      1  N          4.6610   28.2310   -4.6170 N.3    28  HIS28      -0.1226
      2  CA         3.3090   27.7900   -4.2490 C.3    28  HIS28       0.1752
      3  C          2.7330   26.8130   -5.2820 C.2    28  HIS28       0.2596
      4  O          2.8600   27.0830   -6.4760 O.2    28  HIS28      -0.2718
      5  CB         2.3990   29.0330   -4.0870 C.3    28  HIS28       0.0759
      6  CG         0.9280   28.7220   -4.1270 C.ar   28  HIS28       0.0818
      7  ND1        0.2710   28.0240   -3.1280 N.ar   28  HIS28      -0.2268
      8  CD2       -0.0100   29.0260   -5.0480 C.ar   28  HIS28       0.1154
      9  CE1       -1.0090   27.8750   -3.4630 C.ar   28  HIS28       0.1986
     10  NE2       -1.2130   28.5100   -4.5960 N.ar   28  HIS28      -0.2212
     11  N          2.1370   25.6830   -4.8440 N.am   29  ASP29      -0.1974
     12  CA         1.6800   24.6390   -5.8050 C.3    29  ASP29       0.1709
     13  C          2.7700   24.3030   -6.8430 C.2    29  ASP29       0.2293
     14  O          2.5500   24.3780   -8.0830 O.2    29  ASP29      -0.2864
     15  CB         0.4100   25.1070   -6.5510 C.3    29  ASP29       0.1436
     16  CG        -0.8790   24.8450   -5.7580 C.2    29  ASP29       0.3671
     17  OD1       -0.9710   23.8000   -5.0540 O.co2  29  ASP29      -0.2456
     18  OD2       -1.7690   25.7330   -5.8090 O.co2  29  ASP29      -0.2456
     19  N          1.3700   19.2940   -3.1510 N.3    65  ARG65      -0.1245
     20  CA         0.0260   18.9180   -2.7450 C.3    65  ARG65       0.1563
     21  C         -0.3000   17.6620   -3.4410 C.2    65  ARG65       0.2260
     22  O         -0.0240   17.5110   -4.6230 O.2    65  ARG65      -0.2867
     23  CB        -0.9930   19.9210   -3.1890 C.3    65  ARG65       0.0307
     24  CG        -0.6140   21.2980   -2.9040 C.3    65  ARG65       0.0489
     25  CD        -0.6870   21.5270   -1.4780 C.3    65  ARG65       0.2205
     26  NE        -0.4500   22.9250   -1.1980 N.pl3  65  ARG65      -0.0865
     27  CZ        -1.3710   23.8470   -1.3350 C.cat  65  ARG65       0.5346
     28  NH1       -2.5830   23.4820   -1.7400 N.pl3  65  ARG65       0.1354
     29  NH2       -1.0930   25.1050   -1.0280 N.pl3  65  ARG65       0.1354
     30  N         -3.5320   19.8230   -7.9860 N.3    78  HIS78      -0.1241
     31  CA        -4.0530   21.1200   -7.5420 C.3    78  HIS78       0.1621
     32  C         -5.5420   20.8840   -7.2560 C.2    78  HIS78       0.2264
     33  O         -6.4000   20.9460   -8.1550 O.2    78  HIS78      -0.2867
     34  CB        -3.8100   22.2310   -8.5860 C.3    78  HIS78       0.0745
     35  CG        -4.3590   23.5750   -8.1750 C.ar   78  HIS78       0.0817
     36  ND1       -5.7090   23.8740   -8.1820 N.ar   78  HIS78      -0.2268
     37  CD2       -3.7280   24.7250   -7.8370 C.ar   78  HIS78       0.1154
     38  CE1       -5.8950   25.1310   -7.8200 C.ar   78  HIS78       0.1986
     39  NE2       -4.7020   25.6770   -7.6170 N.ar   78  HIS78      -0.2212
     40  N          1.0990   18.0860    1.6520 N.3   111  LYS111     -0.1245
     41  CA        -0.2960   18.3070    2.0770 C.3   111  LYS111      0.1561
     42  C         -1.2030   17.4160    1.2080 C.2   111  LYS111      0.2260
     43  O         -0.9360   17.1950    0.0010 O.2   111  LYS111     -0.2867
     44  CB        -0.6960   19.7890    1.8410 C.3   111  LYS111      0.0271
     45  CG        -2.1310   20.1980    2.3350 C.3   111  LYS111      0.0035
     46  CD        -2.5810   21.5790    1.7490 C.3   111  LYS111      0.0206
     47  CE        -4.1250   21.6240    1.5080 C.3   111  LYS111      0.1093
     48  NZ        -4.7110   21.9840    2.7430 N.3   111  LYS111     -0.1314
     49  N         -4.3830   17.2470   -0.8740 N.3   113  ASP113     -0.1239
     50  CA        -5.1750   18.2280   -1.5500 C.3   113  ASP113      0.1674
     51  C         -6.5010   17.6630   -2.0340 C.2   113  ASP113      0.2266
     52  O         -7.3960   18.4440   -2.4180 O.2   113  ASP113     -0.2867
     53  CB        -4.3740   18.8340   -2.7250 C.3   113  ASP113      0.1410
     54  CG        -4.2900   20.3520   -2.6570 C.2   113  ASP113      0.3668
     55  OD1       -4.2400   20.8680   -1.5370 O.co2 113  ASP113     -0.2456
     56  OD2       -4.2830   21.0400   -3.7090 O.co2 113  ASP113     -0.2456
     57  N          2.2440   19.2180    6.4450 N.3   164  ARG164     -0.1245
     58  CA         0.8540   19.6900    6.4420 C.3   164  ARG164      0.1563
     59  C         -0.1370   18.5040    6.2380 C.2   164  ARG164      0.2260
     60  O         -1.2530   18.6720    5.7400 O.2   164  ARG164     -0.2867
     61  CB         0.6370   20.7620    5.3350 C.3   164  ARG164      0.0307
     62  CG         1.5420   21.9710    5.4980 C.3   164  ARG164      0.0489
     63  CD         1.1470   23.1360    4.5590 C.3   164  ARG164      0.2205
     64  NE        -0.3090   23.4600    4.6190 N.pl3 164  ARG164     -0.0865
     65  CZ        -0.9120   24.3120    3.7730 C.cat 164  ARG164      0.5346
     66  NH1       -0.1950   24.9010    2.8300 N.pl3 164  ARG164      0.1354
     67  NH2       -2.2200   24.5710    3.8450 N.pl3 164  ARG164      0.1354
     68  N         -3.8140   24.3420   10.9310 N.3   183  TRP183     -0.1241
     69  CA        -3.6390   25.3460    9.8670 C.3   183  TRP183      0.1605
     70  C         -4.9320   26.1340    9.6960 C.2   183  TRP183      0.2264
     71  O         -5.9410   25.5290    9.2570 O.2   183  TRP183     -0.2867
     72  CB        -3.3780   24.6420    8.5220 C.3   183  TRP183      0.0550
     73  CG        -2.7540   25.5960    7.5030 C.ar  183  TRP183      0.0003
     74  CD1       -3.4060   26.4750    6.6790 C.ar  183  TRP183      0.0946
     75  CD2       -1.3630   25.7800    7.2500 C.ar  183  TRP183      0.0152
     76  NE1       -2.5130   27.1850    5.9060 N.ar  183  TRP183     -0.2442
     77  CE2       -1.2470   26.7700    6.2190 C.ar  183  TRP183      0.0810
     78  CE3       -0.1770   25.1720    7.7690 C.ar  183  TRP183      0.0012
     79  CZ2       -0.0100   27.1840    5.7070 C.ar  183  TRP183      0.0191
     80  CZ3        1.0530   25.5810    7.2600 C.ar  183  TRP183      0.0001
     81  CH2        1.1210   26.6390    6.2550 C.ar  183  TRP183      0.0015
     82  N         -7.7980   28.5770    8.1010 N.3   185  ASP185     -0.1239
     83  CA        -8.2040   28.7730    6.7020 C.3   185  ASP185      0.1674
     84  C         -8.2690   30.2450    6.3250 C.2   185  ASP185      0.2266
     85  O         -8.9860   30.9900    6.9740 O.2   185  ASP185     -0.2867
     86  CB        -9.5890   28.1750    6.4990 C.3   185  ASP185      0.1410
     87  CG       -10.0350   28.1950    5.0350 C.2   185  ASP185      0.3668
     88  OD1       -9.2730   27.7340    4.1970 O.co2 185  ASP185     -0.2456
     89  OD2      -11.1590   28.6310    4.7300 O.co2 185  ASP185     -0.2456
     90  N         -1.5540   33.1810    5.2230 N.3   204  ASP204     -0.1239
     91  CA        -2.0460   32.3620    4.1080 C.3   204  ASP204      0.1674
     92  C         -3.4610   32.7990    3.7430 C.2   204  ASP204      0.2266
     93  O         -4.4090   31.9590    3.6900 O.2   204  ASP204     -0.2867
     94  CB        -1.9750   30.8550    4.4410 C.3   204  ASP204      0.1410
     95  CG        -2.3840   29.9690    3.2770 C.2   204  ASP204      0.3668
     96  OD1       -2.1700   30.3770    2.1000 O.co2 204  ASP204     -0.2456
     97  OD2       -2.9530   28.8740    3.5730 O.co2 204  ASP204     -0.2456
     98  N         -5.4510   33.4060    1.2420 N.3   206  TYR206     -0.1241
     99  CA        -5.3970   33.0370   -0.1470 C.3   206  TYR206      0.1605
    100  C         -6.6270   33.5500   -0.9470 C.2   206  TYR206      0.2264
    101  O         -6.6720   33.3720   -2.1690 O.2   206  TYR206     -0.2867
    102  CB        -5.1530   31.4940   -0.3080 C.3   206  TYR206      0.0534
    103  CG        -6.3230   30.6000    0.1900 C.ar  206  TYR206     -0.0201
    104  CD1       -7.4270   30.3520   -0.6230 C.ar  206  TYR206     -0.0009
    105  CD2       -6.3220   30.0510    1.4680 C.ar  206  TYR206     -0.0009
    106  CE1       -8.5290   29.5810   -0.1850 C.ar  206  TYR206      0.0417
    107  CE2       -7.4180   29.2670    1.9320 C.ar  206  TYR206      0.0417
    108  CZ        -8.5020   29.0530    1.0860 C.ar  206  TYR206      0.1957
    109  OH        -9.5830   28.3320    1.5500 O.3   206  TYR206     -0.2866
    110  N          2.7540   33.6050    2.3430 N.3   237  PHE237     -0.1241
    111  CA         2.3750   33.2150    0.9610 C.3   237  PHE237      0.1605
    112  C          1.9370   34.4580    0.1610 C.2   237  PHE237      0.2264
    113  O          0.9970   35.1690    0.5530 O.2   237  PHE237     -0.2867
    114  CB         1.2030   32.2330    0.9480 C.3   237  PHE237      0.0534
    115  CG         1.5440   30.8180    1.3650 C.ar  237  PHE237     -0.0203
    116  CD1        1.6710   29.8000    0.3950 C.ar  237  PHE237     -0.0042
    117  CD2        1.6490   30.4760    2.7300 C.ar  237  PHE237     -0.0042
    118  CE1        1.9150   28.5030    0.8010 C.ar  237  PHE237     -0.0003
    119  CE2        1.9280   29.1590    3.1400 C.ar  237  PHE237     -0.0003
    120  CZ         2.0670   28.1950    2.1750 C.ar  237  PHE237     -0.0000
    121  N          0.8770   34.1900   -2.8840 N.3   239  SER239     -0.1217
    122  CA        -0.1020   33.6250   -3.8000 C.3   239  SER239      0.1889
    123  C         -1.5290   33.8380   -3.3180 C.2   239  SER239      0.2288
    124  O         -1.7420   33.9650   -2.1360 O.2   239  SER239     -0.2866
    125  CB         0.1690   32.1220   -3.9560 C.3   239  SER239      0.2089
    126  OG         0.4450   31.5330   -2.6830 O.3   239  SER239     -0.2183
    127  N         -5.8030   32.7060   -4.7870 N.3   241  ALA241     -0.1245
    128  CA        -6.6590   31.9750   -5.7470 C.3   241  ALA241      0.1562
    129  C         -7.1270   32.8890   -6.8710 C.2   241  ALA241      0.2260
    130  O         -7.4630   34.0530   -6.6490 O.2   241  ALA241     -0.2867
    131  CB        -7.8290   31.3300   -5.0360 C.3   241  ALA241      0.0290
@<TRIPOS>BOND
     1    34    35    1
     2    34    31    1
     3    36    35   ar
     4    36    38   ar
     5    35    37   ar
     6    33    32    2
     7    14    13    2
     8    30    31    1
     9    37    39   ar
    10    38    39   ar
    11    31    32    1
    12   129   130    2
    13   129   128    1
    14    13    12    1
    15    15    12    1
    16    15    16    1
    17     4     3    2
    18    18    16   ar
    19    12    11    1
    20    16    17   ar
    21   128   131    1
    22   128   127    1
    23     3    11   am
    24     3     2    1
    25     8    10   ar
    26     8     6   ar
    27    22    21    2
    28     1     2    1
    29    10     9   ar
    30     2     5    1
    31     6     5    1
    32     6     7   ar
    33   125   122    1
    34   125   126    1
    35   122   123    1
    36   122   121    1
    37    56    54   ar
    38     9     7   ar
    39    21    20    1
    40   123   124    2
    41    23    24    1
    42    23    20    1
    43    19    20    1
    44    24    25    1
    45    53    54    1
    46    53    50    1
    47    54    55   ar
    48    52    51    2
    49   101   100    2
    50    51    50    1
    51    28    27    1
    52    50    49    1
    53    25    26    1
    54    27    26    2
    55    27    29    1
    56   100    99    1
    57   104   106   ar
    58   104   103   ar
    59   102    99    1
    60   102   103    1
    61   106   108   ar
    62    99    98    1
    63    43    42    2
    64   112   113    2
    65   112   111    1
    66   103   105   ar
    67   116   118   ar
    68   116   115   ar
    69   118   120   ar
    70   114   111    1
    71   114   115    1
    72   111   110    1
    73   108   109    1
    74   108   107   ar
    75    42    41    1
    76   115   117   ar
    77   105   107   ar
    78    47    46    1
    79    47    48    1
    80    40    41    1
    81    46    45    1
    82    44    41    1
    83    44    45    1
    84    96    95   ar
    85   120   119   ar
    86   117   119   ar
    87    66    65    1
    88    95    97   ar
    89    95    94    1
    90    93    92    2
    91    92    91    1
    92    65    67    1
    93    65    64    2
    94    91    94    1
    95    91    90    1
    96    88    87   ar
    97    63    64    1
    98    63    62    1
    99    89    87   ar
   100    87    86    1
   101    61    62    1
   102    61    58    1
   103    79    77   ar
   104    79    81   ar
   105    60    59    2
   106    76    77   ar
   107    76    74   ar
   108    77    75   ar
   109    59    58    1
   110    81    80   ar
   111    84    83    1
   112    84    85    2
   113    58    57    1
   114    86    83    1
   115    74    73   ar
   116    83    82    1
   117    75    73   ar
   118    75    78   ar
   119    80    78   ar
   120    73    72    1
   121    72    69    1
   122    71    70    2
   123    70    69    1
   124    69    68    1
