@<TRIPOS>MOLECULE
tmp/3v1kA00.pdb
 95 91 0 0 0
SMALL
GASTEIGER

@<TRIPOS>ATOM
      1  N         66.1850  -23.4310    2.8550 N.3    40  GLY40      -0.1210
      2  CA        67.4810  -22.7270    2.9520 C.3    40  GLY40       0.1956
      3  C         68.6250  -23.2440    2.1040 C.2    40  GLY40       0.2612
      4  O         68.5310  -24.2670    1.4680 O.2    40  GLY40      -0.2717
      5  N         69.7140  -22.4960    2.1150 N.am   41  GLY41      -0.1942
      6  CA        70.8050  -22.6540    1.1990 C.3    41  GLY41       0.2014
      7  C         72.0230  -23.3250    1.7440 C.2    41  GLY41       0.2639
      8  O         73.0450  -23.3840    1.0490 O.2    41  GLY41      -0.2714
      9  N         71.9450  -23.8450    2.9750 N.am   42  GLY42      -0.1954
     10  CA        73.0750  -24.5630    3.5570 C.3    42  GLY42       0.1869
     11  C         73.3220  -25.9430    2.9650 C.2    42  GLY42       0.2309
     12  O         72.4350  -26.5430    2.3910 O.2    42  GLY42      -0.2863
     13  N         70.6930  -29.0470    2.6240 N.3    45  ALA45      -0.1245
     14  CA        69.3190  -28.5990    2.8060 C.3    45  ALA45       0.1562
     15  C         68.4440  -29.2590    1.7740 C.2    45  ALA45       0.2260
     16  O         68.9060  -29.6560    0.6700 O.2    45  ALA45      -0.2867
     17  CB        69.2070  -27.0790    2.6560 C.3    45  ALA45       0.0290
     18  N         63.9190  -29.3650    5.9650 N.3    50  ASN50      -0.1240
     19  CA        63.4860  -28.0730    6.5020 C.3    50  ASN50       0.1653
     20  C         62.0470  -28.0530    7.0380 C.2    50  ASN50       0.2266
     21  O         61.7230  -27.3080    7.9590 O.2    50  ASN50      -0.2867
     22  CB        63.5450  -26.9830    5.4340 C.3    50  ASN50       0.1155
     23  CG        64.8190  -26.1620    5.4600 C.2    50  ASN50       0.2627
     24  OD1       64.7790  -24.9560    5.1910 O.2    50  ASN50      -0.2716
     25  ND2       65.9590  -26.8180    5.6470 N.am   50  ASN50      -0.0877
     26  N         62.2240  -19.8090    3.4830 N.3   110  ASN110     -0.1225
     27  CA        63.1740  -19.7180    4.5660 C.3   110  ASN110      0.1785
     28  C         64.5450  -19.3630    3.9930 C.2   110  ASN110      0.2597
     29  O         65.0280  -20.0990    3.1450 O.2   110  ASN110     -0.2718
     30  CB        63.2350  -21.1000    5.2040 C.3   110  ASN110      0.1169
     31  CG        64.2440  -21.1900    6.3080 C.2   110  ASN110      0.2627
     32  OD1       64.3160  -20.3170    7.1650 O.2   110  ASN110     -0.2716
     33  ND2       65.0040  -22.2700    6.3210 N.am  110  ASN110     -0.0877
     34  N         65.1670  -18.2540    4.4200 N.am  111  SER111     -0.1952
     35  CA        66.5560  -17.9390    4.0480 C.3   111  SER111      0.1924
     36  C         66.7260  -17.8230    2.4950 C.2   111  SER111      0.2314
     37  O         66.1620  -16.9230    1.8930 O.2   111  SER111     -0.2863
     38  CB        67.5050  -18.9630    4.6990 C.3   111  SER111      0.2116
     39  OG        68.6950  -19.2020    3.9370 O.3   111  SER111     -0.2180
     40  N         73.0200  -22.0890   13.9250 N.3   174  PHE174     -0.1241
     41  CA        71.6600  -21.8900   13.3720 C.3   174  PHE174      0.1605
     42  C         70.5160  -21.8820   14.3780 C.2   174  PHE174      0.2264
     43  O         69.4970  -21.2120   14.1660 O.2   174  PHE174     -0.2867
     44  CB        71.3620  -23.0030   12.3610 C.3   174  PHE174      0.0534
     45  CG        72.0420  -22.8340   11.0360 C.ar  174  PHE174     -0.0203
     46  CD1       73.1410  -21.9910   10.8760 C.ar  174  PHE174     -0.0042
     47  CD2       71.5910  -23.5520    9.9430 C.ar  174  PHE174     -0.0042
     48  CE1       73.7500  -21.8390    9.6410 C.ar  174  PHE174     -0.0003
     49  CE2       72.2070  -23.4220    8.7100 C.ar  174  PHE174     -0.0003
     50  CZ        73.2810  -22.5650    8.5600 C.ar  174  PHE174     -0.0000
     51  N         71.1760  -34.3570    7.2080 N.3   189  ARG189     -0.1245
     52  CA        71.9340  -33.3380    6.4780 C.3   189  ARG189      0.1563
     53  C         73.2440  -33.9070    6.0020 C.2   189  ARG189      0.2260
     54  O         73.6920  -33.6050    4.9050 O.2   189  ARG189     -0.2867
     55  CB        72.1970  -32.0930    7.3340 C.3   189  ARG189      0.0307
     56  CG        70.9550  -31.3080    7.7240 C.3   189  ARG189      0.0489
     57  CD        70.3530  -30.5200    6.5670 C.3   189  ARG189      0.2205
     58  NE        71.2090  -29.4210    6.0990 N.pl3 189  ARG189     -0.0865
     59  CZ        70.8800  -28.1270    6.0890 C.cat 189  ARG189      0.5346
     60  NH1       69.7180  -27.7120    6.5190 N.pl3 189  ARG189      0.1354
     61  NH2       71.7290  -27.2380    5.6100 N.pl3 189  ARG189      0.1354
     62  N         72.3940  -15.5810   11.1510 N.3   238  PHE238     -0.1241
     63  CA        72.5940  -15.8590    9.7610 C.3   238  PHE238      0.1605
     64  C         72.1360  -14.6600    8.9310 C.2   238  PHE238      0.2264
     65  O         72.8570  -14.2010    8.0630 O.2   238  PHE238     -0.2867
     66  CB        71.7600  -17.0970    9.4260 C.3   238  PHE238      0.0534
     67  CG        72.0130  -17.6720    8.0680 C.ar  238  PHE238     -0.0203
     68  CD1       73.0390  -18.5630    7.8630 C.ar  238  PHE238     -0.0042
     69  CD2       71.1700  -17.3630    7.0040 C.ar  238  PHE238     -0.0042
     70  CE1       73.2490  -19.1170    6.6080 C.ar  238  PHE238     -0.0003
     71  CE2       71.3750  -17.9060    5.7420 C.ar  238  PHE238     -0.0003
     72  CZ        72.4230  -18.7840    5.5460 C.ar  238  PHE238     -0.0000
     73  N         67.5460  -19.3290   13.1620 N.3   264  GLN264     -0.1231
     74  CA        67.1400  -19.1030   11.7820 C.3   264  GLN264      0.1698
     75  C         66.1340  -20.1120   11.2160 C.2   264  GLN264      0.2592
     76  O         65.7470  -20.0110   10.0360 O.2   264  GLN264     -0.2718
     77  CB        68.3710  -19.0350   10.9070 C.3   264  GLN264      0.0381
     78  CG        69.0460  -20.3460   10.6440 C.3   264  GLN264      0.0905
     79  CD        70.4680  -20.1570   10.1440 C.2   264  GLN264      0.2608
     80  OE1       71.3570  -19.6740   10.8870 O.2   264  GLN264     -0.2717
     81  NE2       70.7110  -20.5630    8.8930 N.am  264  GLN264     -0.0878
     82  N         65.7350  -21.0820   12.0400 N.am  265  TRP265     -0.1976
     83  CA        64.6870  -22.0170   11.6760 C.3   265  TRP265      0.1640
     84  C         63.4600  -21.9180   12.5410 C.2   265  TRP265      0.2290
     85  O         63.1410  -22.8720   13.2390 O.2   265  TRP265     -0.2864
     86  CB        65.1780  -23.4290   11.8420 C.3   265  TRP265      0.0576
     87  CG        66.1920  -23.9550   10.8920 C.ar  265  TRP265      0.0006
     88  CD1       66.6690  -23.3860    9.7290 C.ar  265  TRP265      0.0946
     89  CD2       66.8710  -25.2540   11.0030 C.ar  265  TRP265      0.0152
     90  NE1       67.5980  -24.2030    9.1390 N.ar  265  TRP265     -0.2442
     91  CE2       67.7510  -25.3540    9.8520 C.ar  265  TRP265      0.0810
     92  CE3       66.8200  -26.3070   11.9160 C.ar  265  TRP265      0.0012
     93  CZ2       68.5500  -26.4670    9.6340 C.ar  265  TRP265      0.0191
     94  CZ3       67.6320  -27.4190   11.7050 C.ar  265  TRP265      0.0001
     95  CH2       68.4850  -27.4950   10.5890 C.ar  265  TRP265      0.0015
@<TRIPOS>BOND
     1    16    15    2
     2     8     7    2
     3     6     7    1
     4     6     5    1
     5     4     3    2
     6     7     9   am
     7    15    14    1
     8    37    36    2
     9     3     5   am
    10     3     2    1
    11    12    11    2
    12    36    35    1
    13    13    14    1
    14    17    14    1
    15     1     2    1
    16    11    10    1
    17     9    10    1
    18    29    28    2
    19    26    27    1
    20    39    38    1
    21    28    34   am
    22    28    27    1
    23    35    34    1
    24    35    38    1
    25    27    30    1
    26    54    53    2
    27    24    23    2
    28    30    31    1
    29    22    23    1
    30    22    19    1
    31    23    25   am
    32    72    71   ar
    33    72    70   ar
    34    61    59    1
    35    71    69   ar
    36    18    19    1
    37    53    52    1
    38    59    58    2
    39    59    60    1
    40    58    57    1
    41    31    33   am
    42    31    32    2
    43    52    51    1
    44    52    55    1
    45    19    20    1
    46    57    56    1
    47    70    68   ar
    48    69    67   ar
    49    20    21    2
    50    55    56    1
    51    68    67   ar
    52    65    64    2
    53    67    66    1
    54    50    49   ar
    55    50    48   ar
    56    49    47   ar
    57    81    79   am
    58    64    63    1
    59    90    88   ar
    60    90    91   ar
    61    66    63    1
    62    93    91   ar
    63    93    95   ar
    64    48    46   ar
    65    88    87   ar
    66    63    62    1
    67    91    89   ar
    68    47    45   ar
    69    76    75    2
    70    79    78    1
    71    79    80    2
    72    95    94   ar
    73    78    77    1
    74    46    45   ar
    75    87    89   ar
    76    87    86    1
    77    77    74    1
    78    89    92   ar
    79    45    44    1
    80    75    74    1
    81    75    82   am
    82    83    86    1
    83    83    82    1
    84    83    84    1
    85    94    92   ar
    86    74    73    1
    87    44    41    1
    88    84    85    2
    89    41    40    1
    90    41    42    1
    91    43    42    2
