@<TRIPOS>MOLECULE
tmp/3v1nA02.pdb
 139 133 0 0 0
SMALL
GASTEIGER

@<TRIPOS>ATOM
      1  N         -3.4720   22.9200  -16.3150 N.3    37  HIS37      -0.1226
      2  CA        -3.7120   21.6590  -17.0170 C.3    37  HIS37       0.1752
      3  C         -2.5480   20.6680  -17.0020 C.2    37  HIS37       0.2596
      4  O         -1.4470   20.9760  -16.4870 O.2    37  HIS37      -0.2718
      5  CB        -4.0970   21.9910  -18.4740 C.3    37  HIS37       0.0759
      6  CG        -3.0030   22.6800  -19.2290 C.ar   37  HIS37       0.0818
      7  ND1       -1.8730   22.0350  -19.6400 N.ar   37  HIS37      -0.2268
      8  CD2       -2.8350   23.9990  -19.5480 C.ar   37  HIS37       0.1154
      9  CE1       -1.0620   22.9160  -20.2180 C.ar   37  HIS37       0.1986
     10  NE2       -1.6360   24.1130  -20.1800 N.ar   37  HIS37      -0.2212
     11  N         -2.8000   19.4850  -17.5410 N.am   38  GLY38      -0.1957
     12  CA        -1.8500   18.3860  -17.6210 C.3    38  GLY38       0.1869
     13  C         -0.8350   18.5320  -18.7300 C.2    38  GLY38       0.2309
     14  O         -0.8360   19.5140  -19.4870 O.2    38  GLY38      -0.2863
     15  N         -0.0420   16.2030  -21.4100 N.3    40  GLY40      -0.1225
     16  CA        -0.1290   15.4170  -22.6290 C.3    40  GLY40       0.1811
     17  C         -0.1940   16.2940  -23.8750 C.2    40  GLY40       0.2280
     18  O         -0.5820   17.4790  -23.7850 O.2    40  GLY40      -0.2866
     19  N         -2.7630   19.3390  -24.6780 N.3    43  ALA43      -0.1231
     20  CA        -3.4130   19.8500  -23.4890 C.3    43  ALA43       0.1694
     21  C         -3.5320   21.3660  -23.4910 C.2    43  ALA43       0.2592
     22  O         -2.7240   22.1170  -24.0550 O.2    43  ALA43      -0.2718
     23  CB        -2.6940   19.3810  -22.2310 C.3    43  ALA43       0.0304
     24  N         -4.5710   21.8420  -22.8170 N.am   44  GLY44      -0.1957
     25  CA        -4.7320   23.2570  -22.6170 C.3    44  GLY44       0.1869
     26  C         -5.7870   23.5300  -21.5700 C.2    44  GLY44       0.2309
     27  O         -6.4870   22.6210  -21.1510 O.2    44  GLY44      -0.2863
     28  N         -9.8900   22.9820  -22.6420 N.3    47  SER47      -0.1202
     29  CA       -10.3020   21.6150  -22.8160 C.3    47  SER47       0.2020
     30  C        -10.2340   20.8450  -21.5010 C.2    47  SER47       0.2618
     31  O        -11.0450   19.9470  -21.2500 O.2    47  SER47      -0.2717
     32  CB        -9.4690   20.9200  -23.8800 C.3    47  SER47       0.2103
     33  OG        -8.0960   20.9950  -23.6060 O.3    47  SER47      -0.2182
     34  N         -9.2580   21.1730  -20.6650 N.am   48  ASN48      -0.1974
     35  CA        -9.1060   20.4320  -19.4080 C.3    48  ASN48       0.1688
     36  C        -10.2230   20.7500  -18.4280 C.2    48  ASN48       0.2292
     37  O        -10.6110   19.8790  -17.6650 O.2    48  ASN48      -0.2864
     38  CB        -7.7430   20.6590  -18.7260 C.3    48  ASN48       0.1181
     39  CG        -7.3790   19.5160  -17.7710 C.2    48  ASN48       0.2629
     40  OD1       -7.4910   18.3460  -18.1250 O.2    48  ASN48      -0.2716
     41  ND2       -6.9750   19.8470  -16.5540 N.am   48  ASN48      -0.0877
     42  N         -3.8300   19.7850  -12.2460 N.3   108  ASN108     -0.1240
     43  CA        -3.9680   18.4110  -12.6070 C.3   108  ASN108      0.1653
     44  C         -2.6610   17.8910  -13.2440 C.2   108  ASN108      0.2266
     45  O         -2.1750   18.4860  -14.1800 O.2   108  ASN108     -0.2867
     46  CB        -5.1560   18.3960  -13.5660 C.3   108  ASN108      0.1155
     47  CG        -5.4840   17.0490  -14.1050 C.2   108  ASN108      0.2627
     48  OD1       -6.0640   16.9770  -15.1940 O.2   108  ASN108     -0.2716
     49  ND2       -5.2260   15.9870  -13.3510 N.am  108  ASN108     -0.0877
     50  N         -6.3000    8.7310  -25.0630 N.3   169  LEU169     -0.1245
     51  CA        -7.5580    9.1550  -24.4270 C.3   169  LEU169      0.1561
     52  C         -8.2950    7.9580  -23.8090 C.2   169  LEU169      0.2260
     53  O         -8.8780    8.1110  -22.7250 O.2   169  LEU169     -0.2867
     54  CB        -8.4610    9.9210  -25.4070 C.3   169  LEU169      0.0270
     55  CG        -7.9150   11.2680  -25.9060 C.3   169  LEU169      0.0019
     56  CD1       -8.9040   11.8620  -26.9110 C.3   169  LEU169      0.0001
     57  CD2       -7.5720   12.2470  -24.7860 C.3   169  LEU169      0.0001
     58  N         -6.6520    7.4850  -20.5070 N.3   172  PHE172     -0.1227
     59  CA        -6.9560    8.6140  -19.6010 C.3   172  PHE172      0.1736
     60  C         -8.3100    8.4620  -18.9080 C.2   172  PHE172      0.2595
     61  O         -8.4920    8.8870  -17.7710 O.2   172  PHE172     -0.2718
     62  CB        -7.0000    9.9610  -20.3870 C.3   172  PHE172      0.0547
     63  CG        -5.7320   10.7660  -20.3450 C.ar  172  PHE172     -0.0202
     64  CD1       -5.0410   11.0770  -21.5240 C.ar  172  PHE172     -0.0042
     65  CD2       -5.2460   11.2490  -19.1640 C.ar  172  PHE172     -0.0042
     66  CE1       -3.8880   11.8260  -21.4830 C.ar  172  PHE172     -0.0003
     67  CE2       -4.1080   12.0230  -19.1180 C.ar  172  PHE172     -0.0003
     68  CZ        -3.4160   12.2910  -20.2780 C.ar  172  PHE172     -0.0000
     69  N         -9.2690    7.8900  -19.6160 N.am  173  LEU173     -0.1980
     70  CA       -10.6650    7.8850  -19.1800 C.3   173  LEU173      0.1596
     71  C        -11.0670    6.4970  -18.7530 C.2   173  LEU173      0.2287
     72  O        -10.8350    5.5200  -19.4710 O.2   173  LEU173     -0.2864
     73  CB       -11.5690    8.3350  -20.3460 C.3   173  LEU173      0.0297
     74  CG       -11.5180    9.8290  -20.6050 C.3   173  LEU173      0.0022
     75  CD1      -11.8990   10.1680  -22.0370 C.3   173  LEU173      0.0001
     76  CD2      -12.3800   10.5990  -19.6030 C.3   173  LEU173      0.0001
     77  N        -16.9910    8.7710  -23.0480 N.3   178  LEU178     -0.1231
     78  CA       -16.8310   10.2020  -23.0260 C.3   178  LEU178      0.1693
     79  C        -16.0350   10.6860  -24.2300 C.2   178  LEU178      0.2591
     80  O        -16.0410   11.8790  -24.5180 O.2   178  LEU178     -0.2718
     81  CB       -16.1190   10.6690  -21.7460 C.3   178  LEU178      0.0284
     82  CG       -16.9740   10.8540  -20.4890 C.3   178  LEU178      0.0019
     83  CD1      -17.5060    9.5190  -20.0270 C.3   178  LEU178      0.0001
     84  CD2      -16.1300   11.5250  -19.4100 C.3   178  LEU178      0.0001
     85  N        -15.3790    9.7620  -24.9420 N.am  179  ILE179     -0.1980
     86  CA       -14.5530   10.1150  -26.1000 C.3   179  ILE179      0.1595
     87  C        -15.4040   10.2310  -27.3640 C.2   179  ILE179      0.2287
     88  O        -15.4910    9.2920  -28.1550 O.2   179  ILE179     -0.2864
     89  CB       -13.4240    9.0980  -26.3390 C.3   179  ILE179      0.0276
     90  CG1      -12.6050    8.8750  -25.0650 C.3   179  ILE179      0.0022
     91  CG2      -12.4890    9.6070  -27.4370 C.3   179  ILE179      0.0022
     92  CD1      -11.6570    7.6970  -25.1370 C.3   179  ILE179      0.0001
     93  N        -14.4710   15.7730  -29.1360 N.3   183  LEU183     -0.1245
     94  CA       -13.3470   15.9400  -28.1980 C.3   183  LEU183      0.1561
     95  C        -12.0410   15.3670  -28.7490 C.2   183  LEU183      0.2260
     96  O        -10.9740   15.9640  -28.5840 O.2   183  LEU183     -0.2867
     97  CB       -13.7290   15.3180  -26.8600 C.3   183  LEU183      0.0270
     98  CG       -14.8790   16.1380  -26.2280 C.3   183  LEU183      0.0019
     99  CD1      -15.4590   15.4670  -24.9840 C.3   183  LEU183      0.0001
    100  CD2      -14.4330   17.5700  -25.9130 C.3   183  LEU183      0.0001
    101  N         -8.8070   17.7360  -29.7510 N.3   187  ARG187     -0.1245
    102  CA        -7.4630   17.5880  -29.2150 C.3   187  ARG187      0.1563
    103  C         -6.4550   17.3880  -30.3360 C.2   187  ARG187      0.2260
    104  O         -5.3080   17.9040  -30.2850 O.2   187  ARG187     -0.2867
    105  CB        -7.3770   16.4440  -28.2310 C.3   187  ARG187      0.0307
    106  CG        -6.1010   16.5270  -27.4540 C.3   187  ARG187      0.0489
    107  CD        -6.2790   16.0350  -26.0410 C.3   187  ARG187      0.2205
    108  NE        -4.9840   16.0130  -25.3860 N.pl3 187  ARG187     -0.0865
    109  CZ        -4.7880   15.9570  -24.0750 C.cat 187  ARG187      0.5346
    110  NH1       -5.8040   15.9850  -23.2210 N.pl3 187  ARG187      0.1354
    111  NH2       -3.5500   15.9260  -23.6210 N.pl3 187  ARG187      0.1354
    112  N         -8.9060   12.3630  -15.0190 N.3   263  TRP263     -0.1241
    113  CA        -9.7210   13.5870  -15.0700 C.3   263  TRP263      0.1605
    114  C        -11.0310   13.4790  -14.2990 C.2   263  TRP263      0.2264
    115  O        -12.1110   13.4200  -14.9040 O.2   263  TRP263     -0.2867
    116  CB       -10.0530   13.9160  -16.5080 C.3   263  TRP263      0.0550
    117  CG        -8.8510   14.1450  -17.3410 C.ar  263  TRP263      0.0003
    118  CD1       -7.6550   14.6930  -16.9490 C.ar  263  TRP263      0.0946
    119  CD2       -8.6860   13.8500  -18.7510 C.ar  263  TRP263      0.0152
    120  NE1       -6.7800   14.7730  -17.9930 N.ar  263  TRP263     -0.2442
    121  CE2       -7.3230   14.2780  -19.0970 C.ar  263  TRP263      0.0810
    122  CE3       -9.4770   13.2750  -19.7160 C.ar  263  TRP263      0.0012
    123  CZ2       -6.8130   14.1370  -20.3500 C.ar  263  TRP263      0.0191
    124  CZ3       -8.9500   13.1490  -21.0080 C.ar  263  TRP263      0.0001
    125  CH2       -7.6420   13.5670  -21.3050 C.ar  263  TRP263      0.0015
    126  N        -13.6720   15.9410  -15.3530 N.3   266  TRP266     -0.1241
    127  CA       -14.5080   15.4770  -16.4720 C.3   266  TRP266      0.1605
    128  C        -15.4310   14.3330  -16.1470 C.2   266  TRP266      0.2264
    129  O        -16.6330   14.3990  -16.4430 O.2   266  TRP266     -0.2867
    130  CB       -13.6090   15.0340  -17.6200 C.3   266  TRP266      0.0550
    131  CG       -13.3010   16.1180  -18.5730 C.ar  266  TRP266      0.0003
    132  CD1      -12.2020   16.9810  -18.5650 C.ar  266  TRP266      0.0946
    133  CD2      -14.1000   16.5220  -19.7230 C.ar  266  TRP266      0.0152
    134  NE1      -12.2760   17.8740  -19.6060 N.ar  266  TRP266     -0.2442
    135  CE2      -13.3930   17.6430  -20.3410 C.ar  266  TRP266      0.0810
    136  CE3      -15.2900   16.0650  -20.2980 C.ar  266  TRP266      0.0012
    137  CZ2      -13.8800   18.2790  -21.4700 C.ar  266  TRP266      0.0191
    138  CZ3      -15.7750   16.7230  -21.4220 C.ar  266  TRP266      0.0001
    139  CH2      -15.0860   17.8020  -21.9930 C.ar  266  TRP266      0.0015
@<TRIPOS>BOND
     1   103   104    2
     2   103   102    1
     3   101   102    1
     4   102   105    1
     5    93    94    1
     6    95    96    2
     7    95    94    1
     8   105   106    1
     9    94    97    1
    10    88    87    2
    11   106   107    1
    12    91    89    1
    13    87    86    1
    14    56    55    1
    15    97    98    1
    16    89    86    1
    17    89    90    1
    18    98   100    1
    19    98    99    1
    20    86    85    1
    21   107   108    1
    22    55    54    1
    23    55    57    1
    24    54    51    1
    25   108   109    2
    26    92    90    1
    27    50    51    1
    28    85    79   am
    29    19    20    1
    30    80    79    2
    31    51    52    1
    32    79    78    1
    33   109   111    1
    34   109   110    1
    35    22    21    2
    36    32    33    1
    37    32    29    1
    38    17    18    2
    39    17    16    1
    40    52    53    2
    41    21    20    1
    42    21    24   am
    43    20    23    1
    44    77    78    1
    45    78    81    1
    46    24    25    1
    47    29    28    1
    48    29    30    1
    49    16    15    1
    50    25    26    1
    51    75    74    1
    52   139   137   ar
    53   139   138   ar
    54    81    82    1
    55    26    27    2
    56    64    66   ar
    57    64    63   ar
    58    30    31    2
    59    30    34   am
    60    66    68   ar
    61   137   135   ar
    62   138   136   ar
    63   125   124   ar
    64   125   123   ar
    65   124   122   ar
    66    34    35    1
    67    74    73    1
    68    74    76    1
    69    58    59    1
    70    82    83    1
    71    82    84    1
    72    62    63    1
    73    62    59    1
    74   123   121   ar
    75    73    70    1
    76    63    65   ar
    77   135   133   ar
    78   135   134   ar
    79   136   133   ar
    80    68    67   ar
    81     9    10   ar
    82     9     7   ar
    83    10     8   ar
    84   133   131   ar
    85   122   119   ar
    86     7     6   ar
    87    69    70    1
    88    69    60   am
    89   134   132   ar
    90    59    60    1
    91     8     6   ar
    92    14    13    2
    93    72    71    2
    94    35    38    1
    95    35    36    1
    96     6     5    1
    97    70    71    1
    98    65    67   ar
    99   121   119   ar
   100   121   120   ar
   101    60    61    2
   102   119   117   ar
   103    13    12    1
   104    38    39    1
   105   131   132   ar
   106   131   130    1
   107     5     2    1
   108    36    37    2
   109    40    39    2
   110   120   118   ar
   111    39    41   am
   112    12    11    1
   113   130   127    1
   114    11     3   am
   115   117   118   ar
   116   117   116    1
   117     2     3    1
   118     2     1    1
   119     3     4    2
   120   116   113    1
   121   127   128    1
   122   127   126    1
   123   129   128    2
   124    48    47    2
   125   113   112    1
   126   113   114    1
   127   115   114    2
   128    45    44    2
   129    47    46    1
   130    47    49   am
   131    46    43    1
   132    44    43    1
   133    43    42    1
