@<TRIPOS>MOLECULE
tmp/3v1nA01.pdb
 104 100 0 0 0
SMALL
GASTEIGER

@<TRIPOS>ATOM
      1  N         -0.0110   17.5090  -18.8710 N.3    39  GLY39      -0.1225
      2  CA         1.1500   17.5920  -19.7690 C.3    39  GLY39       0.1811
      3  C          1.1030   16.7870  -21.0550 C.2    39  GLY39       0.2280
      4  O          2.1250   16.7200  -21.7520 O.2    39  GLY39      -0.2866
      5  N         -2.0690   16.8250  -12.6820 N.3   109  SER109     -0.1202
      6  CA        -0.8450   16.1990  -13.1770 C.3   109  SER109      0.2020
      7  C          0.2790   17.2450  -13.2250 C.2   109  SER109      0.2618
      8  O          0.7240   17.7280  -12.1790 O.2   109  SER109     -0.2717
      9  CB        -1.0740   15.4510  -14.5040 C.3   109  SER109      0.2103
     10  OG         0.0460   14.6170  -14.8100 O.3   109  SER109     -0.2182
     11  N          0.7230   17.6360  -14.4220 N.am  110  MET110     -0.1979
     12  CA         1.7270   18.6500  -14.5330 C.3   110  MET110      0.1605
     13  C          1.2730   19.9240  -13.8370 C.2   110  MET110      0.2287
     14  O          2.0550   20.6180  -13.2140 O.2   110  MET110     -0.2864
     15  CB         2.0560   18.9440  -16.0180 C.3   110  MET110      0.0413
     16  CG         3.0750   20.0530  -16.1870 C.3   110  MET110      0.0598
     17  SD         3.4180   20.4760  -17.9190 S.3   110  MET110     -0.1393
     18  CE         1.8700   21.2870  -18.3910 C.3   110  MET110      0.0692
     19  N          1.8200   15.2560  -10.8720 N.3   135  GLY135     -0.1210
     20  CA         2.8760   14.4300  -11.4410 C.3   135  GLY135      0.1956
     21  C          4.2750   14.7440  -10.9350 C.2   135  GLY135      0.2612
     22  O          4.5110   15.7850  -10.3340 O.2   135  GLY135     -0.2717
     23  N          5.1700   13.7750  -11.1440 N.am  136  GLY136     -0.1956
     24  CA         6.5940   13.9160  -10.8350 C.3   136  GLY136      0.1869
     25  C          7.0700   13.8160   -9.3910 C.2   136  GLY136      0.2309
     26  O          8.1840   14.2890   -9.1030 O.2   136  GLY136     -0.2863
     27  N          1.9560    7.3090  -19.0990 N.3   150  ILE150     -0.1245
     28  CA         3.0600    8.1840  -19.3960 C.3   150  ILE150      0.1561
     29  C          3.8360    7.6410  -20.6000 C.2   150  ILE150      0.2260
     30  O          4.2770    8.4050  -21.4370 O.2   150  ILE150     -0.2867
     31  CB         3.9770    8.3530  -18.1720 C.3   150  ILE150      0.0252
     32  CG1        3.1860    8.9280  -16.9810 C.3   150  ILE150      0.0019
     33  CG2        5.1940    9.1930  -18.5400 C.3   150  ILE150      0.0019
     34  CD1        2.4600   10.2290  -17.2630 C.3   150  ILE150      0.0001
     35  N          1.7850    8.8350  -23.4620 N.3   153  LEU153     -0.1231
     36  CA         1.9960   10.2670  -23.6080 C.3   153  LEU153      0.1693
     37  C          3.2930   10.5330  -24.3750 C.2   153  LEU153      0.2592
     38  O          3.3280   11.3710  -25.2640 O.2   153  LEU153     -0.2718
     39  CB         2.0120   10.9300  -22.2170 C.3   153  LEU153      0.0284
     40  CG         2.3120   12.3950  -21.9530 C.3   153  LEU153      0.0019
     41  CD1        1.5620   12.8080  -20.6770 C.3   153  LEU153      0.0001
     42  CD2        3.8040   12.6850  -21.8190 C.3   153  LEU153      0.0001
     43  N          4.3620    9.8250  -24.0180 N.am  154  PHE154     -0.1976
     44  CA         5.6250   10.0480  -24.7230 C.3   154  PHE154      0.1639
     45  C          5.5900    9.4880  -26.1340 C.2   154  PHE154      0.2290
     46  O          6.2010   10.0580  -27.0300 O.2   154  PHE154     -0.2864
     47  CB         6.8150    9.5330  -23.9070 C.3   154  PHE154      0.0560
     48  CG         7.3100   10.5340  -22.9150 C.ar  154  PHE154     -0.0200
     49  CD1        8.3110   11.4270  -23.2510 C.ar  154  PHE154     -0.0042
     50  CD2        6.7700   10.5920  -21.6330 C.ar  154  PHE154     -0.0042
     51  CE1        8.7850   12.3550  -22.3290 C.ar  154  PHE154     -0.0003
     52  CE2        7.2450   11.5030  -20.7020 C.ar  154  PHE154     -0.0003
     53  CZ         8.2560   12.3930  -21.0500 C.ar  154  PHE154     -0.0000
     54  N          8.7170   19.6750  -26.0840 N.3   201  PHE201     -0.1241
     55  CA         8.4650   18.9460  -24.8500 C.3   201  PHE201      0.1605
     56  C          9.4610   17.8030  -24.6860 C.2   201  PHE201      0.2264
     57  O          9.9510   17.5720  -23.5690 O.2   201  PHE201     -0.2867
     58  CB         7.0210   18.4020  -24.7950 C.3   201  PHE201      0.0534
     59  CG         6.6540   17.8260  -23.4510 C.ar  201  PHE201     -0.0203
     60  CD1        6.0070   18.6080  -22.4990 C.ar  201  PHE201     -0.0042
     61  CD2        6.9680   16.5140  -23.1430 C.ar  201  PHE201     -0.0042
     62  CE1        5.6900   18.0850  -21.2600 C.ar  201  PHE201     -0.0003
     63  CE2        6.6490   15.9910  -21.9060 C.ar  201  PHE201     -0.0003
     64  CZ         6.0120   16.7730  -20.9740 C.ar  201  PHE201     -0.0000
     65  N         11.8870   13.4220  -15.4080 N.3   210  LEU210     -0.1245
     66  CA        10.8010   13.4570  -14.4370 C.3   210  LEU210      0.1561
     67  C         11.2970   13.4530  -12.9890 C.2   210  LEU210      0.2260
     68  O         10.6900   14.0970  -12.1350 O.2   210  LEU210     -0.2867
     69  CB         9.8090   12.3170  -14.6860 C.3   210  LEU210      0.0270
     70  CG         8.5040   12.3970  -13.8670 C.3   210  LEU210      0.0019
     71  CD1        7.6620   13.6040  -14.2810 C.3   210  LEU210      0.0001
     72  CD2        7.6870   11.1130  -13.9650 C.3   210  LEU210      0.0001
     73  N         11.4340   16.7600  -11.2270 N.3   213  TRP213     -0.1241
     74  CA        10.2000   17.3780  -10.7480 C.3   213  TRP213      0.1605
     75  C          9.8890   17.0500   -9.3110 C.2   213  TRP213      0.2264
     76  O          8.9560   17.6130   -8.7460 O.2   213  TRP213     -0.2867
     77  CB         8.9920   16.8930  -11.5420 C.3   213  TRP213      0.0550
     78  CG         8.9440   17.2010  -13.0130 C.ar  213  TRP213      0.0003
     79  CD1        9.9960   17.4310  -13.8860 C.ar  213  TRP213      0.0946
     80  CD2        7.7330   17.2340  -13.8530 C.ar  213  TRP213      0.0152
     81  NE1        9.5320   17.6460  -15.1670 N.ar  213  TRP213     -0.2442
     82  CE2        8.1810   17.5390  -15.2100 C.ar  213  TRP213      0.0810
     83  CE3        6.3740   17.0740  -13.6090 C.ar  213  TRP213      0.0012
     84  CZ2        7.2970   17.6360  -16.2760 C.ar  213  TRP213      0.0191
     85  CZ3        5.4900   17.1830  -14.6890 C.ar  213  TRP213      0.0001
     86  CH2        5.9490   17.4520  -15.9940 C.ar  213  TRP213      0.0015
     87  N         -1.8560    7.0710  -15.0490 N.3   236  PHE236     -0.1227
     88  CA        -0.7950    8.0510  -15.3210 C.3   236  PHE236      0.1736
     89  C          0.0300    8.4850  -14.1220 C.2   236  PHE236      0.2595
     90  O          1.2260    8.7620  -14.2570 O.2   236  PHE236     -0.2718
     91  CB        -1.3980    9.3100  -15.9460 C.3   236  PHE236      0.0547
     92  CG        -1.9410    9.0930  -17.3130 C.ar  236  PHE236     -0.0202
     93  CD1       -1.2820    9.6000  -18.4330 C.ar  236  PHE236     -0.0042
     94  CD2       -3.1370    8.3820  -17.4840 C.ar  236  PHE236     -0.0042
     95  CE1       -1.8110    9.3640  -19.7100 C.ar  236  PHE236     -0.0003
     96  CE2       -3.6430    8.1380  -18.7390 C.ar  236  PHE236     -0.0003
     97  CZ        -2.9780    8.6460  -19.8520 C.ar  236  PHE236     -0.0000
     98  N         -0.6280    8.6620  -12.9860 N.am  237  VAL237     -0.1980
     99  CA         0.0220    9.0660  -11.7640 C.3   237  VAL237      0.1595
    100  C         -0.5120    8.1490  -10.6570 C.2   237  VAL237      0.2287
    101  O         -1.7240    7.9460  -10.5500 O.2   237  VAL237     -0.2864
    102  CB        -0.2490   10.5450  -11.4450 C.3   237  VAL237      0.0276
    103  CG1        0.7420   11.0320  -10.4070 C.3   237  VAL237      0.0022
    104  CG2       -0.1440   11.4060  -12.7040 C.3   237  VAL237      0.0022
@<TRIPOS>BOND
     1    46    45    2
     2    45    44    1
     3    54    55    1
     4    38    37    2
     5    55    58    1
     6    55    56    1
     7    58    59    1
     8    44    43    1
     9    44    47    1
    10    56    57    2
    11    37    43   am
    12    37    36    1
    13    47    48    1
    14    36    35    1
    15    36    39    1
    16    59    61   ar
    17    59    60   ar
    18    49    48   ar
    19    49    51   ar
    20    61    63   ar
    21    48    50   ar
    22    60    62   ar
    23    51    53   ar
    24    39    40    1
    25    40    42    1
    26    40    41    1
    27    63    64   ar
    28     4     3    2
    29    50    52   ar
    30    30    29    2
    31    62    64   ar
    32     3     2    1
    33    53    52   ar
    34    29    28    1
    35    97    95   ar
    36    97    96   ar
    37     2     1    1
    38    95    93   ar
    39    28    27    1
    40    28    31    1
    41    96    94   ar
    42    33    31    1
    43    93    92   ar
    44    18    17    1
    45    31    32    1
    46    17    16    1
    47    94    92   ar
    48    92    91    1
    49    34    32    1
    50    84    86   ar
    51    84    82   ar
    52    16    15    1
    53    15    12    1
    54    86    85   ar
    55    91    88    1
    56    65    66    1
    57    88    87    1
    58    88    89    1
    59    82    81   ar
    60    82    80   ar
    61    81    79   ar
    62    10     9    1
    63    85    83   ar
    64    69    66    1
    65    69    70    1
    66    12    11    1
    67    12    13    1
    68     9     6    1
    69    66    67    1
    70    11     7   am
    71    71    70    1
    72    90    89    2
    73    89    98   am
    74    72    70    1
    75    79    78   ar
    76    80    83   ar
    77    80    78   ar
    78    13    14    2
    79     7     6    1
    80     7     8    2
    81     6     5    1
    82    78    77    1
    83    67    68    2
    84    98    99    1
    85   104   102    1
    86    99   102    1
    87    99   100    1
    88    77    74    1
    89   102   103    1
    90    20    21    1
    91    20    19    1
    92    73    74    1
    93    23    21   am
    94    23    24    1
    95    21    22    2
    96    24    25    1
    97    74    75    1
    98   100   101    2
    99    25    26    2
   100    75    76    2
