@<TRIPOS>MOLECULE
tmp/3v1rA01.pdb
 75 69 0 0 0
SMALL
GASTEIGER

@<TRIPOS>ATOM
      1  N         -1.7150  -30.8070   -1.3050 N.3    22  ASP22      -0.1225
      2  CA        -2.0520  -31.8580   -0.3510 C.3    22  ASP22       0.1805
      3  C         -1.1210  -31.8490    0.8550 C.2    22  ASP22       0.2598
      4  O          0.0840  -31.6160    0.7250 O.2    22  ASP22      -0.2718
      5  CB        -2.0330  -33.2330   -1.0340 C.3    22  ASP22       0.1424
      6  CG        -2.7570  -34.3040   -0.2230 C.2    22  ASP22       0.3668
      7  OD1       -3.9340  -34.0910    0.1430 O.co2  22  ASP22      -0.2456
      8  OD2       -2.1470  -35.3600    0.0500 O.co2  22  ASP22      -0.2456
      9  N         -1.6970  -32.0710    2.0320 N.am   23  GLY23      -0.1942
     10  CA        -0.9120  -32.3620    3.2140 C.3    23  GLY23       0.2014
     11  C         -0.9800  -33.8450    3.5110 C.2    23  GLY23       0.2639
     12  O         -1.8530  -34.5440    3.0010 O.2    23  GLY23      -0.2714
     13  N         -0.0650  -34.3320    4.3380 N.am   24  SER24      -0.1949
     14  CA        -0.1220  -35.7140    4.7800 C.3    24  SER24       0.1924
     15  C          0.5320  -35.8560    6.1410 C.2    24  SER24       0.2314
     16  O          1.5600  -35.2300    6.4090 O.2    24  SER24      -0.2863
     17  CB         0.5560  -36.6360    3.7670 C.3    24  SER24       0.2116
     18  OG         0.2770  -37.9940    4.0610 O.3    24  SER24      -0.2180
     19  N         -2.5230  -33.7620    9.7420 N.3    56  ALA56      -0.1245
     20  CA        -2.8610  -33.7310    8.3280 C.3    56  ALA56       0.1562
     21  C         -3.4890  -32.3950    7.9460 C.2    56  ALA56       0.2260
     22  O         -3.1330  -31.8020    6.9280 O.2    56  ALA56      -0.2867
     23  CB        -3.8050  -34.8660    7.9940 C.3    56  ALA56       0.0290
     24  N         -2.3380  -29.5900    5.2380 N.3    60  GLU60      -0.1245
     25  CA        -3.1780  -29.0820    4.1620 C.3    60  GLU60       0.1567
     26  C         -3.0870  -27.5650    4.1370 C.2    60  GLU60       0.2260
     27  O         -2.8190  -26.9600    3.0930 O.2    60  GLU60      -0.2867
     28  CB        -4.6330  -29.5050    4.3670 C.3    60  GLU60       0.0388
     29  CG        -4.8540  -31.0060    4.4810 C.3    60  GLU60       0.1160
     30  CD        -4.9350  -31.7090    3.1350 C.2    60  GLU60       0.3649
     31  OE1       -4.6320  -31.0750    2.1020 O.co2  60  GLU60      -0.2457
     32  OE2       -5.3110  -32.9020    3.1150 O.co2  60  GLU60      -0.2457
     33  N         -8.4650  -31.2420   -1.5840 N.3    81  ASP81      -0.1225
     34  CA        -9.3550  -32.3460   -1.2450 C.3    81  ASP81       0.1805
     35  C         -9.7800  -32.3040    0.2210 C.2    81  ASP81       0.2598
     36  O        -10.4980  -33.1850    0.6960 O.2    81  ASP81      -0.2718
     37  CB        -8.7270  -33.6980   -1.6050 C.3    81  ASP81       0.1424
     38  CG        -7.4560  -33.9890   -0.8270 C.2    81  ASP81       0.3668
     39  OD1       -6.8220  -33.0400   -0.3200 O.co2  81  ASP81      -0.2456
     40  OD2       -7.0850  -35.1770   -0.7320 O.co2  81  ASP81      -0.2456
     41  N         -9.3380  -31.2690    0.9260 N.am   82  SER82      -0.1952
     42  CA        -9.6660  -31.1040    2.3340 C.3    82  SER82       0.1924
     43  C        -10.8680  -30.1840    2.5340 C.2    82  SER82       0.2314
     44  O        -10.8120  -28.9950    2.2160 O.2    82  SER82      -0.2863
     45  CB        -8.4580  -30.5540    3.0940 C.3    82  SER82       0.2116
     46  OG        -8.7960  -30.2270    4.4330 O.3    82  SER82      -0.2180
     47  N         -8.4100  -38.5190   -3.8070 N.3   136  HIS136     -0.1241
     48  CA        -8.2510  -39.9450   -4.0580 C.3   136  HIS136      0.1621
     49  C         -9.4320  -40.4650   -4.8670 C.2   136  HIS136      0.2264
     50  O        -10.2120  -41.2930   -4.3970 O.2   136  HIS136     -0.2867
     51  CB        -8.1220  -40.7030   -2.7370 C.3   136  HIS136      0.0745
     52  CG        -6.9820  -40.2350   -1.8870 C.ar  136  HIS136      0.0817
     53  ND1       -6.7460  -38.9020   -1.6280 N.ar  136  HIS136     -0.2268
     54  CD2       -6.0090  -40.9210   -1.2410 C.ar  136  HIS136      0.1154
     55  CE1       -5.6780  -38.7860   -0.8600 C.ar  136  HIS136      0.1986
     56  NE2       -5.2120  -39.9970   -0.6100 N.ar  136  HIS136     -0.2212
     57  N         -0.9010  -35.4840   -3.6100 N.3   151  ASP151     -0.1239
     58  CA        -0.8840  -36.4510   -2.5160 C.3   151  ASP151      0.1674
     59  C          0.4550  -37.1860   -2.4690 C.2   151  ASP151      0.2266
     60  O          1.1620  -37.1880   -1.4420 O.2   151  ASP151     -0.2867
     61  CB        -2.0400  -37.4430   -2.7090 C.3   151  ASP151      0.1410
     62  CG        -1.9500  -38.6500   -1.7920 C.2   151  ASP151      0.3668
     63  OD1       -2.4820  -38.5880   -0.6640 O.co2 151  ASP151     -0.2456
     64  OD2       -1.3650  -39.6670   -2.2160 O.co2 151  ASP151     -0.2456
     65  N          3.4520  -37.0460    0.4830 N.3   155  ARG155     -0.1245
     66  CA         3.8970  -38.2790    1.1320 C.3   155  ARG155      0.1563
     67  C          5.3750  -38.5790    0.8450 C.2   155  ARG155      0.2260
     68  O          6.1390  -38.9460    1.7480 O.2   155  ARG155     -0.2867
     69  CB         2.9840  -39.4500    0.7490 C.3   155  ARG155      0.0307
     70  CG         1.6320  -39.4060    1.4680 C.3   155  ARG155      0.0489
     71  CD         0.5930  -40.3390    0.8600 C.3   155  ARG155      0.2205
     72  NE        -0.5230  -40.5740    1.7760 N.pl3 155  ARG155     -0.0865
     73  CZ        -1.4800  -39.6900    2.0500 C.cat 155  ARG155      0.5346
     74  NH1       -1.4720  -38.4900    1.4840 N.pl3 155  ARG155      0.1354
     75  NH2       -2.4480  -40.0070    2.9000 N.pl3 155  ARG155      0.1354
@<TRIPOS>BOND
     1    49    50    2
     2    49    48    1
     3    48    47    1
     4    48    51    1
     5    57    58    1
     6    51    52    1
     7    61    58    1
     8    61    62    1
     9    58    59    1
    10    59    60    2
    11    64    62   ar
    12    52    53   ar
    13    52    54   ar
    14    62    63   ar
    15    53    55   ar
    16    37    34    1
    17    37    38    1
    18    33    34    1
    19     1     2    1
    20    34    35    1
    21    54    56   ar
    22     5     2    1
    23     5     6    1
    24    55    56   ar
    25    38    40   ar
    26    38    39   ar
    27     2     3    1
    28     6     8   ar
    29     6     7   ar
    30    35    36    2
    31    35    41   am
    32    65    66    1
    33     4     3    2
    34    69    66    1
    35    69    70    1
    36    67    66    1
    37    67    68    2
    38     3     9   am
    39    71    70    1
    40    71    72    1
    41    41    42    1
    42    74    73    1
    43    72    73    2
    44     9    10    1
    45    73    75    1
    46    31    30   ar
    47    44    43    2
    48    42    43    1
    49    42    45    1
    50    12    11    2
    51    27    26    2
    52    45    46    1
    53    32    30   ar
    54    30    29    1
    55    10    11    1
    56    11    13   am
    57    17    18    1
    58    17    14    1
    59    26    25    1
    60    25    28    1
    61    25    24    1
    62    13    14    1
    63    28    29    1
    64    14    15    1
    65    15    16    2
    66    22    21    2
    67    21    20    1
    68    23    20    1
    69    20    19    1
