@<TRIPOS>MOLECULE
tmp/3v1uA01.pdb
 144 138 0 0 0
SMALL
GASTEIGER

@<TRIPOS>ATOM
      1  N         47.4400  -26.6180  -12.6120 N.3   188  ARG188     -0.1245
      2  CA        48.5670  -25.7240  -12.4370 C.3   188  ARG188      0.1563
      3  C         48.2460  -24.2690  -12.8210 C.2   188  ARG188      0.2260
      4  O         47.0890  -23.9480  -13.1530 O.2   188  ARG188     -0.2867
      5  CB        49.7210  -26.2370  -13.2780 C.3   188  ARG188      0.0307
      6  CG        49.3970  -26.2560  -14.7340 C.3   188  ARG188      0.0489
      7  CD        50.6570  -26.3780  -15.5730 C.3   188  ARG188      0.2205
      8  NE        50.4790  -25.7210  -16.8680 N.pl3 188  ARG188     -0.0865
      9  CZ        50.7680  -26.2590  -18.0570 C.cat 188  ARG188      0.5346
     10  NH1       51.2840  -27.4780  -18.1530 N.pl3 188  ARG188      0.1354
     11  NH2       50.5580  -25.5640  -19.1630 N.pl3 188  ARG188      0.1354
     12  N         42.6430  -23.1020  -20.7910 N.3   262  GLY262     -0.1210
     13  CA        42.9270  -22.5510  -22.1010 C.3   262  GLY262      0.1956
     14  C         44.2330  -23.0970  -22.6660 C.2   262  GLY262      0.2612
     15  O         45.0520  -23.6190  -21.9200 O.2   262  GLY262     -0.2717
     16  N         44.4500  -22.9510  -23.9750 N.am  263  ILE263     -0.1965
     17  CA        45.7330  -23.3000  -24.5810 C.3   263  ILE263      0.1727
     18  C         46.1600  -22.2040  -25.5740 C.2   263  ILE263      0.2616
     19  O         45.3480  -21.3930  -25.9700 O.2   263  ILE263     -0.2715
     20  CB        45.6690  -24.6950  -25.3310 C.3   263  ILE263      0.0290
     21  CG1       44.6560  -24.6600  -26.4950 C.3   263  ILE263      0.0022
     22  CG2       45.4010  -25.8640  -24.3830 C.3   263  ILE263      0.0023
     23  CD1       44.9420  -25.7130  -27.5650 C.3   263  ILE263      0.0001
     24  N         47.4160  -22.1610  -25.9760 N.am  264  THR264     -0.1951
     25  CA        47.7500  -21.4240  -27.1810 C.3   264  THR264      0.1897
     26  C         48.3200  -22.3940  -28.2040 C.2   264  THR264      0.2313
     27  O         48.8710  -23.4610  -27.8270 O.2   264  THR264     -0.2863
     28  CB        48.8570  -20.3980  -26.9430 C.3   264  THR264      0.1794
     29  OG1       50.0330  -21.0760  -26.5210 O.3   264  THR264     -0.2208
     30  CG2       48.4640  -19.3760  -25.8640 C.3   264  THR264      0.0378
     31  N         50.3400  -20.7040  -31.0300 N.3   266  ASP266     -0.1225
     32  CA        50.7350  -19.4870  -31.7770 C.3   266  ASP266      0.1805
     33  C         51.4230  -19.7690  -33.0970 C.2   266  ASP266      0.2598
     34  O         52.4040  -20.4810  -33.1280 O.2   266  ASP266     -0.2718
     35  CB        51.6390  -18.5630  -30.9430 C.3   266  ASP266      0.1424
     36  CG        51.0200  -18.1950  -29.6190 C.2   266  ASP266      0.3668
     37  OD1       49.7610  -18.1610  -29.5370 O.co2 266  ASP266     -0.2456
     38  OD2       51.7870  -17.9650  -28.6500 O.co2 266  ASP266     -0.2456
     39  N         50.9030  -19.1740  -34.1610 N.am  267  LYS267     -0.1966
     40  CA        51.4970  -19.2220  -35.4700 C.3   267  LYS267      0.1728
     41  C         51.0140  -17.9780  -36.2000 C.2   267  LYS267      0.2616
     42  O         49.9270  -17.4620  -35.9060 O.2   267  LYS267     -0.2715
     43  CB        50.9790  -20.4680  -36.2000 C.3   267  LYS267      0.0311
     44  CG        51.8360  -20.9230  -37.3970 C.3   267  LYS267      0.0038
     45  CD        52.4840  -22.2990  -37.1540 C.3   267  LYS267      0.0206
     46  CE        53.9390  -22.2170  -36.7050 C.3   267  LYS267      0.1093
     47  NZ        54.9040  -22.3770  -37.8500 N.3   267  LYS267     -0.1314
     48  N         51.7800  -17.4650  -37.1470 N.am  268  LEU268     -0.1977
     49  CA        51.2370  -16.4040  -37.9670 C.3   268  LEU268      0.1596
     50  C         50.0970  -16.9350  -38.8260 C.2   268  LEU268      0.2287
     51  O         50.1660  -18.0550  -39.3310 O.2   268  LEU268     -0.2864
     52  CB        52.3140  -15.8540  -38.8540 C.3   268  LEU268      0.0297
     53  CG        53.4090  -15.0460  -38.1770 C.3   268  LEU268      0.0022
     54  CD1       54.5520  -14.8230  -39.1770 C.3   268  LEU268      0.0001
     55  CD2       52.9000  -13.6810  -37.6090 C.3   268  LEU268      0.0001
     56  N         49.4660  -16.6240  -41.6260 N.3   270  ALA270     -0.1231
     57  CA        49.8800  -16.9050  -42.9970 C.3   270  ALA270      0.1694
     58  C         50.2890  -18.4060  -43.1120 C.2   270  ALA270      0.2592
     59  O         49.7760  -19.1280  -43.9760 O.2   270  ALA270     -0.2718
     60  CB        51.0040  -15.9240  -43.4580 C.3   270  ALA270      0.0304
     61  N         51.1710  -18.8390  -42.2130 N.am  271  ASN271     -0.1974
     62  CA        51.5620  -20.2130  -42.0650 C.3   271  ASN271      0.1688
     63  C         50.7350  -20.9780  -41.0220 C.2   271  ASN271      0.2292
     64  O         51.3110  -21.6540  -40.1680 O.2   271  ASN271     -0.2864
     65  CB        53.0180  -20.2820  -41.6070 C.3   271  ASN271      0.1181
     66  CG        53.7600  -18.9740  -41.7560 C.2   271  ASN271      0.2629
     67  OD1       53.9510  -18.4660  -42.8630 O.2   271  ASN271     -0.2716
     68  ND2       54.2360  -18.4480  -40.6330 N.am  271  ASN271     -0.0877
     69  N         47.3660   -9.5480  -30.6860 N.3   319  ASN319     -0.1225
     70  CA        48.7600   -9.8510  -30.5580 C.3   319  ASN319      0.1785
     71  C         49.2990  -10.5560  -31.7920 C.2   319  ASN319      0.2597
     72  O         48.5800  -11.2490  -32.4870 O.2   319  ASN319     -0.2718
     73  CB        49.0160  -10.6450  -29.2930 C.3   319  ASN319      0.1169
     74  CG        50.4820  -10.5780  -28.8590 C.2   319  ASN319      0.2627
     75  OD1       51.1470   -9.5430  -29.0150 O.2   319  ASN319     -0.2716
     76  ND2       50.9820  -11.6760  -28.3000 N.am  319  ASN319     -0.0877
     77  N         50.5700  -10.3480  -32.0720 N.am  320  ARG320     -0.1966
     78  CA        51.2020  -10.9300  -33.2250 C.3   320  ARG320      0.1729
     79  C         51.3370  -12.4510  -32.9970 C.2   320  ARG320      0.2617
     80  O         51.8870  -12.9110  -31.9900 O.2   320  ARG320     -0.2715
     81  CB        52.5730  -10.2700  -33.3960 C.3   320  ARG320      0.0348
     82  CG        53.2390  -10.5400  -34.7060 C.3   320  ARG320      0.0492
     83  CD        54.6880  -10.0190  -34.7220 C.3   320  ARG320      0.2205
     84  NE        55.5980  -10.9830  -35.3520 N.pl3 320  ARG320     -0.0865
     85  CZ        55.6940  -11.1610  -36.6650 C.cat 320  ARG320      0.5346
     86  NH1       54.9400  -10.4300  -37.4930 N.pl3 320  ARG320      0.1354
     87  NH2       56.5320  -12.0760  -37.1510 N.pl3 320  ARG320      0.1354
     88  N         50.7970  -13.2260  -33.9170 N.am  321  GLY321     -0.1940
     89  CA        51.0280  -14.6490  -33.9030 C.3   321  GLY321      0.2014
     90  C         49.9040  -15.3770  -33.2270 C.2   321  GLY321      0.2638
     91  O         50.0260  -16.5850  -33.0050 O.2   321  GLY321     -0.2714
     92  N         48.8150  -14.6460  -32.9250 N.am  322  GLN322     -0.1977
     93  CA        47.6940  -15.1600  -32.1420 C.3   322  GLN322      0.1601
     94  C         46.3180  -14.8350  -32.6720 C.2   322  GLN322      0.2287
     95  O         45.3950  -14.6710  -31.8820 O.2   322  GLN322     -0.2864
     96  CB        47.7980  -14.6300  -30.7150 C.3   322  GLN322      0.0394
     97  CG        48.9250  -15.2770  -29.9380 C.3   322  GLN322      0.0908
     98  CD        48.9310  -14.9780  -28.4680 C.2   322  GLN322      0.2608
     99  OE1       48.6950  -13.8370  -28.0410 O.2   322  GLN322     -0.2717
    100  NE2       49.2340  -15.9990  -27.6690 N.am  322  GLN322     -0.0878
    101  N         43.9710  -17.5300  -30.8820 N.3   325  TYR325     -0.1241
    102  CA        43.8740  -17.2190  -29.4780 C.3   325  TYR325      0.1605
    103  C         43.0830  -15.9380  -29.1410 C.2   325  TYR325      0.2264
    104  O         42.1570  -15.9880  -28.2930 O.2   325  TYR325     -0.2867
    105  CB        45.2680  -17.0780  -28.9450 C.3   325  TYR325      0.0534
    106  CG        45.3600  -16.8480  -27.4560 C.ar  325  TYR325     -0.0201
    107  CD1       45.1870  -17.9040  -26.5770 C.ar  325  TYR325     -0.0009
    108  CD2       45.7010  -15.5860  -26.9310 C.ar  325  TYR325     -0.0009
    109  CE1       45.3010  -17.7100  -25.2070 C.ar  325  TYR325      0.0417
    110  CE2       45.8100  -15.3880  -25.5560 C.ar  325  TYR325      0.0417
    111  CZ        45.6100  -16.4600  -24.7180 C.ar  325  TYR325      0.1957
    112  OH        45.7110  -16.3480  -23.3720 O.3   325  TYR325     -0.2866
    113  N         52.5080  -18.6580  -15.7090 N.3   361  GLN361     -0.1231
    114  CA        53.7620  -18.3230  -16.4030 C.3   361  GLN361      0.1698
    115  C         53.4500  -17.4510  -17.6330 C.2   361  GLN361      0.2592
    116  O         52.2740  -17.2410  -17.9670 O.2   361  GLN361     -0.2718
    117  CB        54.5790  -19.5810  -16.7810 C.3   361  GLN361      0.0381
    118  CG        53.8180  -20.9300  -16.6920 C.3   361  GLN361      0.0905
    119  CD        53.9000  -21.7590  -17.9750 C.2   361  GLN361      0.2608
    120  OE1       54.2190  -21.2340  -19.0560 O.2   361  GLN361     -0.2717
    121  NE2       53.5850  -23.0520  -17.8680 N.am  361  GLN361     -0.0878
    122  N         54.5060  -16.9330  -18.2750 N.am  362  MET362     -0.1979
    123  CA        54.4160  -16.1980  -19.5460 C.3   362  MET362      0.1605
    124  C         55.1260  -16.9640  -20.6800 C.2   362  MET362      0.2287
    125  O         56.2660  -17.4210  -20.5210 O.2   362  MET362     -0.2864
    126  CB        54.9890  -14.7750  -19.3890 C.3   362  MET362      0.0413
    127  CG        54.6980  -13.8490  -20.5730 C.3   362  MET362      0.0598
    128  SD        52.9320  -13.4750  -20.8180 S.3   362  MET362     -0.1393
    129  CE        52.8800  -12.8910  -22.6000 C.3   362  MET362      0.0692
    130  N         58.6650  -17.7810  -24.3560 N.3   363  ILE363     -0.1231
    131  CA        58.9940  -16.5600  -25.1040 C.3   363  ILE363      0.1678
    132  C         60.3870  -16.0020  -24.7380 C.2   363  ILE363      0.2434
    133  O         60.7410  -15.9780  -23.5470 O.2   363  ILE363     -0.2733
    134  CB        57.9080  -15.4260  -24.9370 C.3   363  ILE363      0.0265
    135  CG1       57.8720  -14.8740  -23.4980 C.3   363  ILE363      0.0019
    136  CG2       56.5250  -15.9000  -25.4290 C.3   363  ILE363      0.0020
    137  CD1       57.9100  -13.3570  -23.4220 C.3   363  ILE363      0.0001
    138  N         61.1720  -15.5400  -25.7550 N.am  364  PRO364     -0.2729
    139  CA        62.5390  -15.0510  -25.5080 C.3   364  PRO364      0.1401
    140  C         62.6460  -14.3110  -24.1810 C.2   364  PRO364      0.2269
    141  O         61.8200  -13.4360  -23.9080 O.2   364  PRO364     -0.2865
    142  CB        62.7920  -14.0770  -26.6760 C.3   364  PRO364      0.0296
    143  CG        61.8770  -14.5290  -27.7880 C.3   364  PRO364      0.0237
    144  CD        60.8410  -15.4930  -27.1980 C.3   364  PRO364      0.0939
@<TRIPOS>BOND
     1    59    58    2
     2    60    57    1
     3    58    57    1
     4    58    61   am
     5    57    56    1
     6    67    66    2
     7    61    62    1
     8    62    65    1
     9    62    63    1
    10    66    65    1
    11    66    68   am
    12    63    64    2
    13    51    50    2
    14    54    53    1
    15    52    53    1
    16    52    49    1
    17    50    49    1
    18    53    55    1
    19    49    48    1
    20    47    46    1
    21    86    85    1
    22    44    45    1
    23    44    43    1
    24    45    46    1
    25    87    85    1
    26    48    41   am
    27    85    84    2
    28    43    40    1
    29    41    42    2
    30    41    40    1
    31    40    39    1
    32    84    83    1
    33    83    82    1
    34    82    81    1
    35    39    33   am
    36    88    89    1
    37    88    79   am
    38    89    90    1
    39    81    78    1
    40    90    91    2
    41    90    92   am
    42    78    79    1
    43    78    77    1
    44    34    33    2
    45    33    32    1
    46    79    80    2
    47    92    93    1
    48    94    93    1
    49    94    95    2
    50    72    71    2
    51    93    96    1
    52    77    71   am
    53    71    70    1
    54    32    31    1
    55    32    35    1
    56    35    36    1
    57   101   102    1
    58    96    97    1
    59    69    70    1
    60    70    73    1
    61    97    98    1
    62    36    37   ar
    63    36    38   ar
    64   102   103    1
    65   102   105    1
    66    73    74    1
    67   103   104    2
    68    75    74    2
    69   105   106    1
    70    74    76   am
    71    98    99    2
    72    98   100   am
    73    26    27    2
    74    26    25    1
    75   143   144    1
    76   143   142    1
    77    23    21    1
    78   106   108   ar
    79   106   107   ar
    80   144   138    1
    81    25    28    1
    82    25    24    1
    83    28    29    1
    84    28    30    1
    85   108   110   ar
    86   142   139    1
    87   107   109   ar
    88    21    20    1
    89    24    18   am
    90    19    18    2
    91   138   139    1
    92   138   132   am
    93    18    17    1
    94   110   111   ar
    95   139   140    1
    96   136   134    1
    97    20    17    1
    98    20    22    1
    99   109   111   ar
   100   131   134    1
   101   131   132    1
   102   131   130    1
   103   134   135    1
   104   132   133    2
   105   111   112    1
   106    17    16    1
   107   140   141    2
   108    16    14   am
   109   135   137    1
   110    14    13    1
   111    14    15    2
   112   129   128    1
   113    13    12    1
   114   128   127    1
   115   124   125    2
   116   124   123    1
   117   127   126    1
   118   123   126    1
   119   123   122    1
   120    11     9    1
   121   120   119    2
   122   122   115   am
   123    10     9    1
   124     9     8    2
   125   119   121   am
   126   119   118    1
   127   116   115    2
   128   115   114    1
   129     8     7    1
   130   117   118    1
   131   117   114    1
   132   114   113    1
   133     7     6    1
   134     6     5    1
   135     5     2    1
   136     4     3    2
   137     3     2    1
   138     1     2    1
