@<TRIPOS>MOLECULE
tmp/3v1vA00.pdb
 185 175 0 0 0
SMALL
GASTEIGER

@<TRIPOS>ATOM
      1  N         33.5080   14.5120    1.5690 N.3    71  MET71      -0.1245
      2  CA        32.4180   14.1170    0.6550 C.3    71  MET71       0.1570
      3  C         32.0800   12.6170    0.7460 C.2    71  MET71       0.2261
      4  O         30.8820   12.1920    0.7620 O.2    71  MET71      -0.2867
      5  CB        32.7740   14.5390   -0.7940 C.3    71  MET71       0.0387
      6  CG        31.8070   13.8560   -1.7920 C.3    71  MET71       0.0595
      7  SD        31.7560   14.5540   -3.3890 S.3    71  MET71      -0.1393
      8  CE        30.8360   16.1260   -3.2330 C.3    71  MET71       0.0692
      9  N         30.2250   12.0110    3.9450 N.3    74  GLU74      -0.1231
     10  CA        28.8120   12.5240    3.8490 C.3    74  GLU74       0.1699
     11  C         28.0140   11.4570    3.1460 C.2    74  GLU74       0.2592
     12  O         26.8700   11.0560    3.5770 O.2    74  GLU74      -0.2718
     13  CB        28.7300   13.8310    3.0560 C.3    74  GLU74       0.0402
     14  CG        29.3730   15.1290    3.9330 C.3    74  GLU74       0.1161
     15  CD        30.2310   16.2590    3.1820 C.2    74  GLU74       0.3649
     16  OE1       30.2750   16.2870    1.9550 O.co2  74  GLU74      -0.2457
     17  OE2       30.9360   17.1150    3.8320 O.co2  74  GLU74      -0.2457
     18  N         28.5950   10.8900    2.0730 N.am   75  ASN75      -0.1974
     19  CA        27.9020    9.8430    1.3220 C.3    75  ASN75       0.1688
     20  C         27.5930    8.6080    2.0870 C.2    75  ASN75       0.2292
     21  O         26.5040    7.9920    1.8890 O.2    75  ASN75      -0.2864
     22  CB        28.7120    9.3340    0.1070 C.3    75  ASN75       0.1181
     23  CG        28.8720   10.3540   -0.9750 C.2    75  ASN75       0.2629
     24  OD1       29.6650   10.1430   -1.9090 O.2    75  ASN75      -0.2716
     25  ND2       28.1930   11.4770   -0.8570 N.am   75  ASN75      -0.0877
     26  N         24.5710    9.1670    4.3070 N.3    78  ASP78      -0.1239
     27  CA        23.2870    9.2430    3.5710 C.3    78  ASP78       0.1674
     28  C         22.9960    7.7830    3.1680 C.2    78  ASP78       0.2266
     29  O         21.8760    7.2420    3.3750 O.2    78  ASP78      -0.2867
     30  CB        23.3200   10.2980    2.3780 C.3    78  ASP78       0.1410
     31  CG        21.8910   10.9410    2.0270 C.2    78  ASP78       0.3668
     32  OD1       21.6660   11.4000    0.8530 O.co2  78  ASP78      -0.2456
     33  OD2       20.9930   11.0050    2.9200 O.co2  78  ASP78      -0.2456
     34  N         22.9490   20.5140    7.4460 N.3   151  LEU151     -0.1245
     35  CA        22.6610   19.3840    6.5930 C.3   151  LEU151      0.1561
     36  C         21.8940   18.3100    7.3550 C.2   151  LEU151      0.2260
     37  O         20.9150   17.7670    6.8150 O.2   151  LEU151     -0.2867
     38  CB        24.0230   18.7730    6.1280 C.3   151  LEU151      0.0270
     39  CG        23.9170   17.4880    5.3300 C.3   151  LEU151      0.0019
     40  CD1       23.1810   17.6200    3.9900 C.3   151  LEU151      0.0001
     41  CD2       25.3500   16.8530    5.0640 C.3   151  LEU151      0.0001
     42  N         18.2620   16.6190    6.4910 N.3   155  TYR155     -0.1241
     43  CA        17.9390   15.1710    6.3770 C.3   155  TYR155      0.1605
     44  C         16.7530   14.8630    7.2460 C.2   155  TYR155      0.2264
     45  O         15.9360   14.0250    6.8990 O.2   155  TYR155     -0.2867
     46  CB        19.0770   14.2890    6.9980 C.3   155  TYR155      0.0534
     47  CG        20.3450   14.1930    6.2160 C.ar  155  TYR155     -0.0201
     48  CD1       20.3890   14.4300    4.8640 C.ar  155  TYR155     -0.0009
     49  CD2       21.5190   13.7760    6.8860 C.ar  155  TYR155     -0.0009
     50  CE1       21.6130   14.2950    4.1380 C.ar  155  TYR155      0.0417
     51  CE2       22.7410   13.5930    6.1640 C.ar  155  TYR155      0.0417
     52  CZ        22.7330   13.8540    4.8120 C.ar  155  TYR155      0.1957
     53  OH        23.9080   13.7010    4.0690 O.3   155  TYR155     -0.2866
     54  N         13.4350   15.9400    5.7040 N.3   158  GLU158     -0.1245
     55  CA        13.0730   15.0030    4.6370 C.3   158  GLU158      0.1567
     56  C         12.6110   13.6620    5.2250 C.2   158  GLU158      0.2260
     57  O         11.5890   13.0660    4.7910 O.2   158  GLU158     -0.2867
     58  CB        14.2740   14.8020    3.7650 C.3   158  GLU158      0.0388
     59  CG        14.1230   13.6670    2.7230 C.3   158  GLU158      0.1160
     60  CD        15.5410   13.4220    2.1090 C.2   158  GLU158      0.3649
     61  OE1       16.5210   12.9450    2.7930 O.co2 158  GLU158     -0.2457
     62  OE2       15.6630   13.7140    0.9770 O.co2 158  GLU158     -0.2457
     63  N         15.3890   21.8410    1.1980 N.3   177  ARG177     -0.1245
     64  CA        16.5200   21.6100    0.2870 C.3   177  ARG177      0.1563
     65  C         17.5770   22.7060    0.4170 C.2   177  ARG177      0.2260
     66  O         18.6540   22.5540   -0.1800 O.2   177  ARG177     -0.2867
     67  CB        15.9630   21.5930   -1.1590 C.3   177  ARG177      0.0307
     68  CG        16.7910   20.7450   -2.2000 C.3   177  ARG177      0.0489
     69  CD        17.0720   19.2090   -1.7060 C.3   177  ARG177      0.2205
     70  NE        17.5240   18.5030   -2.8850 N.pl3 177  ARG177     -0.0865
     71  CZ        18.5140   17.5950   -2.8980 C.cat 177  ARG177      0.5346
     72  NH1       18.8880   16.9670   -4.0820 N.pl3 177  ARG177      0.1354
     73  NH2       19.0620   17.2600   -1.6830 N.pl3 177  ARG177      0.1354
     74  N         19.2800   20.4990    3.3880 N.3   180  ASN180     -0.1225
     75  CA        19.6760   19.1920    2.8970 C.3   180  ASN180      0.1785
     76  C         20.3130   19.4660    1.5210 C.2   180  ASN180      0.2597
     77  O         19.6620   19.4120    0.4840 O.2   180  ASN180     -0.2718
     78  CB        18.4300   18.2530    2.7700 C.3   180  ASN180      0.1169
     79  CG        18.7790   16.8940    2.2200 C.2   180  ASN180      0.2627
     80  OD1       19.9210   16.5630    1.8310 O.2   180  ASN180     -0.2716
     81  ND2       17.7350   16.0810    2.0570 N.am  180  ASN180     -0.0877
     82  N         21.6250   19.7990    1.5030 N.am  181  ASN181     -0.1960
     83  CA        22.0870   20.6470    0.4060 C.3   181  ASN181      0.1819
     84  C         23.6100   20.4360    0.2960 C.2   181  ASN181      0.2621
     85  O         24.2380   20.0120    1.2760 O.2   181  ASN181     -0.2715
     86  CB        21.8470   22.1210    0.8890 C.3   181  ASN181      0.1195
     87  CG        22.1020   23.1960   -0.1800 C.2   181  ASN181      0.2630
     88  OD1       23.2500   23.5420   -0.4580 O.2   181  ASN181     -0.2716
     89  ND2       21.0330   23.7830   -0.7270 N.am  181  ASN181     -0.0877
     90  N         24.1700   20.6950   -0.8780 N.am  182  PHE182     -0.1974
     91  CA        25.6530   20.5400   -1.0430 C.3   182  PHE182      0.1639
     92  C         26.4580   21.5330   -0.2790 C.2   182  PHE182      0.2290
     93  O         27.7010   21.3680   -0.1730 O.2   182  PHE182     -0.2864
     94  CB        26.0180   20.7220   -2.5290 C.3   182  PHE182      0.0560
     95  CG        25.6760   19.5180   -3.3570 C.ar  182  PHE182     -0.0200
     96  CD1       26.3020   18.2940   -3.2000 C.ar  182  PHE182     -0.0042
     97  CD2       24.6040   19.6060   -4.2940 C.ar  182  PHE182     -0.0042
     98  CE1       25.9350   17.1200   -4.0200 C.ar  182  PHE182     -0.0003
     99  CE2       24.2050   18.4990   -5.0670 C.ar  182  PHE182     -0.0003
    100  CZ        24.8650   17.2300   -4.9570 C.ar  182  PHE182     -0.0000
    101  N         27.9010   22.3310    2.5630 N.3   184  PRO184     -0.2102
    102  CA        29.1860   22.1100    3.2890 C.3   184  PRO184      0.1504
    103  C         30.3420   21.8640    2.2810 C.2   184  PRO184      0.2576
    104  O         31.4590   21.9030    2.7470 O.2   184  PRO184     -0.2718
    105  CB        28.9610   20.7810    4.0310 C.3   184  PRO184      0.0282
    106  CG        27.3770   20.6750    4.1780 C.3   184  PRO184      0.0208
    107  CD        26.8790   21.3040    2.8870 C.3   184  PRO184      0.0893
    108  N         30.0830   21.6270    1.0030 N.am  185  CYS185     -0.1971
    109  CA        31.1870   21.3270    0.0530 C.3   185  CYS185      0.1712
    110  C         31.7610   22.6220   -0.5180 C.2   185  CYS185      0.2296
    111  O         32.9780   22.8650   -0.3980 O.2   185  CYS185     -0.2864
    112  CB        30.6860   20.3630   -1.0650 C.3   185  CYS185      0.0983
    113  SG        30.0340   18.7890   -0.3600 S.3   185  CYS185     -0.0798
    114  N         22.1840   22.4960   -5.6920 N.3   219  THR219     -0.1218
    115  CA        21.4510   21.3030   -5.1930 C.3   219  THR219      0.1862
    116  C         20.2730   21.0050   -6.0990 C.2   219  THR219      0.2287
    117  O         20.0120   19.8740   -6.3400 O.2   219  THR219     -0.2866
    118  CB        21.0740   21.5280   -3.6820 C.3   219  THR219      0.1770
    119  OG1       22.2940   21.7660   -2.9250 O.3   219  THR219     -0.2211
    120  CG2       20.3600   20.3480   -3.1180 C.3   219  THR219      0.0375
    121  N         21.1600   18.7760   -8.7610 N.3   222  ASN222     -0.1240
    122  CA        21.0660   17.3760   -8.5530 C.3   222  ASN222      0.1653
    123  C         19.6050   16.8680   -8.7000 C.2   222  ASN222      0.2266
    124  O         19.3690   15.7330   -9.2160 O.2   222  ASN222     -0.2867
    125  CB        21.5980   16.9860   -7.1420 C.3   222  ASN222      0.1155
    126  CG        21.2930   15.5520   -6.7860 C.2   222  ASN222      0.2627
    127  OD1       20.2270   15.2660   -6.2730 O.2   222  ASN222     -0.2716
    128  ND2       22.2150   14.6140   -7.0890 N.am  222  ASN222     -0.0877
    129  N         19.0350   13.8370  -11.1990 N.3   226  SER226     -0.1217
    130  CA        18.7870   12.5640  -10.5630 C.3   226  SER226      0.1889
    131  C         17.2860   12.2280  -10.5980 C.2   226  SER226      0.2288
    132  O         16.8520   11.2400  -10.0200 O.2   226  SER226     -0.2866
    133  CB        19.3120   12.5260   -9.0840 C.3   226  SER226      0.2089
    134  OG        18.5800   13.4740   -8.2580 O.3   226  SER226     -0.2183
    135  N         16.4150    8.6000  -11.9020 N.3   229  LYS229     -0.1231
    136  CA        16.8670    7.6460  -10.8730 C.3   229  LYS229      0.1693
    137  C         15.9140    7.6120   -9.6560 C.2   229  LYS229      0.2591
    138  O         15.5850    6.5530   -9.1220 O.2   229  LYS229     -0.2718
    139  CB        18.2820    8.0380  -10.3750 C.3   229  LYS229      0.0285
    140  CG        18.6250    7.4910   -8.9860 C.3   229  LYS229      0.0035
    141  CD        20.0620    7.9000   -8.6060 C.3   229  LYS229      0.0206
    142  CE        20.1980    8.2060   -7.1490 C.3   229  LYS229      0.1093
    143  NZ        20.6670    7.0960   -6.2970 N.3   229  LYS229     -0.1314
    144  N         15.4710    8.7740   -9.2060 N.am  230  GLU230     -0.1979
    145  CA        14.6950    8.7930   -7.9890 C.3   230  GLU230      0.1602
    146  C         13.3090    8.2200   -8.2080 C.2   230  GLU230      0.2287
    147  O         12.6650    7.7960   -7.2320 O.2   230  GLU230     -0.2864
    148  CB        14.6530   10.2060   -7.3760 C.3   230  GLU230      0.0415
    149  CG        16.0280   10.4340   -6.6820 C.3   230  GLU230      0.1163
    150  CD        16.3740   11.8530   -6.3400 C.2   230  GLU230      0.3649
    151  OE1       15.5710   12.7930   -6.5300 O.co2 230  GLU230     -0.2457
    152  OE2       17.5160   12.0530   -5.8420 O.co2 230  GLU230     -0.2457
    153  N         10.1120    9.4890   -3.6020 N.3   237  HIS237     -0.1241
    154  CA        11.2330   10.3210   -3.1620 C.3   237  HIS237      0.1621
    155  C         11.0750   11.7680   -3.6510 C.2   237  HIS237      0.2264
    156  O         10.9020   11.9700   -4.8590 O.2   237  HIS237     -0.2867
    157  CB        12.5360    9.7560   -3.7080 C.3   237  HIS237      0.0745
    158  CG        13.7390   10.4640   -3.1700 C.ar  237  HIS237      0.0817
    159  ND1       14.3670   10.0920   -1.9940 N.ar  237  HIS237     -0.2268
    160  CD2       14.4260   11.5270   -3.6480 C.ar  237  HIS237      0.1154
    161  CE1       15.4020   10.8930   -1.7730 C.ar  237  HIS237      0.1986
    162  NE2       15.4630   11.7730   -2.7680 N.ar  237  HIS237     -0.2212
    163  N         25.4140    7.1170  -12.6610 N.3   310  ARG310     -0.1231
    164  CA        24.3960    7.4070  -11.6270 C.3   310  ARG310      0.1694
    165  C         23.1110    7.9790  -12.2770 C.2   310  ARG310      0.2592
    166  O         22.0240    7.6820  -11.8220 O.2   310  ARG310     -0.2718
    167  CB        24.9220    8.3880  -10.5270 C.3   310  ARG310      0.0321
    168  CG        25.9960    7.8560   -9.5680 C.3   310  ARG310      0.0489
    169  CD        26.4190    8.9330   -8.5610 C.3   310  ARG310      0.2205
    170  NE        25.3650    9.2780   -7.5880 N.pl3 310  ARG310     -0.0865
    171  CZ        25.1840    8.6390   -6.4150 C.cat 310  ARG310      0.5346
    172  NH1       25.9610    7.5890   -6.0700 N.pl3 310  ARG310      0.1354
    173  NH2       24.2200    9.0360   -5.5770 N.pl3 310  ARG310      0.1354
    174  N         23.2360    8.7750  -13.3360 N.am  311  TYR311     -0.1976
    175  CA        22.1170    9.6260  -13.8190 C.3   311  TYR311      0.1639
    176  C         21.8120    9.5220  -15.3240 C.2   311  TYR311      0.2290
    177  O         22.7090    9.3030  -16.1520 O.2   311  TYR311     -0.2864
    178  CB        22.4000   11.1350  -13.4970 C.3   311  TYR311      0.0560
    179  CG        22.8900   11.4050  -12.0690 C.ar  311  TYR311     -0.0198
    180  CD1       22.1310   11.0360  -10.9620 C.ar  311  TYR311     -0.0009
    181  CD2       24.0890   12.0920  -11.8580 C.ar  311  TYR311     -0.0009
    182  CE1       22.5540   11.2910   -9.6640 C.ar  311  TYR311      0.0417
    183  CE2       24.5570   12.3050  -10.5750 C.ar  311  TYR311      0.0417
    184  CZ        23.7740   11.9040   -9.4620 C.ar  311  TYR311      0.1957
    185  OH        24.2520   12.1280   -8.1760 O.3   311  TYR311     -0.2866
@<TRIPOS>BOND
     1   177   176    2
     2   176   175    1
     3   175   178    1
     4   175   174    1
     5   178   179    1
     6   174   165   am
     7   163   164    1
     8   165   166    2
     9   165   164    1
    10   179   181   ar
    11   179   180   ar
    12   135   136    1
    13   181   183   ar
    14   164   167    1
    15   129   130    1
    16   180   182   ar
    17   136   139    1
    18   136   137    1
    19   131   130    1
    20   131   132    2
    21   183   184   ar
    22   130   133    1
    23   167   168    1
    24   139   140    1
    25   182   184   ar
    26   137   144   am
    27   137   138    2
    28   168   169    1
    29   184   185    1
    30   124   123    2
    31   144   145    1
    32   133   134    1
    33   140   141    1
    34   121   122    1
    35   123   122    1
    36   141   142    1
    37   169   170    1
    38   122   125    1
    39   146   145    1
    40   146   147    2
    41   145   148    1
    42   170   171    2
    43   148   149    1
    44   142   143    1
    45   125   126    1
    46   128   126   am
    47   126   127    2
    48   149   150    1
    49   151   150   ar
    50   171   172    1
    51   171   173    1
    52   117   116    2
    53   150   152   ar
    54   116   115    1
    55   114   115    1
    56   115   118    1
    57    99   100   ar
    58    99    97   ar
    59   100    98   ar
    60   156   155    2
    61    97    95   ar
    62    72    71    1
    63    98    96   ar
    64   157   158    1
    65   157   154    1
    66   118   120    1
    67   118   119    1
    68   155   154    1
    69   160   158   ar
    70   160   162   ar
    71   153   154    1
    72     7     8    1
    73     7     6    1
    74    95    96   ar
    75    95    94    1
    76   158   159   ar
    77    71    70    2
    78    71    73    1
    79    70    69    1
    80   162   161   ar
    81    94    91    1
    82    68    69    1
    83    68    67    1
    84   159   161   ar
    85    24    23    2
    86     6     5    1
    87    67    64    1
    88   112   113    1
    89   112   109    1
    90    91    90    1
    91    91    92    1
    92    23    25   am
    93    23    22    1
    94    90    84   am
    95     5     2    1
    96    89    87   am
    97   110   111    2
    98   110   109    1
    99    88    87    2
   100    92    93    2
   101    66    65    2
   102    87    86    1
   103   109   108    1
   104    22    19    1
   105    64    65    1
   106    64    63    1
   107    84    83    1
   108    84    85    2
   109    83    86    1
   110    83    82    1
   111    77    76    2
   112     2     3    1
   113     2     1    1
   114     3     4    2
   115    32    31   ar
   116    62    60   ar
   117   108   103   am
   118    19    18    1
   119    19    20    1
   120    82    76   am
   121    76    75    1
   122    80    79    2
   123    21    20    2
   124    16    15   ar
   125    31    30    1
   126    31    33   ar
   127    81    79   am
   128    18    11   am
   129    60    59    1
   130    60    61   ar
   131    79    78    1
   132   103   104    2
   133   103   102    1
   134    30    27    1
   135   101   107    1
   136   101   102    1
   137    59    58    1
   138    78    75    1
   139   107   106    1
   140    75    74    1
   141    13    10    1
   142    13    14    1
   143    11    12    2
   144    11    10    1
   145    28    29    2
   146    28    27    1
   147    15    17   ar
   148    15    14    1
   149   102   105    1
   150    27    26    1
   151    58    55    1
   152    10     9    1
   153    40    39    1
   154   105   106    1
   155    53    52    1
   156    50    52   ar
   157    50    48   ar
   158    55    56    1
   159    55    54    1
   160    57    56    2
   161    52    51   ar
   162    48    47   ar
   163    41    39    1
   164    39    38    1
   165    38    35    1
   166    51    49   ar
   167    47    49   ar
   168    47    46    1
   169    43    42    1
   170    43    46    1
   171    43    44    1
   172    35    36    1
   173    35    34    1
   174    37    36    2
   175    45    44    2
