@<TRIPOS>MOLECULE
tmp/3v20A00.pdb
 112 109 0 0 0
SMALL
GASTEIGER

@<TRIPOS>ATOM
      1  N         16.8940   10.5200   76.7130 N.3    25  PHE25      -0.1241
      2  CA        18.2330   10.9170   76.3220 C.3    25  PHE25       0.1605
      3  C         19.1440   10.9870   77.5480 C.2    25  PHE25       0.2264
      4  O         20.2650   10.4640   77.5300 O.2    25  PHE25      -0.2867
      5  CB        18.1980   12.2570   75.5780 C.3    25  PHE25       0.0534
      6  CG        17.3760   12.2300   74.3110 C.ar   25  PHE25      -0.0203
      7  CD1       16.2160   12.9890   74.2020 C.ar   25  PHE25      -0.0042
      8  CD2       17.7650   11.4430   73.2210 C.ar   25  PHE25      -0.0042
      9  CE1       15.4590   12.9720   73.0260 C.ar   25  PHE25      -0.0003
     10  CE2       17.0110   11.4130   72.0540 C.ar   25  PHE25      -0.0003
     11  CZ        15.8550   12.1800   71.9560 C.ar   25  PHE25      -0.0000
     12  N         11.4430    3.0630   72.2410 N.3    74  GLY74      -0.1210
     13  CA        11.4930    3.3870   70.8100 C.3    74  GLY74       0.1956
     14  C         12.6180    4.3590   70.5010 C.2    74  GLY74       0.2612
     15  O         13.3350    4.2010   69.5020 O.2    74  GLY74      -0.2717
     16  N         12.7860    5.3540   71.3730 N.am   75  THR75      -0.1952
     17  CA        13.8500    6.3380   71.2220 C.3    75  THR75       0.1897
     18  C         15.2450    5.7480   71.4790 C.2    75  THR75       0.2313
     19  O         16.1760    5.9830   70.7000 O.2    75  THR75      -0.2863
     20  CB        13.6230    7.5670   72.1430 C.3    75  THR75       0.1794
     21  OG1       12.5050    8.2990   71.6510 O.3    75  THR75      -0.2208
     22  CG2       14.8370    8.4800   72.1400 C.3    75  THR75       0.0378
     23  N         16.3150    3.7150   68.4630 N.3    78  GLU78      -0.1231
     24  CA        16.6460    4.6240   67.3530 C.3    78  GLU78       0.1699
     25  C         17.9850    5.3530   67.5170 C.2    78  GLU78       0.2592
     26  O         18.7720    5.4150   66.5730 O.2    78  GLU78      -0.2718
     27  CB        15.5230    5.6230   67.1190 C.3    78  GLU78       0.0402
     28  CG        14.3000    5.0150   66.4500 C.3    78  GLU78       0.1161
     29  CD        13.0660    5.8960   66.5590 C.2    78  GLU78       0.3649
     30  OE1       13.1970    7.1140   66.8380 O.co2  78  GLU78      -0.2457
     31  OE2       11.9550    5.3630   66.3570 O.co2  78  GLU78      -0.2457
     32  N         18.2430    5.8900   68.7080 N.am   79  VAL79      -0.1980
     33  CA        19.5020    6.5820   68.9760 C.3    79  VAL79       0.1595
     34  C         20.6830    5.6090   68.8830 C.2    79  VAL79       0.2287
     35  O         21.7350    5.9700   68.3630 O.2    79  VAL79      -0.2864
     36  CB        19.4990    7.3260   70.3420 C.3    79  VAL79       0.0276
     37  CG1       20.8290    8.0170   70.5700 C.3    79  VAL79       0.0022
     38  CG2       18.3870    8.3660   70.3900 C.3    79  VAL79       0.0022
     39  N         19.5030    9.4080   60.5360 N.3   101  LYS101     -0.1231
     40  CA        18.3250    9.2390   61.3720 C.3   101  LYS101      0.1693
     41  C         17.3950   10.4340   61.1440 C.2   101  LYS101      0.2592
     42  O         17.7630   11.5750   61.4190 O.2   101  LYS101     -0.2718
     43  CB        18.7410    9.1220   62.8450 C.3   101  LYS101      0.0285
     44  CG        17.5960    9.0700   63.8620 C.3   101  LYS101      0.0035
     45  CD        16.6880    7.8850   63.6270 C.3   101  LYS101      0.0206
     46  CE        15.3840    7.9790   64.4460 C.3   101  LYS101      0.1093
     47  NZ        14.4420    9.0030   63.9410 N.3   101  LYS101     -0.1314
     48  N         16.1920   10.1630   60.6440 N.am  102  MET102     -0.1966
     49  CA        15.2430   11.2120   60.2760 C.3   102  MET102      0.1721
     50  C         14.2760   11.5590   61.4110 C.2   102  MET102      0.2458
     51  O         13.9130   10.6940   62.2020 O.2   102  MET102     -0.2730
     52  CB        14.4570   10.7980   59.0400 C.3   102  MET102      0.0427
     53  CG        15.3080   10.4880   57.8090 C.3   102  MET102      0.0599
     54  SD        16.0680   11.9410   57.0650 S.3   102  MET102     -0.1393
     55  CE        14.6780   12.6820   56.2070 C.3   102  MET102      0.0692
     56  N         13.8760   12.8420   61.5130 N.am  103  PRO103     -0.2716
     57  CA        12.8870   13.2290   62.5200 C.3   103  PRO103      0.1536
     58  C         11.4540   12.9860   61.9970 C.2   103  PRO103      0.2598
     59  O         11.2780   12.4010   60.9280 O.2   103  PRO103     -0.2715
     60  CB        13.1690   14.7150   62.7100 C.3   103  PRO103      0.0310
     61  CG        13.6210   15.1720   61.3440 C.3   103  PRO103      0.0237
     62  CD        14.2580   13.9850   60.6540 C.3   103  PRO103      0.0939
     63  N         10.4420   13.4240   62.7370 N.am  104  ASN104     -0.1973
     64  CA         9.0650   13.2720   62.2710 C.3   104  ASN104      0.1688
     65  C          8.7090   14.1640   61.0720 C.2   104  ASN104      0.2292
     66  O          9.4090   15.1350   60.7780 O.2   104  ASN104     -0.2864
     67  CB         8.0490   13.3660   63.4270 C.3   104  ASN104      0.1181
     68  CG         7.7490   14.7940   63.8600 C.2   104  ASN104      0.2629
     69  OD1        7.4430   15.6640   63.0430 O.2   104  ASN104     -0.2716
     70  ND2        7.7780   15.0260   65.1690 N.am  104  ASN104     -0.0877
     71  N          7.6600    9.4570   58.2740 N.3   142  ASN142     -0.1226
     72  CA         9.0560    9.5750   57.7680 C.3   142  ASN142      0.1770
     73  C          9.8160    8.2600   57.9480 C.2   142  ASN142      0.2439
     74  O          9.6640    7.6080   58.9850 O.2   142  ASN142     -0.2733
     75  CB         9.8140   10.6740   58.5320 C.3   142  ASN142      0.1168
     76  CG        10.0280   11.9580   57.7210 C.2   142  ASN142      0.2627
     77  OD1        9.5410   12.1120   56.6070 O.2   142  ASN142     -0.2716
     78  ND2       10.7750   12.8890   58.3010 N.am  142  ASN142     -0.0877
     79  N         10.6360    7.8570   56.9570 N.am  143  PRO143     -0.2718
     80  CA        11.4400    6.6620   57.2160 C.3   143  PRO143      0.1535
     81  C         12.3870    6.9300   58.3960 C.2   143  PRO143      0.2598
     82  O         12.8190    8.0800   58.5750 O.2   143  PRO143     -0.2715
     83  CB        12.2430    6.4780   55.9190 C.3   143  PRO143      0.0310
     84  CG        11.6650    7.4150   54.9360 C.3   143  PRO143      0.0237
     85  CD        11.0240    8.5140   55.6980 C.3   143  PRO143      0.0939
     86  N         12.6880    5.9070   59.1990 N.am  144  ASP144     -0.1972
     87  CA        13.6300    6.0650   60.3230 C.3   144  ASP144      0.1709
     88  C         15.0690    6.3940   59.9240 C.2   144  ASP144      0.2293
     89  O         15.6710    7.3110   60.4940 O.2   144  ASP144     -0.2864
     90  CB        13.6160    4.8400   61.2230 C.3   144  ASP144      0.1436
     91  CG        12.2970    4.6690   61.9290 C.2   144  ASP144      0.3671
     92  OD1       11.7330    5.6930   62.3920 O.co2 144  ASP144     -0.2456
     93  OD2       11.8120    3.5190   62.0100 O.co2 144  ASP144     -0.2456
     94  N         21.3980   13.3840   65.6340 N.3   174  LEU174     -0.1245
     95  CA        19.9770   13.6670   65.4320 C.3   174  LEU174      0.1561
     96  C         19.6700   14.9810   64.6780 C.2   174  LEU174      0.2260
     97  O         18.4980   15.2900   64.4340 O.2   174  LEU174     -0.2867
     98  CB        19.2060   13.5950   66.7630 C.3   174  LEU174      0.0270
     99  CG        19.2250   12.2500   67.5120 C.3   174  LEU174      0.0019
    100  CD1       18.3380   12.2640   68.7510 C.3   174  LEU174      0.0001
    101  CD2       18.8080   11.1140   66.6090 C.3   174  LEU174      0.0001
    102  N         20.3640   15.4220   59.3970 N.3   177  PHE177     -0.1241
    103  CA        19.3700   15.6540   58.3430 C.3   177  PHE177      0.1605
    104  C         19.3560   17.1000   57.8430 C.2   177  PHE177      0.2264
    105  O         19.1500   17.3480   56.6450 O.2   177  PHE177     -0.2867
    106  CB        17.9700   15.2480   58.8070 C.3   177  PHE177      0.0534
    107  CG        17.3360   16.1980   59.8070 C.ar  177  PHE177     -0.0203
    108  CD1       17.4410   15.9660   61.1800 C.ar  177  PHE177     -0.0042
    109  CD2       16.5950   17.3020   59.3740 C.ar  177  PHE177     -0.0042
    110  CE1       16.8360   16.8410   62.1160 C.ar  177  PHE177     -0.0003
    111  CE2       15.9970   18.1860   60.2960 C.ar  177  PHE177     -0.0003
    112  CZ        16.1140   17.9460   61.6720 C.ar  177  PHE177     -0.0000
@<TRIPOS>BOND
     1    84    85    1
     2    84    83    1
     3    85    79    1
     4    83    80    1
     5    55    54    1
     6    77    76    2
     7   105   104    2
     8    79    80    1
     9    79    73   am
    10    54    53    1
    11    80    81    1
    12    76    78   am
    13    76    75    1
    14    72    73    1
    15    72    71    1
    16    72    75    1
    17    53    52    1
    18   104   103    1
    19    73    74    2
    20   103   106    1
    21   103   102    1
    22    81    82    2
    23    81    86   am
    24   106   107    1
    25    52    49    1
    26    86    87    1
    27   109   107   ar
    28   109   111   ar
    29   107   108   ar
    30    88    87    1
    31    88    89    2
    32    49    48    1
    33    49    50    1
    34   111   112   ar
    35    87    90    1
    36    39    40    1
    37    48    41   am
    38    62    61    1
    39    62    56    1
    40    66    65    2
    41    59    58    2
    42    65    64    1
    43    41    40    1
    44    41    42    2
    45   108   110   ar
    46    90    91    1
    47    61    60    1
    48    40    43    1
    49    50    56   am
    50    50    51    2
    51    56    57    1
    52   112   110   ar
    53    91    93   ar
    54    91    92   ar
    55    58    57    1
    56    58    63   am
    57    64    63    1
    58    64    67    1
    59    57    60    1
    60    43    44    1
    61    69    68    2
    62    67    68    1
    63    45    44    1
    64    45    46    1
    65    68    70   am
    66    47    46    1
    67    97    96    2
    68    96    95    1
    69    95    94    1
    70    95    98    1
    71    31    29   ar
    72    28    29    1
    73    28    27    1
    74    29    30   ar
    75    26    25    2
    76   101    99    1
    77    98    99    1
    78    27    24    1
    79    24    25    1
    80    24    23    1
    81    99   100    1
    82    25    32   am
    83    35    34    2
    84    32    33    1
    85    34    33    1
    86    33    36    1
    87    15    14    2
    88    36    38    1
    89    36    37    1
    90    14    13    1
    91    14    16   am
    92    19    18    2
    93    13    12    1
    94    17    16    1
    95    17    18    1
    96    17    20    1
    97    21    20    1
    98    11    10   ar
    99    11     9   ar
   100    10     8   ar
   101    22    20    1
   102     9     7   ar
   103     8     6   ar
   104     7     6   ar
   105     6     5    1
   106     5     2    1
   107     2     1    1
   108     2     3    1
   109     4     3    2
