@<TRIPOS>MOLECULE
tmp/3v2bA00.pdb
 184 176 0 0 0
SMALL
GASTEIGER

@<TRIPOS>ATOM
      1  N         13.5680   11.7470    2.8620 N.3    22  GLY22      -0.1210
      2  CA        14.9340   12.1670    2.9350 C.3    22  GLY22       0.1956
      3  C         15.1710   13.6240    2.6530 C.2    22  GLY22       0.2612
      4  O         14.2470   14.3980    2.4070 O.2    22  GLY22      -0.2717
      5  N         16.4440   13.9530    2.7130 N.am   23  ASP23      -0.1959
      6  CA        16.9830   15.2590    2.3120 C.3    23  ASP23       0.1840
      7  C         17.8650   14.9040    1.1360 C.2    23  ASP23       0.2621
      8  O         18.8420   14.1720    1.2940 O.2    23  ASP23      -0.2715
      9  CB        17.7720   15.8670    3.4920 C.3    23  ASP23       0.1450
     10  CG        18.5340   17.1370    3.1240 C.2    23  ASP23       0.3671
     11  OD1       19.1250   17.7040    4.0730 O.co2  23  ASP23      -0.2456
     12  OD2       18.5900   17.5650    1.9280 O.co2  23  ASP23      -0.2456
     13  N         17.4540   15.3340   -0.0600 N.am   24  ILE24      -0.1977
     14  CA        18.1750   15.0090   -1.3010 C.3    24  ILE24       0.1596
     15  C         19.6410   15.4780   -1.2340 C.2    24  ILE24       0.2287
     16  O         20.4990   14.9160   -1.9020 O.2    24  ILE24      -0.2864
     17  CB        17.4080   15.6200   -2.5490 C.3    24  ILE24       0.0276
     18  CG1       17.7320   14.8770   -3.8620 C.3    24  ILE24       0.0022
     19  CG2       17.6220   17.1460   -2.6520 C.3    24  ILE24       0.0022
     20  CD1       16.8090   15.2810   -5.0410 C.3    24  ILE24       0.0001
     21  N         14.8010   21.3920   -8.3790 N.3    35  SER35      -0.1202
     22  CA        13.5790   21.9710   -8.9140 C.3    35  SER35       0.2020
     23  C         13.5700   23.4300   -8.4580 C.2    35  SER35       0.2619
     24  O         13.5510   23.6890   -7.2420 O.2    35  SER35      -0.2717
     25  CB        12.3490   21.2450   -8.4040 C.3    35  SER35       0.2103
     26  OG        11.1720   21.6430   -9.0690 O.3    35  SER35      -0.2182
     27  N         13.5410   24.3500   -9.4320 N.am   36  THR36      -0.1938
     28  CA        13.7820   25.7570   -9.2010 C.3    36  THR36       0.2028
     29  C         12.8780   26.6760  -10.0800 C.2    36  THR36       0.2642
     30  O         11.8940   26.2040  -10.7130 O.2    36  THR36      -0.2714
     31  CB        15.2940   26.0550   -9.3300 C.3    36  THR36       0.1808
     32  OG1       15.5680   27.4100   -8.9040 O.3    36  THR36      -0.2208
     33  CG2       15.8250   25.7700  -10.7330 C.3    36  THR36       0.0379
     34  N         13.1470   27.9800  -10.0460 N.am   37  ALA37      -0.1963
     35  CA        12.3990   28.9370  -10.8700 C.3    37  ALA37       0.1728
     36  C         12.8600   28.8490  -12.3340 C.2    37  ALA37       0.2616
     37  O         13.9630   28.3760  -12.6010 O.2    37  ALA37      -0.2715
     38  CB        12.5560   30.3870  -10.3060 C.3    37  ALA37       0.0334
     39  N         12.0160   29.2840  -13.2790 N.am   38  ARG38      -0.1977
     40  CA        12.4180   29.3860  -14.7190 C.3    38  ARG38       0.1597
     41  C         13.7820   30.0700  -14.9080 C.2    38  ARG38       0.2287
     42  O         14.5940   29.6360  -15.7320 O.2    38  ARG38      -0.2864
     43  CB        11.4040   30.1850  -15.5540 C.3    38  ARG38       0.0334
     44  CG         9.9470   29.7860  -15.4060 C.3    38  ARG38       0.0492
     45  CD         9.3480   29.0570  -16.6100 C.3    38  ARG38       0.2205
     46  NE         7.8870   29.0310  -16.4620 N.pl3  38  ARG38      -0.0865
     47  CZ         7.2180   28.2850  -15.5770 C.cat  38  ARG38       0.5346
     48  NH1        7.8760   27.4780  -14.7420 N.pl3  38  ARG38       0.1354
     49  NH2        5.8850   28.3470  -15.5110 N.pl3  38  ARG38       0.1354
     50  N         16.6120   30.7910   -7.5150 N.3    42  ARG42      -0.1245
     51  CA        15.8250   30.5030   -6.3200 C.3    42  ARG42       0.1563
     52  C         16.7020   29.7730   -5.2950 C.2    42  ARG42       0.2260
     53  O         17.5450   28.9310   -5.6480 O.2    42  ARG42      -0.2867
     54  CB        14.5880   29.7030   -6.7090 C.3    42  ARG42       0.0307
     55  CG        13.5700   29.5170   -5.6110 C.3    42  ARG42       0.0489
     56  CD        12.4680   28.5520   -6.0380 C.3    42  ARG42       0.2205
     57  NE        11.8910   27.7980   -4.9150 N.pl3  42  ARG42      -0.0865
     58  CZ        10.9360   28.2370   -4.0830 C.cat  42  ARG42       0.5346
     59  NH1       10.4930   27.4390   -3.1090 N.pl3  42  ARG42       0.1354
     60  NH2       10.4190   29.4590   -4.2200 N.pl3  42  ARG42       0.1354
     61  N         15.3870   28.3160   -1.9630 N.3    44  SER44      -0.1202
     62  CA        14.2900   28.1380   -1.0200 C.3    44  SER44       0.2020
     63  C         13.6630   26.7580   -1.2960 C.2    44  SER44       0.2619
     64  O         13.5980   26.3280   -2.4370 O.2    44  SER44      -0.2717
     65  CB        13.2860   29.2660   -1.2180 C.3    44  SER44       0.2103
     66  OG        12.1640   29.0580   -0.4060 O.3    44  SER44      -0.2182
     67  N         13.2430   26.0530   -0.2550 N.am   45  GLY45      -0.1942
     68  CA        12.7830   24.6660   -0.4180 C.3    45  GLY45       0.2014
     69  C         13.9620   23.8120   -0.8750 C.2    45  GLY45       0.2638
     70  O         15.1040   23.9990   -0.3910 O.2    45  GLY45      -0.2714
     71  N         13.7210   22.9150   -1.8360 N.am   46  VAL46      -0.1977
     72  CA        14.7460   21.9870   -2.2590 C.3    46  VAL46       0.1596
     73  C         15.9570   22.6900   -2.8810 C.2    46  VAL46       0.2287
     74  O         17.0690   22.2150   -2.7190 O.2    46  VAL46      -0.2864
     75  CB        14.1950   20.8640   -3.2050 C.3    46  VAL46       0.0276
     76  CG1       13.8260   21.4240   -4.5750 C.3    46  VAL46       0.0022
     77  CG2       15.2120   19.7120   -3.3110 C.3    46  VAL46       0.0022
     78  N         17.3250   25.5910   -1.8930 N.3    48  ARG48      -0.1231
     79  CA        18.1670   25.9160   -0.7270 C.3    48  ARG48       0.1694
     80  C         19.0270   24.7300   -0.3060 C.2    48  ARG48       0.2591
     81  O         20.2610   24.8370   -0.2000 O.2    48  ARG48      -0.2718
     82  CB        17.3100   26.4100    0.4690 C.3    48  ARG48       0.0321
     83  CG        18.1580   26.9930    1.6080 C.3    48  ARG48       0.0489
     84  CD        17.5570   26.7380    2.9750 C.3    48  ARG48       0.2205
     85  NE        17.3910   25.2860    3.2250 N.pl3  48  ARG48      -0.0865
     86  CZ        18.3590   24.4210    3.5670 C.cat  48  ARG48       0.5346
     87  NH1       18.0630   23.1240    3.7420 N.pl3  48  ARG48       0.1354
     88  NH2       19.6170   24.8180    3.7290 N.pl3  48  ARG48       0.1354
     89  N         18.3900   23.5800   -0.0700 N.am   49  ALA49      -0.1980
     90  CA        19.1370   22.3870    0.4080 C.3    49  ALA49       0.1597
     91  C         20.2140   22.0820   -0.6200 C.2    49  ALA49       0.2287
     92  O         21.3560   21.8730   -0.2700 O.2    49  ALA49      -0.2864
     93  CB        18.2000   21.1680    0.6190 C.3    49  ALA49       0.0319
     94  N         10.2920   23.9640  -11.9210 N.3    91  GLY91      -0.1210
     95  CA         9.3110   23.1680  -11.2430 C.3    91  GLY91       0.1956
     96  C          7.9300   23.5220  -11.7090 C.2    91  GLY91       0.2612
     97  O          6.9870   22.8040  -11.4140 O.2    91  GLY91      -0.2717
     98  N          7.7920   24.6280  -12.4420 N.am   92  GLY92      -0.1956
     99  CA         6.4760   25.0100  -12.9360 C.3    92  GLY92       0.1869
    100  C          6.1410   24.3950  -14.2730 C.2    92  GLY92       0.2309
    101  O          4.9840   24.4190  -14.6620 O.2    92  GLY92      -0.2863
    102  N         13.6890   15.4340   -6.4620 N.3   117  PRO117     -0.2102
    103  CA        12.6220   15.6890   -5.4860 C.3   117  PRO117      0.1504
    104  C         11.2270   15.4900   -6.1050 C.2   117  PRO117      0.2576
    105  O         11.1030   15.1530   -7.2860 O.2   117  PRO117     -0.2718
    106  CB        12.8240   17.1460   -5.1760 C.3   117  PRO117      0.0282
    107  CG        13.2880   17.7280   -6.4740 C.3   117  PRO117      0.0208
    108  CD        13.9990   16.6480   -7.2280 C.3   117  PRO117      0.0893
    109  N         10.1900   15.7170   -5.3150 N.am  118  ALA118     -0.1966
    110  CA         8.8420   15.7240   -5.8150 C.3   118  ALA118      0.1728
    111  C          8.6500   17.0880   -6.5290 C.2   118  ALA118      0.2616
    112  O          8.0760   18.0280   -5.9690 O.2   118  ALA118     -0.2715
    113  CB         7.8590   15.5550   -4.6750 C.3   118  ALA118      0.0334
    114  N          9.1450   17.1610   -7.7560 N.am  119  ILE119     -0.1963
    115  CA         9.1290   18.3840   -8.5610 C.3   119  ILE119      0.1727
    116  C          7.7630   19.0190   -8.6120 C.2   119  ILE119      0.2617
    117  O          6.7850   18.3680   -8.8870 O.2   119  ILE119     -0.2715
    118  CB         9.6850   18.1200   -9.9940 C.3   119  ILE119      0.0290
    119  CG1       11.1070   17.5750   -9.9270 C.3   119  ILE119      0.0022
    120  CG2        9.6930   19.3790  -10.8670 C.3   119  ILE119      0.0023
    121  CD1       11.5450   16.9330  -11.2060 C.3   119  ILE119      0.0001
    122  N          7.6950   20.3020   -8.2630 N.am  120  GLY120     -0.1940
    123  CA         6.4820   21.1110   -8.3820 C.3   120  GLY120      0.2014
    124  C          5.4860   21.0840   -7.2630 C.2   120  GLY120      0.2640
    125  O          4.4850   21.8100   -7.3120 O.2   120  GLY120     -0.2714
    126  N          5.7460   20.2800   -6.2320 N.am  121  THR121     -0.1936
    127  CA         4.7740   20.1050   -5.1860 C.3   121  THR121      0.2028
    128  C          5.0110   21.0570   -3.9880 C.2   121  THR121      0.2643
    129  O          4.3890   20.8760   -2.9230 O.2   121  THR121     -0.2714
    130  CB         4.7940   18.6520   -4.6870 C.3   121  THR121      0.1808
    131  OG1        6.1100   18.3660   -4.1670 O.3   121  THR121     -0.2208
    132  CG2        4.4250   17.6680   -5.8490 C.3   121  THR121      0.0379
    133  N          5.9090   22.0250   -4.1210 N.am  122  GLY122     -0.1939
    134  CA         6.0820   23.0600   -3.0800 C.3   122  GLY122      0.2014
    135  C          5.5530   24.4210   -3.5240 C.2   122  GLY122      0.2639
    136  O          4.3540   24.5830   -3.7340 O.2   122  GLY122     -0.2714
    137  N          6.4490   25.3870   -3.7160 N.am  123  ASN123     -0.1958
    138  CA         6.0670   26.7380   -4.1810 C.3   123  ASN123      0.1819
    139  C          5.3670   26.7160   -5.5390 C.2   123  ASN123      0.2621
    140  O          4.5000   27.5320   -5.7670 O.2   123  ASN123     -0.2715
    141  CB         7.3220   27.6350   -4.2510 C.3   123  ASN123      0.1195
    142  CG         6.9980   29.1320   -4.3270 C.2   123  ASN123      0.2630
    143  OD1        6.4300   29.7010   -3.3780 O.2   123  ASN123     -0.2716
    144  ND2        7.3730   29.7810   -5.4400 N.am  123  ASN123     -0.0877
    145  N          5.7110   25.7890   -6.4470 N.am  124  ALA124     -0.1977
    146  CA         5.0040   25.7110   -7.7560 C.3   124  ALA124      0.1597
    147  C          3.5150   25.3880   -7.5790 C.2   124  ALA124      0.2287
    148  O          2.7000   25.6610   -8.4520 O.2   124  ALA124     -0.2864
    149  CB         5.6360   24.6700   -8.6730 C.3   124  ALA124      0.0319
    150  N         13.3270   11.4370   -3.7320 N.3   157  VAL157     -0.1245
    151  CA        13.5510   11.7470   -2.3120 C.3   157  VAL157      0.1561
    152  C         12.4050   12.6630   -1.8720 C.2   157  VAL157      0.2260
    153  O         12.1180   13.7240   -2.5010 O.2   157  VAL157     -0.2867
    154  CB        14.9290   12.3700   -2.0900 C.3   157  VAL157      0.0252
    155  CG1       15.1410   12.8110   -0.6460 C.3   157  VAL157      0.0019
    156  CG2       16.0170   11.4200   -2.5570 C.3   157  VAL157      0.0019
    157  N         10.5210   14.8980    1.0840 N.3   159  PHE159     -0.1227
    158  CA        10.7980   15.6850    2.3180 C.3   159  PHE159      0.1736
    159  C          9.5350   15.7940    3.1880 C.2   159  PHE159      0.2595
    160  O          9.6350   15.7440    4.3970 O.2   159  PHE159     -0.2718
    161  CB        11.3540   17.0770    1.9560 C.3   159  PHE159      0.0547
    162  CG        11.9770   17.8110    3.1130 C.ar  159  PHE159     -0.0202
    163  CD1       13.3110   17.5560    3.4960 C.ar  159  PHE159     -0.0042
    164  CD2       11.2420   18.7840    3.8170 C.ar  159  PHE159     -0.0042
    165  CE1       13.8880   18.2100    4.5880 C.ar  159  PHE159     -0.0003
    166  CE2       11.8130   19.4520    4.9390 C.ar  159  PHE159     -0.0003
    167  CZ        13.1470   19.1640    5.3120 C.ar  159  PHE159     -0.0000
    168  N          8.3680   15.9460    2.5570 N.am  160  GLN160     -0.1979
    169  CA         7.0720   15.9760    3.2400 C.3   160  GLN160      0.1601
    170  C          6.5360   14.5620    3.3220 C.2   160  GLN160      0.2287
    171  O          6.0990   14.0230    2.3210 O.2   160  GLN160     -0.2864
    172  CB         6.0470   16.8200    2.4780 C.3   160  GLN160      0.0394
    173  CG         6.3850   18.2530    2.3210 C.3   160  GLN160      0.0908
    174  CD         5.3590   18.9760    1.4530 C.2   160  GLN160      0.2608
    175  OE1        4.2320   19.2460    1.8990 O.2   160  GLN160     -0.2717
    176  NE2        5.7430   19.3010    0.2020 N.am  160  GLN160     -0.0878
    177  N          3.5720   12.9890    1.4200 N.3   163  LEU163     -0.1245
    178  CA         3.5990   12.6520    0.0110 C.3   163  LEU163      0.1561
    179  C          4.0400   11.2340   -0.2650 C.2   163  LEU163      0.2260
    180  O          3.8820   10.7570   -1.3880 O.2   163  LEU163     -0.2867
    181  CB         4.4910   13.5900   -0.7840 C.3   163  LEU163      0.0270
    182  CG         4.2160   15.0850   -0.6330 C.3   163  LEU163      0.0019
    183  CD1        5.1700   15.8390   -1.5980 C.3   163  LEU163      0.0001
    184  CD2        2.7460   15.4570   -0.8680 C.3   163  LEU163      0.0001
@<TRIPOS>BOND
     1    45    46    1
     2    45    44    1
     3    46    47    2
     4    42    41    2
     5    47    49    1
     6    47    48    1
     7    43    44    1
     8    43    40    1
     9    41    40    1
    10    40    39    1
    11   101   100    2
    12   100    99    1
    13    39    36   am
    14    99    98    1
    15    37    36    2
    16    98    96   am
    17    36    35    1
    18    94    95    1
    19    96    97    2
    20    96    95    1
    21   121   119    1
    22    35    38    1
    23    35    34    1
    24   120   118    1
    25    33    31    1
    26    30    29    2
    27    29    34   am
    28    29    28    1
    29   118   119    1
    30   118   115    1
    31    27    28    1
    32    27    23   am
    33    31    28    1
    34    31    32    1
    35    26    25    1
    36    22    23    1
    37    22    25    1
    38    22    21    1
    39   117   116    2
    40   149   146    1
    41   116   115    1
    42   116   122   am
    43   115   114    1
    44    23    24    2
    45   148   147    2
    46   123   122    1
    47   123   124    1
    48   114   111   am
    49   146   147    1
    50   146   145    1
    51    50    51    1
    52   125   124    2
    53   105   104    2
    54   124   126   am
    55   108   107    1
    56   108   102    1
    57    54    51    1
    58    54    55    1
    59   111   112    2
    60   111   110    1
    61   107   106    1
    62   102   103    1
    63   145   139   am
    64    51    52    1
    65   126   127    1
    66   104   103    1
    67   104   109   am
    68    56    55    1
    69    56    57    1
    70   132   130    1
    71   110   109    1
    72   110   113    1
    73   140   139    2
    74    53    52    2
    75   139   138    1
    76   103   106    1
    77   144   142   am
    78   127   130    1
    79   127   128    1
    80    20    18    1
    81    57    58    2
    82   130   131    1
    83    76    75    1
    84   142   141    1
    85   142   143    2
    86   141   138    1
    87    60    58    1
    88   138   137    1
    89   133   128   am
    90   133   134    1
    91    58    59    1
    92   128   129    2
    93    18    17    1
    94   136   135    2
    95   150   151    1
    96   137   135   am
    97   135   134    1
    98    77    75    1
    99    75    72    1
   100    73    74    2
   101    73    72    1
   102    19    17    1
   103   156   154    1
   104    17    14    1
   105   153   152    2
   106    64    63    2
   107   151   154    1
   108   151   152    1
   109    72    71    1
   110   154   155    1
   111    61    62    1
   112    16    15    2
   113    78    79    1
   114    71    69   am
   115   183   182    1
   116   180   179    2
   117    14    15    1
   118    14    13    1
   119    63    62    1
   120    63    67   am
   121    65    62    1
   122    65    66    1
   123    69    68    1
   124    69    70    2
   125   184   182    1
   126   181   182    1
   127   181   178    1
   128    79    80    1
   129    79    82    1
   130    91    92    2
   131    91    90    1
   132    68    67    1
   133    80    81    2
   134    80    89   am
   135   179   178    1
   136    89    90    1
   137    13     7   am
   138   178   177    1
   139   176   174   am
   140    90    93    1
   141    82    83    1
   142   157   158    1
   143     7     8    2
   144     7     6    1
   145   174   175    2
   146   174   173    1
   147    83    84    1
   148    12    10   ar
   149   161   158    1
   150   161   162    1
   151     6     5    1
   152     6     9    1
   153   158   159    1
   154   173   172    1
   155   171   170    2
   156     4     3    2
   157   172   169    1
   158   168   159   am
   159   168   169    1
   160     3     5   am
   161     3     2    1
   162     1     2    1
   163    84    85    1
   164   162   163   ar
   165   162   164   ar
   166    10     9    1
   167    10    11   ar
   168   159   160    2
   169    85    86    2
   170   169   170    1
   171   163   165   ar
   172    86    88    1
   173    86    87    1
   174   164   166   ar
   175   165   167   ar
   176   166   167   ar
