@<TRIPOS>MOLECULE
tmp/3v2lA00.pdb
 162 151 0 0 0
SMALL
GASTEIGER

@<TRIPOS>ATOM
      1  N          5.4540    4.8250  -24.8360 N.3     6  MET6       -0.1230
      2  CA         4.6680    5.1040  -23.6270 C.3     6  MET6        0.1702
      3  C          3.2030    5.2240  -23.9900 C.2     6  MET6        0.2592
      4  O          2.3420    4.6100  -23.3350 O.2     6  MET6       -0.2718
      5  CB         5.1250    6.3930  -22.8970 C.3     6  MET6        0.0401
      6  CG         4.3080    6.7050  -21.6090 C.3     6  MET6        0.0596
      7  SD         4.3650    8.3860  -20.8730 S.3     6  MET6       -0.1393
      8  CE         3.5420    9.3800  -22.1220 C.3     6  MET6        0.0692
      9  N          2.9180    6.0180  -25.0230 N.am    7  MET7       -0.1979
     10  CA         1.5450    6.2520  -25.4720 C.3     7  MET7        0.1605
     11  C          0.8730    4.9480  -25.9010 C.2     7  MET7        0.2287
     12  O         -0.3200    4.7530  -25.6600 O.2     7  MET7       -0.2864
     13  CB         1.4960    7.2980  -26.5950 C.3     7  MET7        0.0413
     14  CG         1.4950    8.7480  -26.1020 C.3     7  MET7        0.0598
     15  SD         1.7270    9.9970  -27.3990 S.3     7  MET7       -0.1393
     16  CE         0.5710    9.4280  -28.6480 C.3     7  MET7        0.0692
     17  N          0.4140    2.7910  -22.6150 N.3    10  GLY10      -0.1210
     18  CA        -0.7100    3.4100  -21.9250 C.3    10  GLY10       0.1956
     19  C         -2.0610    3.0830  -22.5490 C.2    10  GLY10       0.2611
     20  O         -3.0260    2.8090  -21.8420 O.2    10  GLY10      -0.2717
     21  N         -2.1440    3.1200  -23.8710 N.am   11  GLU11      -0.1979
     22  CA        -3.3970    2.7590  -24.5460 C.3    11  GLU11       0.1602
     23  C         -3.7560    1.2850  -24.3050 C.2    11  GLU11       0.2287
     24  O         -4.9310    0.9660  -24.0970 O.2    11  GLU11      -0.2864
     25  CB        -3.4010    3.1640  -26.0370 C.3    11  GLU11       0.0415
     26  CG        -4.7190    2.8260  -26.8020 C.3    11  GLU11       0.1163
     27  CD        -5.9650    3.4260  -26.1370 C.2    11  GLU11       0.3649
     28  OE1       -6.9380    2.6690  -25.8860 O.co2  11  GLU11      -0.2457
     29  OE2       -5.9580    4.6460  -25.8360 O.co2  11  GLU11      -0.2457
     30  N         -2.8720   -0.5960  -21.6180 N.3    13  ILE13      -0.1245
     31  CA        -3.2820   -0.7480  -20.2210 C.3    13  ILE13       0.1561
     32  C         -4.6900   -0.1680  -20.0360 C.2    13  ILE13       0.2260
     33  O         -5.5270   -0.8090  -19.4080 O.2    13  ILE13      -0.2867
     34  CB        -2.2850   -0.0940  -19.2290 C.3    13  ILE13       0.0252
     35  CG1       -0.9170   -0.7920  -19.2790 C.3    13  ILE13       0.0019
     36  CG2       -2.8360   -0.1410  -17.8120 C.3    13  ILE13       0.0019
     37  CD1        0.2440    0.0390  -18.6660 C.3    13  ILE13       0.0001
     38  N         -7.1990   12.5990  -15.6080 N.3    32  ARG32      -0.1245
     39  CA        -6.1180   13.4450  -16.0790 C.3    32  ARG32       0.1563
     40  C         -6.3890   14.9250  -15.7930 C.2    32  ARG32       0.2260
     41  O         -5.5110   15.7560  -16.0110 O.2    32  ARG32      -0.2867
     42  CB        -5.8970   13.2460  -17.5770 C.3    32  ARG32       0.0307
     43  CG        -5.8140   11.7860  -18.0010 C.3    32  ARG32       0.0489
     44  CD        -5.2220   11.7070  -19.3740 C.3    32  ARG32       0.2205
     45  NE        -4.8590   10.3520  -19.7650 N.pl3  32  ARG32      -0.0865
     46  CZ        -4.4300   10.0200  -20.9830 C.cat  32  ARG32       0.5346
     47  NH1       -4.3210   10.9370  -21.9430 N.pl3  32  ARG32       0.1354
     48  NH2       -4.1230    8.7660  -21.2500 N.pl3  32  ARG32       0.1354
     49  N         -2.7820    0.0600  -11.7550 N.3    50  MET50      -0.1245
     50  CA        -1.6250   -0.0280  -10.8610 C.3    50  MET50       0.1570
     51  C         -1.1220   -1.4550  -10.6690 C.2    50  MET50       0.2261
     52  O          0.0620   -1.6720  -10.3950 O.2    50  MET50      -0.2867
     53  CB        -1.9380    0.6250   -9.5250 C.3    50  MET50       0.0387
     54  CG        -2.1260    2.1110   -9.6460 C.3    50  MET50       0.0595
     55  SD        -2.2720    2.8450   -8.0230 S.3    50  MET50      -0.1393
     56  CE        -2.2630    4.5950   -8.4100 C.3    50  MET50       0.0692
     57  N          0.8670   -2.1560  -13.9960 N.3    53  MET53      -0.1245
     58  CA         2.1010   -1.3780  -13.8970 C.3    53  MET53       0.1570
     59  C          3.0070   -1.8770  -12.7550 C.2    53  MET53       0.2261
     60  O          3.9780   -1.1960  -12.3990 O.2    53  MET53      -0.2867
     61  CB         1.7730    0.1010  -13.6190 C.3    53  MET53       0.0387
     62  CG         1.2070    0.9290  -14.7870 C.3    53  MET53       0.0595
     63  SD         2.4640    1.6220  -15.8890 S.3    53  MET53      -0.1393
     64  CE         3.4050    2.6830  -14.7860 C.3    53  MET53       0.0692
     65  N          2.7720   -1.6890   -9.7250 N.3    55  THR55      -0.1218
     66  CA         2.8650   -0.6390   -8.7230 C.3    55  THR55       0.1862
     67  C          2.2010   -1.0570   -7.4070 C.2    55  THR55       0.2287
     68  O          2.6700   -0.6980   -6.3300 O.2    55  THR55      -0.2866
     69  CB         2.2680    0.7060   -9.2750 C.3    55  THR55       0.1770
     70  OG1        3.2290    1.3400  -10.1260 O.3    55  THR55      -0.2211
     71  CG2        1.8860    1.6940   -8.1530 C.3    55  THR55       0.0375
     72  N          7.4590   -0.0850   -8.6660 N.3    66  SER66      -0.1217
     73  CA         6.8450    1.1060   -9.2740 C.3    66  SER66       0.1889
     74  C          7.8830    1.9760   -9.9670 C.2    66  SER66       0.2288
     75  O          7.7220    2.3390  -11.1300 O.2    66  SER66      -0.2866
     76  CB         6.1310    1.9590   -8.2260 C.3    66  SER66       0.2089
     77  OG         5.0730    1.2660   -7.6240 O.3    66  SER66      -0.2183
     78  N          7.9410    2.9770  -13.8300 N.3    70  ILE70      -0.1245
     79  CA         7.8890    4.4020  -14.2110 C.3    70  ILE70       0.1561
     80  C          9.0610    4.7610  -15.1450 C.2    70  ILE70       0.2260
     81  O          8.8850    5.3920  -16.1990 O.2    70  ILE70      -0.2867
     82  CB         7.9630    5.2910  -12.9430 C.3    70  ILE70       0.0252
     83  CG1        6.6540    5.2140  -12.1490 C.3    70  ILE70       0.0019
     84  CG2        8.2720    6.7550  -13.2820 C.3    70  ILE70       0.0019
     85  CD1        6.8130    5.6980  -10.6970 C.3    70  ILE70       0.0001
     86  N          8.7790    2.8380  -18.6610 N.3    73  ILE73      -0.1231
     87  CA         7.6510    3.2190  -19.4870 C.3    73  ILE73       0.1692
     88  C          7.6530    4.6950  -19.8670 C.2    73  ILE73       0.2591
     89  O          7.3580    5.0330  -21.0190 O.2    73  ILE73      -0.2718
     90  CB         6.3270    2.7710  -18.8430 C.3    73  ILE73       0.0266
     91  CG1        6.2930    1.2290  -18.8250 C.3    73  ILE73       0.0019
     92  CG2        5.1290    3.3390  -19.5990 C.3    73  ILE73       0.0020
     93  CD1        5.1120    0.6220  -18.0870 C.3    73  ILE73       0.0001
     94  N          8.0210    5.5620  -18.9230 N.am   74  MET74      -0.1979
     95  CA         7.9110    7.0100  -19.1220 C.3    74  MET74       0.1605
     96  C          9.2460    7.6120  -19.5480 C.2    74  MET74       0.2287
     97  O         10.2960    7.1650  -19.0800 O.2    74  MET74      -0.2864
     98  CB         7.4370    7.7000  -17.8250 C.3    74  MET74       0.0413
     99  CG         6.1280    7.1490  -17.2460 C.3    74  MET74       0.0598
    100  SD         5.6170    8.0750  -15.7780 S.3    74  MET74      -0.1393
    101  CE         4.8140    9.4820  -16.5320 C.3    74  MET74       0.0692
    102  N          7.2510   12.0450  -11.5860 N.3    82  MET82      -0.1245
    103  CA         6.4480   10.9350  -11.0570 C.3    82  MET82       0.1570
    104  C          7.1180   10.2700   -9.8560 C.2    82  MET82       0.2261
    105  O          6.4420    9.9810   -8.8550 O.2    82  MET82      -0.2867
    106  CB         6.0830    9.8730  -12.1250 C.3    82  MET82       0.0387
    107  CG         4.9830    8.9240  -11.6530 C.3    82  MET82       0.0595
    108  SD         3.3320    9.6460  -11.3940 S.3    82  MET82      -0.1393
    109  CE         2.8260    9.8540  -13.1040 C.3    82  MET82       0.0692
    110  N          5.7520    9.9370   -6.0700 N.3    86  LEU86      -0.1245
    111  CA         5.6770    8.6280   -5.3850 C.3    86  LEU86       0.1561
    112  C          6.3660    8.7090   -4.0190 C.2    86  LEU86       0.2260
    113  O          5.8560    8.1720   -3.0300 O.2    86  LEU86      -0.2867
    114  CB         6.2830    7.4940   -6.2450 C.3    86  LEU86       0.0270
    115  CG         6.2050    6.0560   -5.6860 C.3    86  LEU86       0.0019
    116  CD1        4.7700    5.5550   -5.7010 C.3    86  LEU86       0.0001
    117  CD2        7.0710    5.1620   -6.5850 C.3    86  LEU86       0.0001
    118  N         -0.7750   11.2470   -6.0150 N.3   110  LEU110     -0.1245
    119  CA         0.2060   11.4230   -7.0980 C.3   110  LEU110      0.1561
    120  C         -0.1210   12.6540   -7.9490 C.2   110  LEU110      0.2260
    121  O          0.7610   13.4180   -8.3200 O.2   110  LEU110     -0.2867
    122  CB         0.2680   10.1840   -7.9850 C.3   110  LEU110      0.0270
    123  CG         0.8420    8.9510   -7.2900 C.3   110  LEU110      0.0019
    124  CD1        0.6340    7.6680   -8.1590 C.3   110  LEU110      0.0001
    125  CD2        2.3220    9.1280   -6.9210 C.3   110  LEU110      0.0001
    126  N          1.6980   15.1640  -14.1270 N.3   117  PHE117     -0.1227
    127  CA         0.9360   13.9420  -13.9660 C.3   117  PHE117      0.1736
    128  C          0.2920   13.4820  -15.2610 C.2   117  PHE117      0.2595
    129  O         -0.2580   14.2990  -16.0340 O.2   117  PHE117     -0.2718
    130  CB        -0.1560   14.1570  -12.9090 C.3   117  PHE117      0.0547
    131  CG        -0.9660   12.9480  -12.6300 C.ar  117  PHE117     -0.0202
    132  CD1       -0.4720   11.9300  -11.8000 C.ar  117  PHE117     -0.0042
    133  CD2       -2.2390   12.8150  -13.1920 C.ar  117  PHE117     -0.0042
    134  CE1       -1.2460   10.8020  -11.5360 C.ar  117  PHE117     -0.0003
    135  CE2       -3.0080   11.6830  -12.9240 C.ar  117  PHE117     -0.0003
    136  CZ        -2.5040   10.6810  -12.1090 C.ar  117  PHE117     -0.0000
    137  N          0.4000   12.1770  -15.4980 N.am  118  ILE118     -0.1966
    138  CA        -0.3070   11.4840  -16.5830 C.3   118  ILE118      0.1727
    139  C         -0.6870   10.0710  -16.0940 C.2   118  ILE118      0.2616
    140  O         -0.1000    9.5770  -15.1360 O.2   118  ILE118     -0.2715
    141  CB         0.5580   11.4610  -17.8670 C.3   118  ILE118      0.0290
    142  CG1       -0.2630   10.9970  -19.0810 C.3   118  ILE118      0.0022
    143  CG2        1.8410   10.6650  -17.6330 C.3   118  ILE118      0.0023
    144  CD1        0.2850   11.4990  -20.4170 C.3   118  ILE118      0.0001
    145  N         -1.7070    9.4700  -16.7140 N.am  119  PHE119     -0.1960
    146  CA        -2.2390    8.1650  -16.3100 C.3   119  PHE119      0.1756
    147  C         -2.9650    7.5670  -17.5050 C.2   119  PHE119      0.2461
    148  O         -3.5700    8.3020  -18.2850 O.2   119  PHE119     -0.2730
    149  CB        -3.2240    8.3320  -15.1350 C.3   119  PHE119      0.0574
    150  CG        -3.5080    7.0590  -14.3690 C.ar  119  PHE119     -0.0200
    151  CD1       -2.5490    6.5070  -13.5170 C.ar  119  PHE119     -0.0042
    152  CD2       -4.7440    6.4160  -14.5010 C.ar  119  PHE119     -0.0042
    153  CE1       -2.8070    5.3370  -12.7910 C.ar  119  PHE119     -0.0003
    154  CE2       -5.0200    5.2310  -13.7870 C.ar  119  PHE119     -0.0003
    155  CZ        -4.0650    4.7050  -12.9230 C.ar  119  PHE119     -0.0000
    156  N         -2.9110    6.2320  -17.6650 N.am  120  PRO120     -0.2727
    157  CA        -3.5300    5.6170  -18.8430 C.3   120  PRO120      0.1402
    158  C         -5.0150    5.9800  -18.9600 C.2   120  PRO120      0.2269
    159  O         -5.7430    6.0310  -17.9490 O.2   120  PRO120     -0.2865
    160  CB        -3.3450    4.1190  -18.5880 C.3   120  PRO120      0.0296
    161  CG        -2.1640    4.0340  -17.7250 C.3   120  PRO120      0.0237
    162  CD        -2.2430    5.2240  -16.8190 C.3   120  PRO120      0.0939
@<TRIPOS>BOND
     1    16    15    1
     2    15    14    1
     3    26    27    1
     4    26    25    1
     5    13    14    1
     6    13    10    1
     7    27    28   ar
     8    27    29   ar
     9    25    22    1
    10    11    12    2
    11    11    10    1
    12    10     9    1
    13     9     3   am
    14     1     2    1
    15    22    23    1
    16    22    21    1
    17    23    24    2
    18     3     2    1
    19     3     4    2
    20    21    19   am
    21     2     5    1
    22     5     6    1
    23    17    18    1
    24    19    18    1
    25    19    20    2
    26     8     7    1
    27    47    46    1
    28    30    31    1
    29     6     7    1
    30    48    46    1
    31    89    88    2
    32    46    45    2
    33   144   142    1
    34    31    32    1
    35    31    34    1
    36    32    33    2
    37    88    87    1
    38    88    94   am
    39    45    44    1
    40    92    90    1
    41    96    95    1
    42    96    97    2
    43    87    90    1
    44    87    86    1
    45    44    43    1
    46    35    34    1
    47    35    37    1
    48    34    36    1
    49    95    94    1
    50    95    98    1
    51   142   141    1
    52   158   157    1
    53   158   159    2
    54    90    91    1
    55   157   160    1
    56   157   156    1
    57    91    93    1
    58   160   161    1
    59   148   147    2
    60    43    42    1
    61   141   143    1
    62   141   138    1
    63    98    99    1
    64   161   162    1
    65   156   147   am
    66   156   162    1
    67    42    39    1
    68   147   146    1
    69    99   100    1
    70   145   146    1
    71   145   139   am
    72   138   139    1
    73   138   137    1
    74   101   100    1
    75   146   149    1
    76    81    80    2
    77   139   140    2
    78    39    40    1
    79    39    38    1
    80   129   128    2
    81    41    40    2
    82    63    62    1
    83    63    64    1
    84   137   128   am
    85   128   127    1
    86    80    79    1
    87   149   150    1
    88    62    61    1
    89   152   150   ar
    90   152   154   ar
    91   150   151   ar
    92    79    78    1
    93    79    82    1
    94   126   127    1
    95    57    58    1
    96   127   130    1
    97    58    61    1
    98    58    59    1
    99   154   155   ar
   100   151   153   ar
   101    84    82    1
   102   133   135   ar
   103   133   131   ar
   104   109   108    1
   105    82    83    1
   106   135   136   ar
   107   155   153   ar
   108   130   131    1
   109    59    60    2
   110   131   132   ar
   111    83    85    1
   112   106   107    1
   113   106   103    1
   114   136   134   ar
   115   132   134   ar
   116    49    50    1
   117   107   108    1
   118   102   103    1
   119    75    74    2
   120   103   104    1
   121    50    51    1
   122    50    53    1
   123    51    52    2
   124    70    69    1
   125    74    73    1
   126   104   105    2
   127    65    66    1
   128    54    53    1
   129    54    55    1
   130    69    66    1
   131    69    71    1
   132    73    72    1
   133    73    76    1
   134    66    67    1
   135    56    55    1
   136   121   120    2
   137    76    77    1
   138   124   123    1
   139   122   123    1
   140   122   119    1
   141   120   119    1
   142    67    68    2
   143   123   125    1
   144   119   118    1
   145   117   115    1
   146   114   115    1
   147   114   111    1
   148   110   111    1
   149   116   115    1
   150   111   112    1
   151   112   113    2
