@<TRIPOS>MOLECULE
tmp/3v2oA00.pdb
 190 182 0 0 0
SMALL
GASTEIGER

@<TRIPOS>ATOM
      1  N          2.2450   11.6830   14.9390 N.3    31  GLU31      -0.1245
      2  CA         1.2970   11.4480   13.8600 C.3    31  GLU31       0.1567
      3  C         -0.1420   11.5050   14.4020 C.2    31  GLU31       0.2260
      4  O         -1.1260   11.1890   13.7040 O.2    31  GLU31      -0.2867
      5  CB         1.6300   10.1330   13.1460 C.3    31  GLU31       0.0388
      6  CG         2.9110   10.1950   12.2360 C.3    31  GLU31       0.1160
      7  CD         4.2620    9.9910   12.9820 C.2    31  GLU31       0.3649
      8  OE1        4.2660    9.4860   14.1230 O.co2  31  GLU31      -0.2457
      9  OE2        5.3420   10.3220   12.4150 O.co2  31  GLU31      -0.2457
     10  N         -1.3800    9.8350   16.8890 N.3    33  PHE33      -0.1241
     11  CA        -1.8850    8.5420   17.3230 C.3    33  PHE33       0.1605
     12  C         -1.8850    8.4380   18.8400 C.2    33  PHE33       0.2264
     13  O         -0.9050    8.7480   19.4870 O.2    33  PHE33      -0.2867
     14  CB        -1.0550    7.4060   16.7130 C.3    33  PHE33       0.0534
     15  CG        -1.3460    7.1260   15.2440 C.ar   33  PHE33      -0.0203
     16  CD1       -1.9240    8.0870   14.4100 C.ar   33  PHE33      -0.0042
     17  CD2       -1.0160    5.8940   14.6940 C.ar   33  PHE33      -0.0042
     18  CE1       -2.1770    7.8210   13.0650 C.ar   33  PHE33      -0.0003
     19  CE2       -1.2590    5.6300   13.3390 C.ar   33  PHE33      -0.0003
     20  CZ        -1.8480    6.6010   12.5310 C.ar   33  PHE33      -0.0000
     21  N         -2.5640    2.7290   18.6210 N.3    38  TRP38      -0.1241
     22  CA        -1.4880    1.7390   18.5560 C.3    38  TRP38       0.1605
     23  C         -1.9100    0.3290   18.9980 C.2    38  TRP38       0.2264
     24  O         -1.4610   -0.6740   18.4240 O.2    38  TRP38      -0.2867
     25  CB        -0.3130    2.1890   19.4260 C.3    38  TRP38       0.0550
     26  CG         0.5140    3.2540   18.8220 C.ar   38  TRP38       0.0003
     27  CD1        0.2360    4.5900   18.7910 C.ar   38  TRP38       0.0946
     28  CD2        1.7860    3.0900   18.1610 C.ar   38  TRP38       0.0152
     29  NE1        1.2480    5.2620   18.1480 N.ar   38  TRP38      -0.2442
     30  CE2        2.2100    4.3700   17.7550 C.ar   38  TRP38       0.0810
     31  CE3        2.5980    1.9840   17.8760 C.ar   38  TRP38       0.0012
     32  CZ2        3.4250    4.5870   17.0730 C.ar   38  TRP38       0.0191
     33  CZ3        3.8230    2.1980   17.1970 C.ar   38  TRP38       0.0001
     34  CH2        4.2120    3.4910   16.8040 C.ar   38  TRP38       0.0015
     35  N         -4.2490   -1.0400   16.3660 N.3    41  ALA41      -0.1231
     36  CA        -3.4870   -1.3930   15.1700 C.3    41  ALA41       0.1694
     37  C         -2.7950   -2.7460   15.2950 C.2    41  ALA41       0.2592
     38  O         -2.5410   -3.4100   14.2850 O.2    41  ALA41      -0.2718
     39  CB        -2.4830   -0.3200   14.8610 C.3    41  ALA41       0.0304
     40  N         -2.4820   -3.1370   16.5310 N.am   42  HIS42      -0.1976
     41  CA        -1.7500   -4.3760   16.7880 C.3    42  HIS42       0.1656
     42  C         -2.6070   -5.4610   17.4250 C.2    42  HIS42       0.2291
     43  O         -2.0820   -6.4570   17.9140 O.2    42  HIS42      -0.2864
     44  CB        -0.5180   -4.0960   17.6310 C.3    42  HIS42       0.0771
     45  CG         0.5030   -3.2730   16.9210 C.ar   42  HIS42       0.0820
     46  ND1        0.4370   -1.8980   16.8650 N.ar   42  HIS42      -0.2267
     47  CD2        1.6000   -3.6310   16.2120 C.ar   42  HIS42       0.1154
     48  CE1        1.4600   -1.4400   16.1680 C.ar   42  HIS42       0.1986
     49  NE2        2.1830   -2.4690   15.7610 N.ar   42  HIS42      -0.2212
     50  N         -7.0270    9.4130   10.7650 N.3    66  GLU66      -0.1245
     51  CA        -7.0760    7.9800   11.1010 C.3    66  GLU66       0.1567
     52  C         -7.8140    7.7470   12.4120 C.2    66  GLU66       0.2260
     53  O         -7.6660    8.5230   13.3450 O.2    66  GLU66      -0.2867
     54  CB        -5.6750    7.3930   11.2400 C.3    66  GLU66       0.0388
     55  CG        -4.7630    7.5530   10.0220 C.3    66  GLU66       0.1160
     56  CD        -3.9110    8.8110   10.0570 C.2    66  GLU66       0.3649
     57  OE1       -4.3240    9.7900   10.6910 O.co2  66  GLU66      -0.2457
     58  OE2       -2.8260    8.8220    9.4360 O.co2  66  GLU66      -0.2457
     59  N        -10.9600    2.3830   12.1600 N.3    70  SER70      -0.1202
     60  CA       -10.4500    2.0220   10.8560 C.3    70  SER70       0.2020
     61  C         -9.1770    1.1440   10.9670 C.2    70  SER70       0.2618
     62  O         -9.0270    0.1880   10.2170 O.2    70  SER70      -0.2717
     63  CB       -10.2820    3.2550    9.9500 C.3    70  SER70       0.2103
     64  OG        -9.9640    4.4290   10.6870 O.3    70  SER70      -0.2182
     65  N         -8.3060    1.4500   11.9220 N.am   71  LEU71      -0.1979
     66  CA        -7.0650    0.6690   12.1050 C.3    71  LEU71       0.1596
     67  C         -7.4020   -0.7880   12.4710 C.2    71  LEU71       0.2287
     68  O         -6.8230   -1.7280   11.9300 O.2    71  LEU71      -0.2864
     69  CB        -6.1970    1.2960   13.1930 C.3    71  LEU71       0.0297
     70  CG        -5.3570    2.5080   12.8060 C.3    71  LEU71       0.0022
     71  CD1       -5.0710    3.3920   14.0070 C.3    71  LEU71       0.0001
     72  CD2       -4.0620    2.0620   12.0960 C.3    71  LEU71       0.0001
     73  N         -9.1060   -2.4890    9.3720 N.3    74  SER74      -0.1202
     74  CA        -8.1900   -2.8330    8.2940 C.3    74  SER74       0.2020
     75  C         -7.4680   -4.1710    8.4900 C.2    74  SER74       0.2618
     76  O         -7.0410   -4.8010    7.5110 O.2    74  SER74      -0.2717
     77  CB        -7.1620   -1.7230    8.1240 C.3    74  SER74       0.2103
     78  OG        -6.3070   -1.6830    9.2540 O.3    74  SER74      -0.2182
     79  N         -7.2960   -4.5670    9.7510 N.am   75  LYS75      -0.1979
     80  CA        -6.6380   -5.8300   10.1160 C.3    75  LYS75       0.1596
     81  C         -7.6150   -6.9700   10.4530 C.2    75  LYS75       0.2287
     82  O         -7.2210   -8.1030   10.7030 O.2    75  LYS75      -0.2864
     83  CB        -5.7280   -5.5830   11.3140 C.3    75  LYS75       0.0298
     84  CG        -4.7450   -4.4540   11.1330 C.3    75  LYS75       0.0038
     85  CD        -3.6430   -4.8980   10.2080 C.3    75  LYS75       0.0206
     86  CE        -2.6380   -3.7880    9.9940 C.3    75  LYS75       0.1093
     87  NZ        -1.4050   -4.2980    9.3390 N.3    75  LYS75      -0.1314
     88  N        -11.0310    9.3610    6.2050 N.3    95  ASP95      -0.1239
     89  CA        -9.7390    9.9580    6.5060 C.3    95  ASP95       0.1674
     90  C         -9.1860   10.6260    5.2340 C.2    95  ASP95       0.2266
     91  O         -9.8630   10.6640    4.2070 O.2    95  ASP95      -0.2867
     92  CB        -8.7740    8.9210    7.1200 C.3    95  ASP95       0.1410
     93  CG        -8.5390    7.7230    6.2200 C.2    95  ASP95       0.3668
     94  OD1       -8.1990    6.6450    6.7330 O.co2  95  ASP95      -0.2456
     95  OD2       -8.6680    7.8490    4.9980 O.co2  95  ASP95      -0.2456
     96  N         -6.8200    9.5750    3.3480 N.3    97  ASN97      -0.1225
     97  CA        -6.4710    8.5050    2.3900 C.3    97  ASN97       0.1785
     98  C         -7.7690    8.0490    1.7000 C.2    97  ASN97       0.2598
     99  O         -7.7930    7.1190    0.8940 O.2    97  ASN97      -0.2718
    100  CB        -5.6990    7.3920    3.1650 C.3    97  ASN97       0.1169
    101  CG        -5.5440    6.0690    2.3960 C.2    97  ASN97       0.2627
    102  OD1       -5.5060    6.0390    1.1680 O.2    97  ASN97      -0.2716
    103  ND2       -5.4480    4.9650    3.1390 N.am   97  ASN97      -0.0877
    104  N         -8.8590    8.7550    1.9880 N.am   98  GLY98      -0.1942
    105  CA       -10.1510    8.4470    1.3900 C.3    98  GLY98       0.2014
    106  C        -10.8360    7.1990    1.9150 C.2    98  GLY98       0.2639
    107  O        -11.8630    6.7750    1.3590 O.2    98  GLY98      -0.2714
    108  N        -10.2890    6.6130    2.9850 N.am   99  GLY99      -0.1954
    109  CA       -10.8160    5.3650    3.5430 C.3    99  GLY99       0.1869
    110  C        -11.8050    5.6260    4.6490 C.2    99  GLY99       0.2309
    111  O        -11.7160    6.6600    5.3090 O.2    99  GLY99      -0.2863
    112  N        -14.6360    0.5080    4.0790 N.3   103  LEU103     -0.1231
    113  CA       -13.7020    0.3610    2.9610 C.3   103  LEU103      0.1693
    114  C        -12.4210   -0.3640    3.3490 C.2   103  LEU103      0.2592
    115  O        -11.8620   -1.1050    2.5380 O.2   103  LEU103     -0.2718
    116  CB       -13.3930    1.7160    2.3190 C.3   103  LEU103      0.0284
    117  CG       -14.5180    2.3370    1.4700 C.3   103  LEU103      0.0019
    118  CD1      -14.2090    3.7690    1.1050 C.3   103  LEU103      0.0001
    119  CD2      -14.8260    1.5220    0.2110 C.3   103  LEU103      0.0001
    120  N        -11.9520   -0.1700    4.5760 N.am  104  TYR104     -0.1976
    121  CA       -10.7370   -0.8770    5.0430 C.3   104  TYR104      0.1639
    122  C        -11.0420   -2.3430    5.3700 C.2   104  TYR104      0.2290
    123  O        -10.2230   -3.2410    5.1400 O.2   104  TYR104     -0.2864
    124  CB       -10.1070   -0.1680    6.2480 C.3   104  TYR104      0.0560
    125  CG        -9.4350    1.1600    5.9230 C.ar  104  TYR104     -0.0198
    126  CD1       -9.8850    2.3490    6.4980 C.ar  104  TYR104     -0.0009
    127  CD2       -8.3410    1.2280    5.0490 C.ar  104  TYR104     -0.0009
    128  CE1       -9.2810    3.5620    6.2090 C.ar  104  TYR104      0.0417
    129  CE2       -7.7390    2.4420    4.7480 C.ar  104  TYR104      0.0417
    130  CZ        -8.2100    3.5980    5.3310 C.ar  104  TYR104      0.1957
    131  OH        -7.6150    4.7920    5.0420 O.3   104  TYR104     -0.2866
    132  N        -11.3910   -3.9410    1.9840 N.3   107  HIS107     -0.1241
    133  CA       -10.0700   -4.0470    1.3400 C.3   107  HIS107      0.1621
    134  C         -9.2890   -5.2200    1.8920 C.2   107  HIS107      0.2264
    135  O         -8.5670   -5.8860    1.1490 O.2   107  HIS107     -0.2867
    136  CB        -9.2780   -2.7500    1.5070 C.3   107  HIS107      0.0745
    137  CG        -8.0080   -2.6960    0.7080 C.ar  107  HIS107      0.0817
    138  ND1       -7.9700   -2.2860   -0.6090 N.ar  107  HIS107     -0.2268
    139  CD2       -6.7310   -2.9910    1.0470 C.ar  107  HIS107      0.1154
    140  CE1       -6.7220   -2.3370   -1.0510 C.ar  107  HIS107      0.1986
    141  NE2       -5.9490   -2.7620   -0.0660 N.ar  107  HIS107     -0.2212
    142  N        -16.0430    7.0000   -2.3760 N.3   128  THR128     -0.1203
    143  CA       -14.8110    7.7910   -2.2780 C.3   128  THR128      0.1994
    144  C        -14.8860    8.9500   -3.2680 C.2   128  THR128      0.2618
    145  O        -15.7920    9.0040   -4.1000 O.2   128  THR128     -0.2717
    146  CB       -13.5650    6.9730   -2.6720 C.3   128  THR128      0.1784
    147  OG1      -13.6870    6.5650   -4.0360 O.3   128  THR128     -0.2211
    148  CG2      -13.4150    5.7580   -1.8050 C.3   128  THR128      0.0376
    149  N        -13.9150    9.8590   -3.2230 N.am  129  ASP129     -0.1959
    150  CA       -13.8600   10.9280   -4.2300 C.3   129  ASP129      0.1840
    151  C        -13.6960   10.3770   -5.6490 C.2   129  ASP129      0.2622
    152  O        -13.9530   11.0840   -6.6150 O.2   129  ASP129     -0.2715
    153  CB       -12.7430   11.9180   -3.9270 C.3   129  ASP129      0.1450
    154  CG       -11.3960   11.4580   -4.4700 C.2   129  ASP129      0.3671
    155  OD1      -10.7010   10.7120   -3.7500 O.co2 129  ASP129     -0.2456
    156  OD2      -11.0380   11.8500   -5.6110 O.co2 129  ASP129     -0.2456
    157  N        -13.3000    9.1050   -5.7560 N.am  130  SER130     -0.1950
    158  CA       -13.1130    8.4320   -7.0500 C.3   130  SER130      0.1924
    159  C        -14.4020    7.9340   -7.6410 C.2   130  SER130      0.2314
    160  O        -14.4320    7.5460   -8.7990 O.2   130  SER130     -0.2863
    161  CB       -12.1310    7.2590   -6.9420 C.3   130  SER130      0.2116
    162  OG       -10.8450    7.7140   -6.5900 O.3   130  SER130     -0.2180
    163  N        -16.3710    5.3600   -6.3500 N.3   132  TYR132     -0.1241
    164  CA       -16.7090    3.9860   -6.0160 C.3   132  TYR132      0.1605
    165  C        -17.1460    3.8450   -4.5580 C.2   132  TYR132      0.2264
    166  O        -16.6550    4.5620   -3.6840 O.2   132  TYR132     -0.2867
    167  CB       -15.5600    3.0250   -6.3760 C.3   132  TYR132      0.0534
    168  CG       -14.3220    3.1080   -5.5210 C.ar  132  TYR132     -0.0201
    169  CD1      -14.2290    2.4050   -4.3210 C.ar  132  TYR132     -0.0009
    170  CD2      -13.2200    3.8350   -5.9430 C.ar  132  TYR132     -0.0009
    171  CE1      -13.0920    2.4700   -3.5400 C.ar  132  TYR132      0.0417
    172  CE2      -12.0750    3.9010   -5.1710 C.ar  132  TYR132      0.0417
    173  CZ       -12.0170    3.2070   -3.9740 C.ar  132  TYR132      0.1957
    174  OH       -10.8840    3.2700   -3.2070 O.3   132  TYR132     -0.2866
    175  N        -16.0030   -1.7350   -4.5500 N.3   137  LEU137     -0.1245
    176  CA       -14.6630   -2.1650   -4.1590 C.3   137  LEU137      0.1561
    177  C        -14.5660   -3.6840   -3.9740 C.2   137  LEU137      0.2260
    178  O        -13.5750   -4.3160   -4.3530 O.2   137  LEU137     -0.2867
    179  CB       -14.2180   -1.4720   -2.8660 C.3   137  LEU137      0.0270
    180  CG       -12.7840   -1.8180   -2.4180 C.3   137  LEU137      0.0019
    181  CD1      -11.7620   -1.4420   -3.4710 C.3   137  LEU137      0.0001
    182  CD2      -12.4490   -1.1880   -1.0800 C.3   137  LEU137      0.0001
    183  N        -12.2480   -6.1280   -6.2870 N.3   141  LEU141     -0.1245
    184  CA       -11.2140   -7.0050   -5.7010 C.3   141  LEU141      0.1561
    185  C        -11.5550   -8.5040   -5.7400 C.2   141  LEU141      0.2260
    186  O        -10.7070   -9.3470   -5.4480 O.2   141  LEU141     -0.2867
    187  CB       -10.9030   -6.5850   -4.2590 C.3   141  LEU141      0.0270
    188  CG       -10.3580   -5.1700   -3.9840 C.3   141  LEU141      0.0019
    189  CD1      -10.1540   -4.9340   -2.4930 C.3   141  LEU141      0.0001
    190  CD2       -9.0550   -4.9030   -4.7370 C.3   141  LEU141      0.0001
@<TRIPOS>BOND
     1   160   159    2
     2   159   158    1
     3   158   161    1
     4   158   157    1
     5   161   162    1
     6   152   151    2
     7   167   164    1
     8   167   168    1
     9   163   164    1
    10   183   184    1
    11   164   165    1
    12   170   168   ar
    13   170   172   ar
    14   157   151   am
    15   185   184    1
    16   185   186    2
    17   184   187    1
    18   151   150    1
    19   156   154   ar
    20   168   169   ar
    21   172   173   ar
    22   190   188    1
    23   165   166    2
    24   175   176    1
    25   154   153    1
    26   154   155   ar
    27   178   177    2
    28   169   171   ar
    29   187   188    1
    30   150   153    1
    31   150   149    1
    32   176   177    1
    33   176   179    1
    34   145   144    2
    35   147   146    1
    36   188   189    1
    37   173   171   ar
    38   173   174    1
    39   181   180    1
    40   144   149   am
    41   144   143    1
    42   179   180    1
    43   146   143    1
    44   146   148    1
    45   180   182    1
    46   142   143    1
    47   140   138   ar
    48   140   141   ar
    49   138   137   ar
    50   141   139   ar
    51   119   117    1
    52   137   139   ar
    53   137   136    1
    54    99    98    2
    55   118   117    1
    56   135   134    2
    57   102   101    2
    58   133   136    1
    59   133   134    1
    60   133   132    1
    61   107   106    2
    62   105   106    1
    63   105   104    1
    64   117   116    1
    65    98   104   am
    66    98    97    1
    67   106   108   am
    68   116   113    1
    69    97   100    1
    70    97    96    1
    71   101   103   am
    72   101   100    1
    73   115   114    2
    74   113   114    1
    75   113   112    1
    76   108   109    1
    77   114   120   am
    78   109   110    1
    79    91    90    2
    80   120   121    1
    81   110   111    2
    82   129   127   ar
    83   129   130   ar
    84    95    93   ar
    85   131   130    1
    86   121   122    1
    87   121   124    1
    88   127   125   ar
    89   123   122    2
    90    90    89    1
    91   130   128   ar
    92   125   124    1
    93   125   126   ar
    94    88    89    1
    95   128   126   ar
    96    93    94   ar
    97    93    92    1
    98    89    92    1
    99    76    75    2
   100    77    74    1
   101    77    78    1
   102    74    75    1
   103    74    73    1
   104    75    79   am
   105    87    86    1
   106    58    56   ar
   107    79    80    1
   108    63    64    1
   109    63    60    1
   110    86    85    1
   111    55    56    1
   112    55    54    1
   113    56    57   ar
   114    80    81    1
   115    80    83    1
   116    85    84    1
   117    62    61    2
   118    81    82    2
   119    50    51    1
   120    60    61    1
   121    60    59    1
   122    61    65   am
   123    51    54    1
   124    51    52    1
   125    84    83    1
   126    65    66    1
   127    68    67    2
   128    72    70    1
   129    66    67    1
   130    66    69    1
   131     6     7    1
   132     6     5    1
   133    52    53    2
   134     9     7   ar
   135    20    18   ar
   136    20    19   ar
   137    70    69    1
   138    70    71    1
   139     7     8   ar
   140    18    16   ar
   141     5     2    1
   142    19    17   ar
   143     4     3    2
   144     2     3    1
   145     2     1    1
   146    38    37    2
   147    16    15   ar
   148    17    15   ar
   149    39    36    1
   150    36    37    1
   151    36    35    1
   152    15    14    1
   153    37    40   am
   154    49    48   ar
   155    49    47   ar
   156    48    46   ar
   157    47    45   ar
   158    40    41    1
   159    14    11    1
   160    41    42    1
   161    41    44    1
   162    34    32   ar
   163    34    33   ar
   164    46    45   ar
   165    10    11    1
   166    45    44    1
   167    32    30   ar
   168    33    31   ar
   169    11    12    1
   170    42    43    2
   171    30    29   ar
   172    30    28   ar
   173    31    28   ar
   174    29    27   ar
   175    28    26   ar
   176    24    23    2
   177    22    21    1
   178    22    23    1
   179    22    25    1
   180    27    26   ar
   181    26    25    1
   182    12    13    2
