@<TRIPOS>MOLECULE
tmp/3v2uC01.pdb
 201 193 0 0 0
SMALL
GASTEIGER

@<TRIPOS>ATOM
      1  N        -51.5200   41.9890  -48.2020 N.3    43  ARG43      -0.1245
      2  CA       -50.7490   43.2020  -47.9590 C.3    43  ARG43       0.1563
      3  C        -49.2840   43.0530  -48.3310 C.2    43  ARG43       0.2260
      4  O        -48.7590   41.9440  -48.4040 O.2    43  ARG43      -0.2867
      5  CB       -50.8480   43.5960  -46.4830 C.3    43  ARG43       0.0307
      6  CG       -50.2010   42.6000  -45.5380 C.3    43  ARG43       0.0489
      7  CD       -48.7190   42.8940  -45.2920 C.3    43  ARG43       0.2205
      8  NE       -48.1080   41.8140  -44.5120 N.pl3  43  ARG43      -0.0865
      9  CZ       -47.4870   40.7640  -45.0450 C.cat  43  ARG43       0.5346
     10  NH1      -46.9750   39.8170  -44.2660 N.pl3  43  ARG43       0.1354
     11  NH2      -47.3740   40.6630  -46.3630 N.pl3  43  ARG43       0.1354
     12  N        -58.6990   37.5840  -49.9420 N.3    67  MET67      -0.1245
     13  CA       -59.3750   36.3400  -49.6230 C.3    67  MET67       0.1570
     14  C        -60.8760   36.5990  -49.6410 C.2    67  MET67       0.2261
     15  O        -61.3640   37.5080  -48.9660 O.2    67  MET67      -0.2867
     16  CB       -58.9280   35.8080  -48.2620 C.3    67  MET67       0.0387
     17  CG       -59.7650   34.6410  -47.7460 C.3    67  MET67       0.0595
     18  SD       -59.8660   33.2150  -48.8530 S.3    67  MET67      -0.1393
     19  CE       -58.4290   32.2590  -48.3180 C.3    67  MET67       0.0692
     20  N        -62.3880   25.0520  -50.9400 N.3    85  ASN85      -0.1240
     21  CA       -61.4120   25.9970  -51.4740 C.3    85  ASN85       0.1653
     22  C        -61.3810   25.9900  -53.0040 C.2    85  ASN85       0.2266
     23  O        -61.5420   24.9450  -53.6300 O.2    85  ASN85      -0.2867
     24  CB       -60.0150   25.6960  -50.9260 C.3    85  ASN85       0.1155
     25  CG       -59.1130   26.9110  -50.9460 C.2    85  ASN85       0.2627
     26  OD1      -58.7340   27.3970  -52.0070 O.2    85  ASN85      -0.2716
     27  ND2      -58.7590   27.4050  -49.7630 N.am   85  ASN85      -0.0877
     28  N        -58.9100   26.2980  -54.7020 N.3    87  ASP87      -0.1239
     29  CA       -57.7120   25.5490  -55.0480 C.3    87  ASP87       0.1674
     30  C        -57.8260   24.1260  -54.5120 C.2    87  ASP87       0.2266
     31  O        -57.7430   23.9000  -53.3000 O.2    87  ASP87      -0.2867
     32  CB       -56.4850   26.2330  -54.4520 C.3    87  ASP87       0.1410
     33  CG       -55.1900   25.5900  -54.8940 C.2    87  ASP87       0.3668
     34  OD1      -55.2180   24.4070  -55.3060 O.co2  87  ASP87      -0.2456
     35  OD2      -54.1460   26.2730  -54.8270 O.co2  87  ASP87      -0.2456
     36  N        -56.2970   22.2800  -51.4340 N.3    90  PHE90      -0.1241
     37  CA       -56.8150   22.4570  -50.0920 C.3    90  PHE90       0.1605
     38  C        -58.1480   21.7490  -49.9920 C.2    90  PHE90       0.2264
     39  O        -59.1920   22.3110  -50.3280 O.2    90  PHE90      -0.2867
     40  CB       -56.9470   23.9370  -49.7620 C.3    90  PHE90       0.0534
     41  CG       -55.6480   24.6790  -49.8460 C.ar   90  PHE90      -0.0203
     42  CD1      -54.6090   24.3750  -48.9760 C.ar   90  PHE90      -0.0042
     43  CD2      -55.4510   25.6520  -50.8110 C.ar   90  PHE90      -0.0042
     44  CE1      -53.4040   25.0370  -49.0540 C.ar   90  PHE90      -0.0003
     45  CE2      -54.2470   26.3330  -50.8900 C.ar   90  PHE90      -0.0003
     46  CZ       -53.2220   26.0220  -50.0100 C.ar   90  PHE90      -0.0000
     47  N        -49.8660   21.3530  -40.0360 N.3   111  SER111     -0.1202
     48  CA       -50.2060   22.4070  -40.9710 C.3   111  SER111      0.2020
     49  C        -51.5080   22.0190  -41.6610 C.2   111  SER111      0.2619
     50  O        -51.5970   20.9580  -42.2490 O.2   111  SER111     -0.2717
     51  CB       -49.1030   22.5610  -42.0110 C.3   111  SER111      0.2103
     52  OG       -49.4200   23.6030  -42.9070 O.3   111  SER111     -0.2182
     53  N        -52.5110   22.8830  -41.5810 N.am  112  GLU112     -0.1965
     54  CA       -53.8230   22.6020  -42.1350 C.3   112  GLU112      0.1733
     55  C        -54.5350   23.9090  -42.4530 C.2   112  GLU112      0.2616
     56  O        -54.7100   24.7660  -41.5780 O.2   112  GLU112     -0.2715
     57  CB       -54.6410   21.7680  -41.1470 C.3   112  GLU112      0.0429
     58  CG       -56.1470   21.8510  -41.3360 C.3   112  GLU112      0.1163
     59  CD       -56.6150   21.2890  -42.6650 C.2   112  GLU112      0.3649
     60  OE1      -55.9140   20.4240  -43.2350 O.co2 112  GLU112     -0.2457
     61  OE2      -57.6920   21.7150  -43.1420 O.co2 112  GLU112     -0.2457
     62  N        -54.9480   24.0600  -43.7090 N.am  113  TRP113     -0.1974
     63  CA       -55.5080   25.3220  -44.1740 C.3   113  TRP113      0.1640
     64  C        -56.7650   25.7240  -43.3990 C.2   113  TRP113      0.2290
     65  O        -56.9700   26.9030  -43.1330 O.2   113  TRP113     -0.2864
     66  CB       -55.7660   25.2910  -45.6920 C.3   113  TRP113      0.0576
     67  CG       -56.9750   24.5010  -46.1040 C.ar  113  TRP113      0.0006
     68  CD1      -57.0490   23.1500  -46.2760 C.ar  113  TRP113      0.0946
     69  CD2      -58.2830   25.0190  -46.4210 C.ar  113  TRP113      0.0152
     70  NE1      -58.3250   22.7920  -46.6720 N.ar  113  TRP113     -0.2442
     71  CE2      -59.0960   23.9210  -46.7720 C.ar  113  TRP113      0.0810
     72  CE3      -58.8420   26.3050  -46.4400 C.ar  113  TRP113      0.0012
     73  CZ2      -60.4420   24.0670  -47.1390 C.ar  113  TRP113      0.0191
     74  CZ3      -60.1810   26.4490  -46.8130 C.ar  113  TRP113      0.0001
     75  CH2      -60.9620   25.3340  -47.1510 C.ar  113  TRP113      0.0015
     76  N        -56.7290   28.0240  -40.1120 N.3   116  TYR116     -0.1241
     77  CA       -56.8740   29.4740  -40.1710 C.3   116  TYR116      0.1605
     78  C        -58.3370   29.9040  -40.0850 C.2   116  TYR116      0.2264
     79  O        -58.6630   30.8740  -39.3930 O.2   116  TYR116     -0.2867
     80  CB       -56.1690   30.0800  -41.3910 C.3   116  TYR116      0.0534
     81  CG       -54.6810   29.8460  -41.3420 C.ar  116  TYR116     -0.0201
     82  CD1      -53.8580   30.6550  -40.5630 C.ar  116  TYR116     -0.0009
     83  CD2      -54.0990   28.7910  -42.0380 C.ar  116  TYR116     -0.0009
     84  CE1      -52.4970   30.4340  -40.4950 C.ar  116  TYR116      0.0417
     85  CE2      -52.7380   28.5630  -41.9770 C.ar  116  TYR116      0.0417
     86  CZ       -51.9410   29.3910  -41.2010 C.ar  116  TYR116      0.1957
     87  OH       -50.5800   29.1730  -41.1340 O.3   116  TYR116     -0.2866
     88  N        -58.7900   32.6940  -52.7830 N.3   150  SER150     -0.1217
     89  CA       -57.7690   33.7060  -52.6270 C.3   150  SER150      0.1889
     90  C        -56.8910   33.7630  -53.8570 C.2   150  SER150      0.2288
     91  O        -56.5590   32.7330  -54.4390 O.2   150  SER150     -0.2866
     92  CB       -56.9010   33.3780  -51.4090 C.3   150  SER150      0.2089
     93  OG       -55.9180   34.3740  -51.2060 O.3   150  SER150     -0.2183
     94  N        -48.5110   33.6470  -51.4920 N.3   154  THR154     -0.1203
     95  CA       -47.8740   33.3620  -50.2090 C.3   154  THR154      0.1994
     96  C        -46.8340   34.4220  -49.9380 C.2   154  THR154      0.2618
     97  O        -45.9840   34.7090  -50.7960 O.2   154  THR154     -0.2717
     98  CB       -47.1880   31.9950  -50.1880 C.3   154  THR154      0.1784
     99  OG1      -48.0750   31.0090  -50.7230 O.3   154  THR154     -0.2211
    100  CG2      -46.8050   31.6180  -48.7510 C.3   154  THR154      0.0376
    101  N        -46.9260   35.0300  -48.7620 N.am  155  GLY155     -0.1942
    102  CA       -46.0560   36.1350  -48.4240 C.3   155  GLY155      0.2014
    103  C        -46.8030   37.4570  -48.4780 C.2   155  GLY155      0.2639
    104  O        -46.2650   38.4850  -48.0830 O.2   155  GLY155     -0.2714
    105  N        -48.0410   37.4310  -48.9750 N.am  156  GLY156     -0.1939
    106  CA       -48.8790   38.6160  -49.0130 C.3   156  GLY156      0.2014
    107  C        -49.8580   38.7180  -47.8510 C.2   156  GLY156      0.2639
    108  O        -50.8780   39.4000  -47.9440 O.2   156  GLY156     -0.2714
    109  N        -49.5460   38.0510  -46.7430 N.am  157  GLY157     -0.1939
    110  CA       -50.3810   38.1350  -45.5600 C.3   157  GLY157      0.2014
    111  C        -51.6900   37.3770  -45.7130 C.2   157  GLY157      0.2639
    112  O        -52.6930   37.7120  -45.0840 O.2   157  GLY157     -0.2714
    113  N        -51.6780   36.3570  -46.5640 N.am  158  LEU158     -0.1963
    114  CA       -52.8540   35.5380  -46.8080 C.3   158  LEU158      0.1728
    115  C        -53.4190   34.9610  -45.5130 C.2   158  LEU158      0.2616
    116  O        -54.6270   34.9830  -45.2990 O.2   158  LEU158     -0.2715
    117  CB       -52.5080   34.4020  -47.7690 C.3   158  LEU158      0.0311
    118  CG       -53.6860   33.5250  -48.2100 C.3   158  LEU158      0.0022
    119  CD1      -53.4030   32.8600  -49.5490 C.3   158  LEU158      0.0001
    120  CD2      -54.0400   32.4850  -47.1420 C.3   158  LEU158      0.0001
    121  N        -52.5530   34.4400  -44.6480 N.am  159  SER159     -0.1950
    122  CA       -53.0380   33.7600  -43.4510 C.3   159  SER159      0.1924
    123  C        -53.8720   34.7030  -42.5780 C.2   159  SER159      0.2314
    124  O        -54.9110   34.3070  -42.0500 O.2   159  SER159     -0.2863
    125  CB       -51.8960   33.1040  -42.6620 C.3   159  SER159      0.2116
    126  OG       -51.1500   34.0480  -41.9170 O.3   159  SER159     -0.2180
    127  N        -57.2560   35.6950  -44.3480 N.3   162  PHE162     -0.1241
    128  CA       -58.1530   34.5610  -44.1650 C.3   162  PHE162      0.1605
    129  C        -58.7560   34.5700  -42.7600 C.2   162  PHE162      0.2264
    130  O        -59.9670   34.4630  -42.6030 O.2   162  PHE162     -0.2867
    131  CB       -57.4120   33.2490  -44.4270 C.3   162  PHE162      0.0534
    132  CG       -58.3080   32.0390  -44.5130 C.ar  162  PHE162     -0.0203
    133  CD1      -59.6710   32.1720  -44.7130 C.ar  162  PHE162     -0.0042
    134  CD2      -57.7740   30.7640  -44.4010 C.ar  162  PHE162     -0.0042
    135  CE1      -60.4910   31.0530  -44.8040 C.ar  162  PHE162     -0.0003
    136  CE2      -58.5840   29.6400  -44.4960 C.ar  162  PHE162     -0.0003
    137  CZ       -59.9450   29.7830  -44.6910 C.ar  162  PHE162     -0.0000
    138  N        -53.8040   33.6850  -34.8740 N.3   194  GLU194     -0.1245
    139  CA       -52.8620   32.6930  -35.4020 C.3   194  GLU194      0.1567
    140  C        -52.0570   31.9780  -34.3390 C.2   194  GLU194      0.2260
    141  O        -51.5360   30.8760  -34.5850 O.2   194  GLU194     -0.2867
    142  CB       -51.9060   33.3060  -36.4360 C.3   194  GLU194      0.0388
    143  CG       -52.4650   33.3280  -37.8300 C.3   194  GLU194      0.1160
    144  CD       -51.5030   33.9210  -38.8410 C.2   194  GLU194      0.3649
    145  OE1      -51.9320   34.8400  -39.5600 O.co2 194  GLU194     -0.2457
    146  OE2      -50.3340   33.4710  -38.9290 O.co2 194  GLU194     -0.2457
    147  N        -50.4220   42.4900  -40.0360 N.3   205  ASP205     -0.1239
    148  CA       -51.1940   42.0010  -41.1760 C.3   205  ASP205      0.1674
    149  C        -52.7000   42.1320  -40.9640 C.2   205  ASP205      0.2266
    150  O        -53.4160   42.5430  -41.8690 O.2   205  ASP205     -0.2867
    151  CB       -50.8310   40.5480  -41.5050 C.3   205  ASP205      0.1410
    152  CG       -49.3360   40.3570  -41.7380 C.2   205  ASP205      0.3668
    153  OD1      -48.6200   41.3720  -41.8440 O.co2 205  ASP205     -0.2456
    154  OD2      -48.8760   39.2000  -41.8270 O.co2 205  ASP205     -0.2456
    155  N        -44.0130   26.8360  -49.8460 N.3   252  SER252     -0.1202
    156  CA       -44.5540   27.3680  -48.5990 C.3   252  SER252      0.2020
    157  C        -44.4470   26.3600  -47.4590 C.2   252  SER252      0.2619
    158  O        -44.9810   25.2510  -47.5480 O.2   252  SER252     -0.2717
    159  CB       -46.0210   27.7640  -48.7950 C.3   252  SER252      0.2103
    160  OG       -46.6530   28.1050  -47.5660 O.3   252  SER252     -0.2182
    161  N        -43.7650   26.7390  -46.3840 N.am  253  ASN253     -0.1960
    162  CA       -43.7800   25.8910  -45.1820 C.3   253  ASN253      0.1819
    163  C        -43.4270   26.6070  -43.8670 C.2   253  ASN253      0.2621
    164  O        -42.6300   26.1150  -43.0590 O.2   253  ASN253     -0.2715
    165  CB       -42.9430   24.6220  -45.3900 C.3   253  ASN253      0.1195
    166  CG       -41.4760   24.9180  -45.6250 C.2   253  ASN253      0.2630
    167  OD1      -41.0840   26.0680  -45.8360 O.2   253  ASN253     -0.2716
    168  ND2      -40.6550   23.8730  -45.5940 N.am  253  ASN253     -0.0877
    169  N        -44.0520   27.7620  -43.6610 N.am  254  LYS254     -0.1963
    170  CA       -43.8270   28.5710  -42.4740 C.3   254  LYS254      0.1728
    171  C        -44.1370   27.7870  -41.2020 C.2   254  LYS254      0.2616
    172  O        -43.3710   27.8480  -40.2410 O.2   254  LYS254     -0.2715
    173  CB       -44.6650   29.8530  -42.5210 C.3   254  LYS254      0.0311
    174  CG       -44.3080   30.8840  -41.4450 C.3   254  LYS254      0.0038
    175  CD       -45.5760   31.4880  -40.8490 C.3   254  LYS254      0.0206
    176  CE       -45.5690   33.0030  -40.9210 C.3   254  LYS254      0.1093
    177  NZ       -45.4640   33.4560  -42.3270 N.3   254  LYS254     -0.1314
    178  N        -45.2400   27.0410  -41.1960 N.am  255  PHE255     -0.1974
    179  CA       -45.5850   26.2600  -40.0130 C.3   255  PHE255      0.1639
    180  C        -44.5200   25.2190  -39.7060 C.2   255  PHE255      0.2290
    181  O        -44.0690   25.1110  -38.5850 O.2   255  PHE255     -0.2864
    182  CB       -46.9350   25.5530  -40.1300 C.3   255  PHE255      0.0560
    183  CG       -47.2400   24.6780  -38.9460 C.ar  255  PHE255     -0.0200
    184  CD1      -47.7790   25.2220  -37.7850 C.ar  255  PHE255     -0.0042
    185  CD2      -46.9280   23.3250  -38.9650 C.ar  255  PHE255     -0.0042
    186  CE1      -48.0300   24.4130  -36.6660 C.ar  255  PHE255     -0.0003
    187  CE2      -47.1760   22.5210  -37.8630 C.ar  255  PHE255     -0.0003
    188  CZ       -47.7290   23.0620  -36.7110 C.ar  255  PHE255     -0.0000
    189  N        -43.1850   40.5760  -45.8370 N.3   455  GLY455     -0.1210
    190  CA       -43.7510   39.4670  -45.0910 C.3   455  GLY455      0.1956
    191  C        -42.6810   38.7880  -44.2530 C.2   455  GLY455      0.2612
    192  O        -41.6440   39.3790  -43.9720 O.2   455  GLY455     -0.2717
    193  N        -42.9170   37.5430  -43.8650 N.am  456  ALA456     -0.1965
    194  CA       -41.9840   36.8380  -42.9740 C.3   456  ALA456      0.1728
    195  C        -40.6370   36.5110  -43.6330 C.2   456  ALA456      0.2616
    196  O        -39.5920   36.5800  -42.9950 O.2   456  ALA456     -0.2715
    197  CB       -42.6290   35.5730  -42.4340 C.3   456  ALA456      0.0334
    198  N        -40.6570   36.1350  -44.9050 N.am  457  GLY457     -0.1955
    199  CA       -39.4240   35.7700  -45.5680 C.3   457  GLY457      0.1869
    200  C        -39.2290   34.2660  -45.6020 C.2   457  GLY457      0.2309
    201  O        -40.2040   33.5120  -45.5680 O.2   457  GLY457     -0.2863
@<TRIPOS>BOND
     1    34    33   ar
     2    29    28    1
     3    29    30    1
     4    29    32    1
     5    33    35   ar
     6    33    32    1
     7    30    31    2
     8    91    90    2
     9    90    89    1
    10    23    22    2
    11    22    21    1
    12    88    89    1
    13    89    92    1
    14    26    25    2
    15    94    95    1
    16    21    20    1
    17    21    24    1
    18    36    37    1
    19    92    93    1
    20    25    24    1
    21    25    27   am
    22    45    43   ar
    23    45    46   ar
    24    43    41   ar
    25    97    96    2
    26    99    98    1
    27    39    38    2
    28    95    98    1
    29    95    96    1
    30    98   100    1
    31    37    38    1
    32    37    40    1
    33    46    44   ar
    34    12    13    1
    35    96   101   am
    36    41    40    1
    37    41    42   ar
    38   155   156    1
    39    14    13    1
    40    14    15    2
    41    13    16    1
    42   119   118    1
    43    44    42   ar
    44   106   105    1
    45   106   107    1
    46   105   103   am
    47    18    19    1
    48    18    17    1
    49   159   156    1
    50   159   160    1
    51   101   102    1
    52   156   157    1
    53   103   102    1
    54   103   104    2
    55     4     3    2
    56     3     2    1
    57    16    17    1
    58   118   117    1
    59   118   120    1
    60     1     2    1
    61     2     5    1
    62   108   107    2
    63   107   109   am
    64   117   114    1
    65   158   157    2
    66   157   161   am
    67    75    73   ar
    68    75    74   ar
    69    73    71   ar
    70    74    72   ar
    71   114   113    1
    72   114   115    1
    73    71    70   ar
    74    71    69   ar
    75   109   110    1
    76    70    68   ar
    77   113   111   am
    78     5     6    1
    79    72    69   ar
    80    69    67   ar
    81   161   162    1
    82    11     9    1
    83    68    67   ar
    84    67    66    1
    85   189   190    1
    86   167   166    2
    87   111   110    1
    88   111   112    2
    89    66    63    1
    90   166   168   am
    91   166   165    1
    92   200   199    1
    93   200   201    2
    94   199   198    1
    95     6     7    1
    96   115   116    2
    97   115   121   am
    98   165   162    1
    99     7     8    1
   100   162   163    1
   101   190   191    1
   102     9     8    2
   103     9    10    1
   104   198   195   am
   105   135   133   ar
   106   135   137   ar
   107   133   132   ar
   108   137   136   ar
   109   121   122    1
   110   132   131    1
   111   132   134   ar
   112   136   134   ar
   113   131   128    1
   114   127   128    1
   115   191   192    2
   116   191   193   am
   117    63    62    1
   118    63    64    1
   119   128   129    1
   120   163   169   am
   121   163   164    2
   122   193   194    1
   123    62    55   am
   124   169   170    1
   125   195   196    2
   126   195   194    1
   127   122   125    1
   128   122   123    1
   129    64    65    2
   130    60    59   ar
   131    61    59   ar
   132   194   197    1
   133    52    51    1
   134   129   130    2
   135    59    58    1
   136   125   126    1
   137   123   124    2
   138   173   170    1
   139   173   174    1
   140   170   171    1
   141    55    54    1
   142    55    56    2
   143   177   176    1
   144    50    49    2
   145    54    53    1
   146    54    57    1
   147    83    85   ar
   148    83    81   ar
   149    51    48    1
   150    85    86   ar
   151   150   149    2
   152   153   152   ar
   153   154   152   ar
   154   152   151    1
   155    49    53   am
   156    49    48    1
   157   151   148    1
   158   174   175    1
   159    80    81    1
   160    80    77    1
   161    81    82   ar
   162    58    57    1
   163   171   178   am
   164   171   172    2
   165    86    87    1
   166    86    84   ar
   167   178   179    1
   168   148   149    1
   169   148   147    1
   170    48    47    1
   171   176   175    1
   172    82    84   ar
   173    77    76    1
   174    77    78    1
   175   182   179    1
   176   182   183    1
   177    78    79    2
   178   179   180    1
   179   180   181    2
   180   145   144   ar
   181   185   183   ar
   182   185   187   ar
   183   183   184   ar
   184   146   144   ar
   185   144   143    1
   186   187   188   ar
   187   143   142    1
   188   184   186   ar
   189   188   186   ar
   190   142   139    1
   191   139   138    1
   192   139   140    1
   193   141   140    2
