@<TRIPOS>MOLECULE
tmp/3v2uC00.pdb
 133 126 0 0 0
SMALL
GASTEIGER

@<TRIPOS>ATOM
      1  N        -51.5200   41.9890  -48.2020 N.3    43  ARG43      -0.1245
      2  CA       -50.7490   43.2020  -47.9590 C.3    43  ARG43       0.1563
      3  C        -49.2840   43.0530  -48.3310 C.2    43  ARG43       0.2260
      4  O        -48.7590   41.9440  -48.4040 O.2    43  ARG43      -0.2867
      5  CB       -50.8480   43.5960  -46.4830 C.3    43  ARG43       0.0307
      6  CG       -50.2010   42.6000  -45.5380 C.3    43  ARG43       0.0489
      7  CD       -48.7190   42.8940  -45.2920 C.3    43  ARG43       0.2205
      8  NE       -48.1080   41.8140  -44.5120 N.pl3  43  ARG43      -0.0865
      9  CZ       -47.4870   40.7640  -45.0450 C.cat  43  ARG43       0.5346
     10  NH1      -46.9750   39.8170  -44.2660 N.pl3  43  ARG43       0.1354
     11  NH2      -47.3740   40.6630  -46.3630 N.pl3  43  ARG43       0.1354
     12  N        -40.0630   47.7860  -42.3920 N.3    48  GLY48      -0.1210
     13  CA       -40.3590   47.4170  -41.0200 C.3    48  GLY48       0.1956
     14  C        -40.6260   45.9250  -40.8600 C.2    48  GLY48       0.2612
     15  O        -41.6190   45.5340  -40.2460 O.2    48  GLY48      -0.2717
     16  N        -39.7660   45.0770  -41.4190 N.am   49  GLU49      -0.1965
     17  CA       -39.9940   43.6440  -41.2780 C.3    49  GLU49       0.1733
     18  C        -39.5630   43.1370  -39.9030 C.2    49  GLU49       0.2616
     19  O        -38.5340   43.5550  -39.3710 O.2    49  GLU49      -0.2715
     20  CB       -39.2900   42.8400  -42.3680 C.3    49  GLU49       0.0429
     21  CG       -40.2160   41.7940  -43.0010 C.3    49  GLU49       0.1163
     22  CD       -41.4700   42.4290  -43.6190 C.2    49  GLU49       0.3649
     23  OE1      -42.5460   42.4620  -42.9750 O.co2  49  GLU49      -0.2457
     24  OE2      -41.3730   42.9120  -44.7560 O.co2  49  GLU49      -0.2457
     25  N        -40.3710   42.2440  -39.3390 N.am   50  HIS50      -0.1973
     26  CA       -40.0300   41.5420  -38.1060 C.3    50  HIS50       0.1656
     27  C        -39.8020   42.4600  -36.9150 C.2    50  HIS50       0.2291
     28  O        -38.9070   42.2320  -36.0930 O.2    50  HIS50      -0.2864
     29  CB       -38.8370   40.6140  -38.3330 C.3    50  HIS50       0.0771
     30  CG       -39.2140   39.3180  -38.9730 C.ar   50  HIS50       0.0820
     31  ND1      -39.0240   39.0590  -40.3150 N.ar   50  HIS50      -0.2267
     32  CD2      -39.7800   38.2010  -38.4500 C.ar   50  HIS50       0.1154
     33  CE1      -39.4550   37.8390  -40.5910 C.ar   50  HIS50       0.1986
     34  NE2      -39.9270   37.3030  -39.4750 N.ar   50  HIS50      -0.2212
     35  N        -43.0240   44.0660  -35.7450 N.3    52  ASP52      -0.1225
     36  CA       -44.3620   44.2830  -35.2150 C.3    52  ASP52       0.1805
     37  C        -44.5670   43.5910  -33.8680 C.2    52  ASP52       0.2597
     38  O        -45.1490   44.1800  -32.9640 O.2    52  ASP52      -0.2718
     39  CB       -45.4840   43.9670  -36.2110 C.3    52  ASP52       0.1424
     40  CG       -45.5040   42.5260  -36.6560 C.2    52  ASP52       0.3668
     41  OD1      -44.4700   41.8280  -36.5490 O.co2  52  ASP52      -0.2456
     42  OD2      -46.5730   42.1090  -37.1500 O.co2  52  ASP52      -0.2456
     43  N        -44.0500   42.3730  -33.7240 N.am   53  TYR53      -0.1976
     44  CA       -44.1510   41.6730  -32.4600 C.3    53  TYR53       0.1639
     45  C        -43.1940   42.2440  -31.4080 C.2    53  TYR53       0.2290
     46  O        -43.2290   41.8350  -30.2650 O.2    53  TYR53      -0.2864
     47  CB       -43.9640   40.1580  -32.6400 C.3    53  TYR53       0.0560
     48  CG       -42.7590   39.7460  -33.4690 C.ar   53  TYR53      -0.0198
     49  CD1      -41.4820   39.7060  -32.9140 C.ar   53  TYR53      -0.0009
     50  CD2      -42.9070   39.3790  -34.8010 C.ar   53  TYR53      -0.0009
     51  CE1      -40.3820   39.3200  -33.6700 C.ar   53  TYR53       0.0417
     52  CE2      -41.8180   38.9800  -35.5710 C.ar   53  TYR53       0.0417
     53  CZ       -40.5530   38.9610  -34.9990 C.ar   53  TYR53       0.1957
     54  OH       -39.4720   38.5670  -35.7510 O.3    53  TYR53      -0.2866
     55  N        -52.5530   34.4400  -44.6480 N.3   159  SER159     -0.1202
     56  CA       -53.0380   33.7600  -43.4510 C.3   159  SER159      0.2020
     57  C        -53.8720   34.7030  -42.5780 C.2   159  SER159      0.2619
     58  O        -54.9110   34.3070  -42.0500 O.2   159  SER159     -0.2717
     59  CB       -51.8960   33.1040  -42.6620 C.3   159  SER159      0.2103
     60  OG       -51.1500   34.0480  -41.9170 O.3   159  SER159     -0.2182
     61  N        -53.4350   35.9540  -42.4600 N.am  160  SER160     -0.1951
     62  CA       -54.1670   36.9630  -41.6960 C.3   160  SER160      0.1924
     63  C        -55.4460   37.4530  -42.3950 C.2   160  SER160      0.2314
     64  O        -56.4680   37.6840  -41.7320 O.2   160  SER160     -0.2863
     65  CB       -53.2550   38.1420  -41.3610 C.3   160  SER160      0.2116
     66  OG       -52.0860   37.6770  -40.7090 O.3   160  SER160     -0.2180
     67  N        -53.8040   33.6850  -34.8740 N.3   194  GLU194     -0.1245
     68  CA       -52.8620   32.6930  -35.4020 C.3   194  GLU194      0.1567
     69  C        -52.0570   31.9780  -34.3390 C.2   194  GLU194      0.2260
     70  O        -51.5360   30.8760  -34.5850 O.2   194  GLU194     -0.2867
     71  CB       -51.9060   33.3060  -36.4360 C.3   194  GLU194      0.0388
     72  CG       -52.4650   33.3280  -37.8300 C.3   194  GLU194      0.1160
     73  CD       -51.5030   33.9210  -38.8410 C.2   194  GLU194      0.3649
     74  OE1      -51.9320   34.8400  -39.5600 O.co2 194  GLU194     -0.2457
     75  OE2      -50.3340   33.4710  -38.9290 O.co2 194  GLU194     -0.2457
     76  N        -47.2700   35.2820  -34.3430 N.3   201  ASN201     -0.1225
     77  CA       -47.1060   36.4980  -35.1490 C.3   201  ASN201      0.1785
     78  C        -47.5300   37.7890  -34.4510 C.2   201  ASN201      0.2597
     79  O        -48.0700   37.7600  -33.3440 O.2   201  ASN201     -0.2718
     80  CB       -47.7470   36.3560  -36.5530 C.3   201  ASN201      0.1169
     81  CG       -49.2730   36.3190  -36.5240 C.2   201  ASN201      0.2627
     82  OD1      -49.8930   35.8250  -35.5710 O.2   201  ASN201     -0.2716
     83  ND2      -49.8880   36.8610  -37.5780 N.am  201  ASN201     -0.0877
     84  N        -47.2460   38.9250  -35.0840 N.am  202  GLY202     -0.1957
     85  CA       -47.6240   40.2130  -34.5210 C.3   202  GLY202      0.1869
     86  C        -48.9670   40.6780  -35.0620 C.2   202  GLY202      0.2309
     87  O        -49.7360   39.8620  -35.5700 O.2   202  GLY202     -0.2863
     88  N        -49.4120   43.4190  -37.4120 N.3   204  MET204     -0.1230
     89  CA       -49.3470   44.1830  -38.6610 C.3   204  MET204      0.1702
     90  C        -50.3880   43.7770  -39.7170 C.2   204  MET204      0.2592
     91  O        -51.1360   44.6180  -40.2380 O.2   204  MET204     -0.2718
     92  CB       -47.9450   44.1130  -39.2800 C.3   204  MET204      0.0401
     93  CG       -47.8930   44.7490  -40.6680 C.3   204  MET204      0.0596
     94  SD       -46.2380   44.8680  -41.3700 S.3   204  MET204     -0.1393
     95  CE       -45.8230   43.1190  -41.5140 C.3   204  MET204      0.0692
     96  N        -50.4220   42.4900  -40.0360 N.am  205  ASP205     -0.1974
     97  CA       -51.1940   42.0010  -41.1760 C.3   205  ASP205      0.1709
     98  C        -52.7000   42.1320  -40.9640 C.2   205  ASP205      0.2293
     99  O        -53.4160   42.5430  -41.8690 O.2   205  ASP205     -0.2864
    100  CB       -50.8310   40.5480  -41.5050 C.3   205  ASP205      0.1436
    101  CG       -49.3360   40.3570  -41.7380 C.2   205  ASP205      0.3671
    102  OD1      -48.6200   41.3720  -41.8440 O.co2 205  ASP205     -0.2456
    103  OD2      -48.8760   39.2000  -41.8270 O.co2 205  ASP205     -0.2456
    104  N        -44.0520   27.7620  -43.6610 N.3   254  LYS254     -0.1245
    105  CA       -43.8270   28.5710  -42.4740 C.3   254  LYS254      0.1561
    106  C        -44.1370   27.7870  -41.2020 C.2   254  LYS254      0.2260
    107  O        -43.3710   27.8480  -40.2410 O.2   254  LYS254     -0.2867
    108  CB       -44.6650   29.8530  -42.5210 C.3   254  LYS254      0.0271
    109  CG       -44.3080   30.8840  -41.4450 C.3   254  LYS254      0.0035
    110  CD       -45.5760   31.4880  -40.8490 C.3   254  LYS254      0.0206
    111  CE       -45.5690   33.0030  -40.9210 C.3   254  LYS254      0.1093
    112  NZ       -45.4640   33.4560  -42.3270 N.3   254  LYS254     -0.1314
    113  N        -39.5960   31.3750  -37.9470 N.3   262  TYR262     -0.1241
    114  CA       -40.4070   32.4920  -37.4480 C.3   262  TYR262      0.1605
    115  C        -40.5170   32.5000  -35.9110 C.2   262  TYR262      0.2264
    116  O        -40.2610   33.5150  -35.2640 O.2   262  TYR262     -0.2867
    117  CB       -41.8050   32.5020  -38.0660 C.3   262  TYR262      0.0534
    118  CG       -42.5630   33.7710  -37.7430 C.ar  262  TYR262     -0.0201
    119  CD1      -42.5980   34.8250  -38.6520 C.ar  262  TYR262     -0.0009
    120  CD2      -43.2180   33.9330  -36.5160 C.ar  262  TYR262     -0.0009
    121  CE1      -43.2700   36.0120  -38.3590 C.ar  262  TYR262      0.0417
    122  CE2      -43.8950   35.1220  -36.2060 C.ar  262  TYR262      0.0417
    123  CZ       -43.9200   36.1490  -37.1420 C.ar  262  TYR262      0.1957
    124  OH       -44.5760   37.3240  -36.8830 O.3   262  TYR262     -0.2866
    125  N        -43.1850   40.5760  -45.8370 N.3   455  GLY455     -0.1210
    126  CA       -43.7510   39.4670  -45.0910 C.3   455  GLY455      0.1956
    127  C        -42.6810   38.7880  -44.2530 C.2   455  GLY455      0.2611
    128  O        -41.6440   39.3790  -43.9720 O.2   455  GLY455     -0.2717
    129  N        -42.9170   37.5430  -43.8650 N.am  456  ALA456     -0.1979
    130  CA       -41.9840   36.8380  -42.9740 C.3   456  ALA456      0.1597
    131  C        -40.6370   36.5110  -43.6330 C.2   456  ALA456      0.2287
    132  O        -39.5920   36.5800  -42.9950 O.2   456  ALA456     -0.2864
    133  CB       -42.6290   35.5730  -42.4340 C.3   456  ALA456      0.0319
@<TRIPOS>BOND
     1     4     3    2
     2     3     2    1
     3     1     2    1
     4     2     5    1
     5     5     6    1
     6    11     9    1
     7   125   126    1
     8     6     7    1
     9     7     8    1
    10   126   127    1
    11     9     8    2
    12     9    10    1
    13    24    22   ar
    14    55    56    1
    15   127   128    2
    16   127   129   am
    17   129   130    1
    18   104   105    1
    19   131   132    2
    20   131   130    1
    21    22    21    1
    22    22    23   ar
    23    56    59    1
    24    56    57    1
    25    21    20    1
    26   130   133    1
    27    59    60    1
    28    57    61   am
    29    57    58    2
    30   108   105    1
    31   108   109    1
    32   105   106    1
    33    61    62    1
    34    63    64    2
    35    63    62    1
    36    12    13    1
    37    20    17    1
    38   112   111    1
    39    99    98    2
    40   102   101   ar
    41   103   101   ar
    42   101   100    1
    43    62    65    1
    44    95    94    1
    45   100    97    1
    46   109   110    1
    47    16    17    1
    48    16    14   am
    49    94    93    1
    50    65    66    1
    51    17    18    1
    52   106   107    2
    53    97    98    1
    54    97    96    1
    55    13    14    1
    56   111   110    1
    57    14    15    2
    58    93    92    1
    59    33    31   ar
    60    33    34   ar
    61    31    30   ar
    62    91    90    2
    63    96    90   am
    64    18    19    2
    65    18    25   am
    66    90    89    1
    67    74    73   ar
    68    34    32   ar
    69    25    26    1
    70    92    89    1
    71    30    32   ar
    72    30    29    1
    73    75    73   ar
    74    73    72    1
    75    89    88    1
    76   119   121   ar
    77   119   118   ar
    78   121   123   ar
    79    29    26    1
    80    26    27    1
    81   117   118    1
    82   117   114    1
    83   113   114    1
    84    72    71    1
    85   118   120   ar
    86    83    81   am
    87   114   115    1
    88    42    40   ar
    89   123   124    1
    90   123   122   ar
    91    27    28    2
    92    40    41   ar
    93    40    39    1
    94    80    81    1
    95    80    77    1
    96    81    82    2
    97   120   122   ar
    98    71    68    1
    99    39    36    1
   100   115   116    2
   101    54    53    1
   102    35    36    1
   103    52    53   ar
   104    52    50   ar
   105    87    86    2
   106    68    67    1
   107    68    69    1
   108    36    37    1
   109    77    78    1
   110    77    76    1
   111    84    85    1
   112    84    78   am
   113    86    85    1
   114    53    51   ar
   115    50    48   ar
   116    70    69    2
   117    78    79    2
   118    37    43   am
   119    37    38    2
   120    43    44    1
   121    51    49   ar
   122    48    49   ar
   123    48    47    1
   124    47    44    1
   125    44    45    1
   126    45    46    2
