@<TRIPOS>MOLECULE
tmp/3v2yA00.pdb
 243 233 0 0 0
SMALL
GASTEIGER

@<TRIPOS>ATOM
      1  N          3.7820   19.5250  -23.0610 N.3    14  TYR14      -0.1241
      2  CA         3.9530   18.0890  -22.8440 C.3    14  TYR14       0.1605
      3  C          4.3670   17.3970  -24.1690 C.2    14  TYR14       0.2264
      4  O          5.0280   16.3580  -24.1390 O.2    14  TYR14      -0.2867
      5  CB         2.6730   17.4630  -22.2540 C.3    14  TYR14       0.0534
      6  CG         2.5070   17.7130  -20.7670 C.ar   14  TYR14      -0.0201
      7  CD1        2.8540   16.7430  -19.8340 C.ar   14  TYR14      -0.0009
      8  CD2        2.0140   18.9250  -20.2930 C.ar   14  TYR14      -0.0009
      9  CE1        2.7100   16.9680  -18.4640 C.ar   14  TYR14       0.0417
     10  CE2        1.8780   19.1680  -18.9260 C.ar   14  TYR14       0.0417
     11  CZ         2.2280   18.1870  -18.0140 C.ar   14  TYR14       0.1957
     12  OH         2.0940   18.4230  -16.6690 O.3    14  TYR14      -0.2866
     13  N          5.5070   13.7550  -23.6350 N.3    19  LYS19      -0.1245
     14  CA         4.5840   13.1800  -22.6520 C.3    19  LYS19       0.1561
     15  C          3.1440   13.1050  -23.1890 C.2    19  LYS19       0.2260
     16  O          2.2920   12.4730  -22.5600 O.2    19  LYS19      -0.2867
     17  CB         4.6050   14.0010  -21.3580 C.3    19  LYS19       0.0271
     18  CG         5.8070   13.7350  -20.4700 C.3    19  LYS19       0.0035
     19  CD         5.7640   14.6080  -19.2270 C.3    19  LYS19       0.0206
     20  CE         6.7750   14.1880  -18.1980 C.3    19  LYS19       0.1093
     21  NZ         6.7670   15.1020  -17.0300 N.3    19  LYS19      -0.1314
     22  N         -1.5420   17.4470   -2.6770 N.3    83  TYR83      -0.1241
     23  CA        -1.2770   16.2620   -3.4810 C.3    83  TYR83       0.1605
     24  C         -2.5730   15.4850   -3.7610 C.2    83  TYR83       0.2264
     25  O         -2.6730   14.8380   -4.8070 O.2    83  TYR83      -0.2867
     26  CB        -0.2210   15.3540   -2.8400 C.3    83  TYR83       0.0534
     27  CG         0.3280   14.3230   -3.8070 C.ar   83  TYR83      -0.0201
     28  CD1        1.0850   14.7060   -4.9110 C.ar   83  TYR83      -0.0009
     29  CD2        0.0470   12.9700   -3.6480 C.ar   83  TYR83      -0.0009
     30  CE1        1.5680   13.7660   -5.8200 C.ar   83  TYR83       0.0417
     31  CE2        0.5410   12.0170   -4.5390 C.ar   83  TYR83       0.0417
     32  CZ         1.2930   12.4210   -5.6310 C.ar   83  TYR83       0.1957
     33  OH         1.7730   11.4890   -6.5200 O.3    83  TYR83      -0.2866
     34  N         -3.7320   17.3350   -6.4720 N.3    86  ASN86      -0.1240
     35  CA        -2.8210   17.0720   -7.5890 C.3    86  ASN86       0.1653
     36  C         -3.2500   15.8010   -8.3180 C.2    86  ASN86       0.2266
     37  O         -3.5520   15.8700   -9.5000 O.2    86  ASN86      -0.2867
     38  CB        -1.3590   16.9660   -7.1130 C.3    86  ASN86       0.1155
     39  CG        -0.3390   16.7930   -8.2260 C.2    86  ASN86       0.2627
     40  OD1       -0.5670   17.1550   -9.3850 O.2    86  ASN86      -0.2716
     41  ND2        0.8340   16.2900   -7.8800 N.am   86  ASN86      -0.0877
     42  N         -4.2840   15.5750  -12.0730 N.3    90  SER90      -0.1202
     43  CA        -3.1460   15.0280  -12.8180 C.3    90  SER90       0.2020
     44  C         -3.6120   13.8870  -13.7320 C.2    90  SER90       0.2619
     45  O         -4.7720   13.4710  -13.6540 O.2    90  SER90      -0.2717
     46  CB        -2.0600   14.5400  -11.8600 C.3    90  SER90       0.2103
     47  OG        -0.8640   14.2100  -12.5460 O.3    90  SER90      -0.2182
     48  N         -2.7140   13.4110  -14.5970 N.am   91  GLY91      -0.1956
     49  CA        -3.0010   12.3260  -15.5270 C.3    91  GLY91       0.1869
     50  C         -3.7120   12.8000  -16.7720 C.2    91  GLY91       0.2309
     51  O         -3.1820   13.6360  -17.5090 O.2    91  GLY91      -0.2863
     52  N         -4.8470   16.5770  -16.7640 N.3    94  THR94      -0.1218
     53  CA        -3.7510   17.5520  -16.9260 C.3    94  THR94       0.1862
     54  C         -4.0100   18.4720  -18.1310 C.2    94  THR94       0.2287
     55  O         -3.7980   19.6830  -18.0380 O.2    94  THR94      -0.2866
     56  CB        -2.4010   16.8210  -17.0800 C.3    94  THR94       0.1770
     57  OG1       -2.2810   15.8260  -16.0600 O.3    94  THR94      -0.2211
     58  CG2       -1.2110   17.7710  -17.0200 C.3    94  THR94       0.0375
     59  N         -2.7010   25.1610  -13.8550 N.3   102  TRP102     -0.1241
     60  CA        -1.5470   24.2790  -13.8040 C.3   102  TRP102      0.1605
     61  C         -0.4600   24.8900  -12.9050 C.2   102  TRP102      0.2264
     62  O          0.0860   24.1990  -12.0380 O.2   102  TRP102     -0.2867
     63  CB        -1.0140   24.0300  -15.2230 C.3   102  TRP102      0.0550
     64  CG        -0.0990   22.8550  -15.3300 C.ar  102  TRP102      0.0003
     65  CD1       -0.4180   21.6040  -15.7670 C.ar  102  TRP102      0.0946
     66  CD2        1.2930   22.8210  -14.9970 C.ar  102  TRP102      0.0152
     67  NE1        0.6940   20.7950  -15.7430 N.ar  102  TRP102     -0.2442
     68  CE2        1.7570   21.5150  -15.2630 C.ar  102  TRP102      0.0810
     69  CE3        2.2010   23.7740  -14.5080 C.ar  102  TRP102      0.0012
     70  CZ2        3.0880   21.1380  -15.0570 C.ar  102  TRP102      0.0191
     71  CZ3        3.5110   23.3940  -14.2910 C.ar  102  TRP102      0.0001
     72  CH2        3.9470   22.0940  -14.5700 C.ar  102  TRP102      0.0015
     73  N         -1.5430   24.4060   -9.5920 N.3   105  ARG105     -0.1231
     74  CA        -1.5200   22.9910   -9.2150 C.3   105  ARG105      0.1694
     75  C         -0.1430   22.5920   -8.6680 C.2   105  ARG105      0.2591
     76  O         -0.0440   22.1710   -7.5150 O.2   105  ARG105     -0.2718
     77  CB        -1.9000   22.1040  -10.4160 C.3   105  ARG105      0.0321
     78  CG        -2.1740   20.6490  -10.0480 C.3   105  ARG105      0.0489
     79  CD        -2.2460   19.7580  -11.2730 C.3   105  ARG105      0.2205
     80  NE        -0.9360   19.5940  -11.9060 N.pl3 105  ARG105     -0.0865
     81  CZ        -0.7010   18.7960  -12.9420 C.cat 105  ARG105      0.5346
     82  NH1       -1.6850   18.0800  -13.4730 N.pl3 105  ARG105      0.1354
     83  NH2        0.5190   18.7010  -13.4500 N.pl3 105  ARG105      0.1354
     84  N          0.9190   22.7590   -9.4770 N.am  106  GLU106     -0.1979
     85  CA         2.2720   22.3900   -9.0670 C.3   106  GLU106      0.1602
     86  C          2.8770   23.4440   -8.1390 C.2   106  GLU106      0.2287
     87  O          3.7700   23.1230   -7.3560 O.2   106  GLU106     -0.2864
     88  CB         3.1770   22.1580  -10.2850 C.3   106  GLU106      0.0415
     89  CG         2.7760   20.9400  -11.1140 C.3   106  GLU106      0.1163
     90  CD         2.6820   19.6260  -10.3540 C.2   106  GLU106      0.3649
     91  OE1        3.5720   19.3530   -9.5150 O.co2 106  GLU106     -0.2457
     92  OE2        1.7270   18.8590  -10.6140 O.co2 106  GLU106     -0.2457
     93  N          2.5050   22.5240   -4.4350 N.3   109  MET109     -0.1230
     94  CA         3.4980   21.5560   -3.9680 C.3   109  MET109      0.1702
     95  C          4.7970   22.2620   -3.5410 C.2   109  MET109      0.2592
     96  O          5.4320   21.8410   -2.5720 O.2   109  MET109     -0.2718
     97  CB         3.7940   20.5100   -5.0590 C.3   109  MET109      0.0401
     98  CG         2.5580   19.7570   -5.5610 C.3   109  MET109      0.0596
     99  SD         1.5500   18.9920   -4.2590 S.3   109  MET109     -0.1393
    100  CE         2.7020   17.7750   -3.6100 C.3   109  MET109      0.0692
    101  N          5.1810   23.3470   -4.2630 N.am  110  PHE110     -0.1976
    102  CA         6.3800   24.1360   -3.9590 C.3   110  PHE110      0.1639
    103  C          6.2020   24.9240   -2.6690 C.2   110  PHE110      0.2290
    104  O          7.1060   24.9230   -1.8300 O.2   110  PHE110     -0.2864
    105  CB         6.7190   25.0850   -5.1140 C.3   110  PHE110      0.0560
    106  CG         7.5310   24.4490   -6.2150 C.ar  110  PHE110     -0.0200
    107  CD1        8.9030   24.6530   -6.2970 C.ar  110  PHE110     -0.0042
    108  CD2        6.9250   23.6420   -7.1730 C.ar  110  PHE110     -0.0042
    109  CE1        9.6530   24.0680   -7.3220 C.ar  110  PHE110     -0.0003
    110  CE2        7.6770   23.0520   -8.1920 C.ar  110  PHE110     -0.0003
    111  CZ         9.0340   23.2770   -8.2660 C.ar  110  PHE110     -0.0000
    112  N          6.5230   22.6620    0.1910 N.3   113  LEU113     -0.1245
    113  CA         7.9290   22.2840    0.3510 C.3   113  LEU113      0.1561
    114  C          8.7100   23.4050    1.0400 C.2   113  LEU113      0.2260
    115  O          9.3550   23.1560    2.0610 O.2   113  LEU113     -0.2867
    116  CB         8.5780   21.9330   -1.0070 C.3   113  LEU113      0.0270
    117  CG        10.1170   21.7670   -0.9990 C.3   113  LEU113      0.0019
    118  CD1       10.5520   20.5600   -0.1610 C.3   113  LEU113      0.0001
    119  CD2       10.6500   21.6420   -2.3850 C.3   113  LEU113      0.0001
    120  N         10.3410   17.1010  -16.4270 N.3   172  VAL172     -0.1231
    121  CA         9.5690   16.5320  -15.3060 C.3   172  VAL172      0.1692
    122  C          8.4170   17.5230  -14.8870 C.2   172  VAL172      0.2592
    123  O          7.3700   17.0810  -14.3960 O.2   172  VAL172     -0.2718
    124  CB        10.4800   16.1190  -14.1050 C.3   172  VAL172      0.0266
    125  CG1       11.0940   17.3280  -13.4050 C.3   172  VAL172      0.0020
    126  CG2        9.7350   15.2230  -13.1170 C.3   172  VAL172      0.0020
    127  N          8.6120   18.8400  -15.1390 N.am  173  LEU173     -0.1966
    128  CA         7.6080   19.8920  -14.9240 C.3   173  LEU173      0.1713
    129  C          7.5670   20.7870  -16.1870 C.2   173  LEU173      0.2458
    130  O          8.3340   21.7450  -16.2990 O.2   173  LEU173     -0.2730
    131  CB         7.9060   20.7030  -13.6450 C.3   173  LEU173      0.0310
    132  CG         7.3960   20.0900  -12.3260 C.3   173  LEU173      0.0022
    133  CD1        8.3860   19.0910  -11.7540 C.3   173  LEU173      0.0001
    134  CD2        7.1570   21.1600  -11.2980 C.3   173  LEU173      0.0001
    135  N          6.7480   20.3940  -17.2000 N.am  174  PRO174     -0.2727
    136  CA         6.8220   21.0500  -18.5210 C.3   174  PRO174      0.1402
    137  C          6.6630   22.5820  -18.5420 C.2   174  PRO174      0.2269
    138  O          7.3230   23.2270  -19.3550 O.2   174  PRO174     -0.2865
    139  CB         5.6830   20.3940  -19.2930 C.3   174  PRO174      0.0296
    140  CG         5.6040   19.0400  -18.7230 C.3   174  PRO174      0.0237
    141  CD         5.8660   19.2080  -17.2510 C.3   174  PRO174      0.0939
    142  N         13.8470   25.8930  -11.3880 N.3   181  ILE181     -0.1245
    143  CA        14.0070   24.6240  -10.6790 C.3   181  ILE181      0.1561
    144  C         15.4200   24.5750  -10.0550 C.2   181  ILE181      0.2260
    145  O         15.5370   24.3100   -8.8570 O.2   181  ILE181     -0.2867
    146  CB        13.7010   23.4140  -11.6140 C.3   181  ILE181      0.0252
    147  CG1       12.2110   23.0190  -11.4800 C.3   181  ILE181      0.0019
    148  CG2       14.6190   22.2150  -11.3260 C.3   181  ILE181      0.0019
    149  CD1       11.7030   22.0270  -12.4890 C.3   181  ILE181      0.0001
    150  N         15.4530   26.8540   -7.0340 N.3   184  CYS184     -0.1221
    151  CA        14.7850   26.2400   -5.8800 C.3   184  CYS184      0.1808
    152  C         15.6570   25.1370   -5.2920 C.2   184  CYS184      0.2601
    153  O         15.8920   25.1200   -4.0840 O.2   184  CYS184     -0.2717
    154  CB        13.4070   25.7100   -6.2670 C.3   184  CYS184      0.0970
    155  SG        12.2200   26.9970   -6.7330 S.3   184  CYS184     -0.0800
    156  N         16.1810   24.2480   -6.1540 N.am  185  THR185     -0.1953
    157  CA        17.0320   23.1350   -5.7440 C.3   185  THR185      0.1897
    158  C         18.2710   23.6400   -4.9880 C.2   185  THR185      0.2313
    159  O         18.6030   23.0780   -3.9480 O.2   185  THR185     -0.2863
    160  CB        17.4390   22.2950   -6.9640 C.3   185  THR185      0.1794
    161  OG1       16.3010   22.1030   -7.8020 O.3   185  THR185     -0.2208
    162  CG2       18.0280   20.9420   -6.5750 C.3   185  THR185      0.0378
    163  N         17.2420   25.3850   -1.5070 N.3   188  PHE188     -0.1241
    164  CA        16.8030   24.4060   -0.5180 C.3   188  PHE188      0.1605
    165  C         17.9510   23.4710   -0.0780 C.2   188  PHE188      0.2264
    166  O         18.0000   23.1170    1.0990 O.2   188  PHE188     -0.2867
    167  CB        15.6070   23.6000   -1.0280 C.3   188  PHE188      0.0534
    168  CG        14.3640   24.4300   -1.2760 C.ar  188  PHE188     -0.0203
    169  CD1       13.9520   25.3920   -0.3560 C.ar  188  PHE188     -0.0042
    170  CD2       13.5530   24.1860   -2.3780 C.ar  188  PHE188     -0.0042
    171  CE1       12.7980   26.1500   -0.5800 C.ar  188  PHE188     -0.0003
    172  CE2       12.3970   24.9420   -2.5990 C.ar  188  PHE188     -0.0003
    173  CZ        12.0220   25.9140   -1.6940 C.ar  188  PHE188     -0.0000
    174  N         13.7280   13.7210   -0.1070 N.3   394  TRP394     -0.1241
    175  CA        13.7210   14.7830   -1.1150 C.3   394  TRP394      0.1605
    176  C         14.9760   14.7690   -2.0120 C.2   394  TRP394      0.2264
    177  O         14.8490   15.0350   -3.2080 O.2   394  TRP394     -0.2867
    178  CB        13.5560   16.1540   -0.4580 C.3   394  TRP394      0.0550
    179  CG        12.1550   16.4060    0.0130 C.ar  394  TRP394      0.0003
    180  CD1       11.6320   16.0940    1.2330 C.ar  394  TRP394      0.0946
    181  CD2       11.0670   16.9170   -0.7720 C.ar  394  TRP394      0.0152
    182  NE1       10.2940   16.4170    1.2730 N.ar  394  TRP394     -0.2442
    183  CE2        9.9220   16.9290    0.0560 C.ar  394  TRP394      0.0810
    184  CE3       10.9540   17.3910   -2.0910 C.ar  394  TRP394      0.0012
    185  CZ2        8.6790   17.3880   -0.3930 C.ar  394  TRP394      0.0191
    186  CZ3        9.7200   17.8390   -2.5360 C.ar  394  TRP394      0.0001
    187  CH2        8.6010   17.8370   -1.6920 C.ar  394  TRP394      0.0015
    188  N         14.7350   13.3960   -5.6250 N.3   397  LEU397     -0.1231
    189  CA        14.0360   14.3330   -6.5090 C.3   397  LEU397      0.1693
    190  C         14.9450   15.5040   -6.8540 C.2   397  LEU397      0.2592
    191  O         15.0200   15.8970   -8.0130 O.2   397  LEU397     -0.2718
    192  CB        12.7360   14.8410   -5.8520 C.3   397  LEU397      0.0284
    193  CG        11.8700   15.7680   -6.7070 C.3   397  LEU397      0.0019
    194  CD1       11.0920   14.9850   -7.7350 C.3   397  LEU397      0.0001
    195  CD2       10.9300   16.5870   -5.8420 C.3   397  LEU397      0.0001
    196  N         15.6530   16.0450   -5.8370 N.am  398  PHE398     -0.1976
    197  CA        16.5860   17.1650   -5.9800 C.3   398  PHE398      0.1639
    198  C         17.6920   16.8330   -6.9860 C.2   398  PHE398      0.2290
    199  O         18.0150   17.6670   -7.8360 O.2   398  PHE398     -0.2864
    200  CB        17.1930   17.5240   -4.6160 C.3   398  PHE398      0.0560
    201  CG        16.3610   18.4530   -3.7650 C.ar  398  PHE398     -0.0200
    202  CD1       15.0290   18.1610   -3.4780 C.ar  398  PHE398     -0.0042
    203  CD2       16.9300   19.5700   -3.1710 C.ar  398  PHE398     -0.0042
    204  CE1       14.2710   19.0040   -2.6630 C.ar  398  PHE398     -0.0003
    205  CE2       16.1760   20.4010   -2.3400 C.ar  398  PHE398     -0.0003
    206  CZ        14.8500   20.1170   -2.0960 C.ar  398  PHE398     -0.0000
    207  N         15.9570   16.6260  -10.4150 N.3   401  LEU401     -0.1245
    208  CA        15.6770   17.9780  -10.8850 C.3   401  LEU401      0.1561
    209  C         16.9460   18.6290  -11.4040 C.2   401  LEU401      0.2260
    210  O         16.9200   19.2540  -12.4660 O.2   401  LEU401     -0.2867
    211  CB        15.0630   18.8330   -9.7630 C.3   401  LEU401      0.0270
    212  CG        13.6150   18.5150   -9.3750 C.3   401  LEU401      0.0019
    213  CD1       13.2890   19.0760   -8.0220 C.3   401  LEU401      0.0001
    214  CD2       12.6330   19.0310  -10.4140 C.3   401  LEU401      0.0001
    215  N          8.1820    9.3350  -11.6840 N.3   419  GLU419     -0.1245
    216  CA         7.0050    9.4470  -10.8230 C.3   419  GLU419      0.1567
    217  C          7.2810    8.8650   -9.4290 C.2   419  GLU419      0.2260
    218  O          6.5310    9.1430   -8.4950 O.2   419  GLU419     -0.2867
    219  CB         5.7930    8.7380  -11.4690 C.3   419  GLU419      0.0388
    220  CG         5.3400    9.3420  -12.7990 C.3   419  GLU419      0.1160
    221  CD         4.6660   10.7060  -12.7450 C.2   419  GLU419      0.3649
    222  OE1        4.1830   11.1010  -11.6570 O.co2 419  GLU419     -0.2457
    223  OE2        4.5630   11.3510  -13.8130 O.co2 419  GLU419     -0.2457
    224  N          8.8110   11.7170   -7.0330 N.3   422  LEU422     -0.1245
    225  CA         7.7270   12.6240   -6.6460 C.3   422  LEU422      0.1561
    226  C          6.8660   12.0220   -5.5290 C.2   422  LEU422      0.2260
    227  O          6.3540   12.7610   -4.6880 O.2   422  LEU422     -0.2867
    228  CB         6.8410   12.9430   -7.8690 C.3   422  LEU422      0.0270
    229  CG         7.5410   13.5770   -9.0750 C.3   422  LEU422      0.0019
    230  CD1        6.8200   13.2350  -10.3630 C.3   422  LEU422      0.0001
    231  CD2        7.6710   15.0790   -8.9110 C.3   422  LEU422      0.0001
    232  N          8.8830   11.8560   -2.0050 N.3   425  ALA425     -0.1231
    233  CA         8.8730   13.1880   -1.4100 C.3   425  ALA425      0.1694
    234  C          7.5090   13.5050   -0.7900 C.2   425  ALA425      0.2591
    235  O          7.4350   14.2710    0.1740 O.2   425  ALA425     -0.2718
    236  CB         9.2230   14.2230   -2.4600 C.3   425  ALA425      0.0304
    237  N          6.4300   12.9120   -1.3400 N.am  426  VAL426     -0.1980
    238  CA         5.0700   13.1040   -0.8280 C.3   426  VAL426      0.1595
    239  C          4.8940   12.3070    0.4740 C.2   426  VAL426      0.2287
    240  O          4.3830   12.8550    1.4540 O.2   426  VAL426     -0.2864
    241  CB         3.9960   12.7270   -1.8930 C.3   426  VAL426      0.0276
    242  CG1        2.6430   12.4180   -1.2490 C.3   426  VAL426      0.0022
    243  CG2        3.8580   13.8300   -2.9320 C.3   426  VAL426      0.0022
@<TRIPOS>BOND
     1     3     4    2
     2     3     2    1
     3    13    14    1
     4    15    14    1
     5    15    16    2
     6     1     2    1
     7     2     5    1
     8    14    17    1
     9     5     6    1
    10    17    18    1
    11     6     8   ar
    12     6     7   ar
    13    18    19    1
    14     8    10   ar
    15     7     9   ar
    16   138   137    2
    17   139   140    1
    18   139   136    1
    19    19    20    1
    20    10    11   ar
    21   140   141    1
    22   137   136    1
    23   136   135    1
    24     9    11   ar
    25    20    21    1
    26    54    55    2
    27    54    53    1
    28    11    12    1
    29    51    50    2
    30   141   135    1
    31   135   129   am
    32    56    58    1
    33    56    53    1
    34    56    57    1
    35    53    52    1
    36    50    49    1
    37   120   121    1
    38   130   129    2
    39   129   128    1
    40    65    67   ar
    41    65    64   ar
    42    67    68   ar
    43    49    48    1
    44    64    63    1
    45    64    66   ar
    46   121   122    1
    47   121   124    1
    48    68    70   ar
    49    68    66   ar
    50    63    60    1
    51   127   128    1
    52   127   122   am
    53    70    72   ar
    54    66    69   ar
    55   128   131    1
    56   122   123    2
    57    48    44   am
    58    72    71   ar
    59    69    71   ar
    60   124   125    1
    61   124   126    1
    62    59    60    1
    63   223   221   ar
    64    60    61    1
    65    44    45    2
    66    44    43    1
    67   131   132    1
    68    82    81    1
    69    83    81    1
    70    81    80    2
    71    61    62    2
    72    43    42    1
    73    43    46    1
    74   220   221    1
    75   220   219    1
    76   221   222   ar
    77    47    46    1
    78   149   147    1
    79   210   209    2
    80   132   133    1
    81   132   134    1
    82    80    79    1
    83   215   216    1
    84   146   147    1
    85   146   148    1
    86   146   143    1
    87   219   216    1
    88   209   208    1
    89   142   143    1
    90    79    78    1
    91    89    90    1
    92    89    88    1
    93   208   207    1
    94   208   211    1
    95   216   217    1
    96   143   144    1
    97    92    90   ar
    98    77    78    1
    99    77    74    1
   100   214   212    1
   101   230   229    1
   102    90    91   ar
   103    88    85    1
   104   144   145    2
   105   211   212    1
   106    73    74    1
   107    37    36    2
   108    84    85    1
   109    84    75   am
   110   217   218    2
   111    40    39    2
   112   212   213    1
   113    74    75    1
   114   229   231    1
   115   229   228    1
   116    85    86    1
   117    75    76    2
   118    36    35    1
   119   111   110   ar
   120   111   109   ar
   121    39    41   am
   122    39    38    1
   123   110   108   ar
   124    86    87    2
   125   191   190    2
   126   228   225    1
   127   199   198    2
   128   161   160    1
   129   194   193    1
   130    35    38    1
   131    35    34    1
   132   109   107   ar
   133   108   106   ar
   134   150   151    1
   135   224   225    1
   136   198   197    1
   137   160   162    1
   138   160   157    1
   139   190   189    1
   140   190   196   am
   141   155   154    1
   142   193   192    1
   143   193   195    1
   144   225   226    1
   145    33    32    1
   146   189   192    1
   147   189   188    1
   148   107   106   ar
   149   154   151    1
   150   106   105    1
   151   156   157    1
   152   156   152   am
   153   197   196    1
   154   197   200    1
   155   151   152    1
   156    30    32   ar
   157    30    28   ar
   158   157   158    1
   159    32    31   ar
   160    98    97    1
   161    98    99    1
   162   226   227    2
   163   152   153    2
   164   105   102    1
   165    97    94    1
   166   158   159    2
   167    28    27   ar
   168    25    24    2
   169   200   201    1
   170    31    29   ar
   171    93    94    1
   172   101   102    1
   173   101    95   am
   174    99   100    1
   175    94    95    1
   176   102   103    1
   177    27    29   ar
   178    27    26    1
   179   201   202   ar
   180   201   203   ar
   181    24    23    1
   182    95    96    2
   183    23    26    1
   184    23    22    1
   185   202   204   ar
   186   177   176    2
   187   203   205   ar
   188   243   241    1
   189   103   104    2
   190   204   206   ar
   191   172   170   ar
   192   172   173   ar
   193   186   184   ar
   194   186   187   ar
   195   236   233    1
   196   119   117    1
   197   170   168   ar
   198   205   206   ar
   199   184   181   ar
   200   176   175    1
   201   232   233    1
   202   241   242    1
   203   241   238    1
   204   173   171   ar
   205   187   185   ar
   206   163   164    1
   207   233   234    1
   208   237   238    1
   209   237   234   am
   210   168   167    1
   211   168   169   ar
   212   175   178    1
   213   175   174    1
   214   167   164    1
   215   116   117    1
   216   116   113    1
   217   117   118    1
   218   238   239    1
   219   234   235    2
   220   181   179   ar
   221   181   183   ar
   222   171   169   ar
   223   164   165    1
   224   178   179    1
   225   185   183   ar
   226   165   166    2
   227   179   180   ar
   228   183   182   ar
   229   112   113    1
   230   113   114    1
   231   239   240    2
   232   114   115    2
   233   180   182   ar
