@<TRIPOS>MOLECULE
tmp/3v35A01.pdb
 111 116 0 0 0
SMALL
GASTEIGER

@<TRIPOS>ATOM
      1  N          3.0000    8.0630   16.5420 N.3    21  TRP21      -0.1241
      2  CA         1.7710    8.7280   16.9890 C.3    21  TRP21       0.1605
      3  C          2.1370    9.7230   18.0920 C.2    21  TRP21       0.2264
      4  O          2.8160    9.3490   19.0500 O.2    21  TRP21      -0.2867
      5  CB         0.7190    7.7140   17.4880 C.3    21  TRP21       0.0550
      6  CG        -0.4780    8.3770   18.1550 C.ar   21  TRP21       0.0003
      7  CD1       -1.1100    9.5190   17.7490 C.ar   21  TRP21       0.0946
      8  CD2       -1.1580    7.9430   19.3460 C.ar   21  TRP21       0.0152
      9  NE1       -2.1410    9.8270   18.6190 N.ar   21  TRP21      -0.2442
     10  CE2       -2.1850    8.8790   19.6090 C.ar   21  TRP21       0.0810
     11  CE3       -0.9910    6.8640   20.2200 C.ar   21  TRP21       0.0012
     12  CZ2       -3.0420    8.7680   20.7140 C.ar   21  TRP21       0.0191
     13  CZ3       -1.8510    6.7460   21.3140 C.ar   21  TRP21       0.0001
     14  CH2       -2.8620    7.6980   21.5500 C.ar   21  TRP21       0.0015
     15  N         -3.3110    9.2530    9.7870 N.3    48  VAL48      -0.1231
     16  CA        -4.0160    9.9900   10.8330 C.3    48  VAL48       0.1692
     17  C         -3.0620   10.6110   11.8580 C.2    48  VAL48       0.2592
     18  O         -3.4780   11.4470   12.6580 O.2    48  VAL48      -0.2718
     19  CB        -5.0770    9.0840   11.5070 C.3    48  VAL48       0.0266
     20  CG1       -4.4120    8.0850   12.4380 C.3    48  VAL48       0.0020
     21  CG2       -6.1230    9.9200   12.2500 C.3    48  VAL48       0.0020
     22  N         -1.7790   10.2360   11.8280 N.am   49  TYR49      -0.1976
     23  CA        -0.8090   10.8540   12.7470 C.3    49  TYR49       0.1639
     24  C         -0.3750   12.2360   12.2720 C.2    49  TYR49       0.2290
     25  O          0.3010   12.9610   13.0100 O.2    49  TYR49      -0.2864
     26  CB         0.4260    9.9640   13.0080 C.3    49  TYR49       0.0560
     27  CG         0.1080    8.5810   13.5620 C.ar   49  TYR49      -0.0198
     28  CD1       -1.1400    8.2920   14.1000 C.ar   49  TYR49      -0.0009
     29  CD2        1.0580    7.5680   13.5310 C.ar   49  TYR49      -0.0009
     30  CE1       -1.4420    7.0150   14.5880 C.ar   49  TYR49       0.0417
     31  CE2        0.7700    6.2910   14.0250 C.ar   49  TYR49       0.0417
     32  CZ        -0.4760    6.0250   14.5400 C.ar   49  TYR49       0.1957
     33  OH        -0.7750    4.7610   15.0180 O.3    49  TYR49      -0.2866
     34  N         -6.8250    4.9430    6.8800 N.3    80  TRP80      -0.1241
     35  CA        -7.7180    5.5570    7.8650 C.3    80  TRP80       0.1605
     36  C         -9.1760    5.1580    7.6190 C.2    80  TRP80       0.2264
     37  O         -9.5460    4.8100    6.5050 O.2    80  TRP80      -0.2867
     38  CB        -7.5600    7.0890    7.9520 C.3    80  TRP80       0.0550
     39  CG        -8.4430    7.6450    9.0420 C.ar   80  TRP80       0.0003
     40  CD1       -9.4960    8.5130    8.8900 C.ar   80  TRP80       0.0946
     41  CD2       -8.4170    7.2850   10.4350 C.ar   80  TRP80       0.0152
     42  NE1      -10.1010    8.7390   10.1120 N.ar   80  TRP80      -0.2442
     43  CE2       -9.4520    8.0050   11.0730 C.ar   80  TRP80       0.0810
     44  CE3       -7.6030    6.4410   11.2090 C.ar   80  TRP80       0.0012
     45  CZ2       -9.6960    7.9040   12.4400 C.ar   80  TRP80       0.0191
     46  CZ3       -7.8520    6.3390   12.5700 C.ar   80  TRP80       0.0001
     47  CH2       -8.8900    7.0660   13.1700 C.ar   80  TRP80       0.0015
     48  N         -6.3980    0.3800    9.7060 N.3   111  HIS111     -0.1226
     49  CA        -6.1360    0.9590   11.0250 C.3   111  HIS111      0.1752
     50  C         -7.1370    0.4960   12.0940 C.2   111  HIS111      0.2596
     51  O         -6.7520    0.1700   13.2180 O.2   111  HIS111     -0.2718
     52  CB        -6.1120    2.4840   10.9230 C.3   111  HIS111      0.0759
     53  CG        -5.3640    3.1530   12.0290 C.ar  111  HIS111      0.0818
     54  ND1       -4.6170    4.2940   11.8350 N.ar  111  HIS111     -0.2268
     55  CD2       -5.2490    2.8410   13.3420 C.ar  111  HIS111      0.1154
     56  CE1       -4.0770    4.6620   12.9850 C.ar  111  HIS111      0.1986
     57  NE2       -4.4460    3.7990   13.9140 N.ar  111  HIS111     -0.2212
     58  N         -8.4200    0.4840   11.7500 N.am  112  TRP112     -0.1976
     59  CA        -9.4560   -0.0440   12.6380 C.3   112  TRP112      0.1640
     60  C        -10.4190   -0.8070   11.7500 C.2   112  TRP112      0.2290
     61  O        -10.5440   -0.4650   10.5770 O.2   112  TRP112     -0.2864
     62  CB       -10.2280    1.0920   13.3230 C.3   112  TRP112      0.0576
     63  CG        -9.4750    1.8460   14.3890 C.ar  112  TRP112      0.0006
     64  CD1       -8.7420    2.9900   14.2290 C.ar  112  TRP112      0.0946
     65  CD2       -9.4110    1.5190   15.7830 C.ar  112  TRP112      0.0152
     66  NE1       -8.2140    3.3850   15.4390 N.ar  112  TRP112     -0.2442
     67  CE2       -8.6140    2.5010   16.4080 C.ar  112  TRP112      0.0810
     68  CE3       -9.9460    0.4870   16.5620 C.ar  112  TRP112      0.0012
     69  CZ2       -8.3370    2.4820   17.7790 C.ar  112  TRP112      0.0191
     70  CZ3       -9.6810    0.4800   17.9280 C.ar  112  TRP112      0.0001
     71  CH2       -8.8710    1.4650   18.5160 C.ar  112  TRP112      0.0015
     72  N        -12.9560   12.1170   12.0470 N.3   123  PHE123     -0.1241
     73  CA       -13.8880   11.5230   12.9970 C.3   123  PHE123      0.1605
     74  C        -15.2320   12.2150   12.9060 C.2   123  PHE123      0.2264
     75  O        -15.5340   13.0910   13.7180 O.2   123  PHE123     -0.2867
     76  CB       -13.3720   11.6840   14.4240 C.3   123  PHE123      0.0534
     77  CG       -12.6660   10.4780   14.9590 C.ar  123  PHE123     -0.0203
     78  CD1      -13.3860    9.4170   15.4750 C.ar  123  PHE123     -0.0042
     79  CD2      -11.2790   10.4160   14.9710 C.ar  123  PHE123     -0.0042
     80  CE1      -12.7350    8.3020   15.9830 C.ar  123  PHE123     -0.0003
     81  CE2      -10.6270    9.3100   15.4750 C.ar  123  PHE123     -0.0003
     82  CZ       -11.3560    8.2520   15.9830 C.ar  123  PHE123     -0.0000
     83  N         -3.4110   11.6800   25.0110 N.3   219  PRO219     -0.2102
     84  CA        -3.9950   12.9660   25.4060 C.3   219  PRO219      0.1504
     85  C         -5.1150   12.8520   26.4420 C.2   219  PRO219      0.2575
     86  O         -5.5200   13.8700   27.0020 O.2   219  PRO219     -0.2718
     87  CB        -4.5350   13.5380   24.0860 C.3   219  PRO219      0.0282
     88  CG        -4.6610   12.3780   23.1760 C.3   219  PRO219      0.0208
     89  CD        -3.6080   11.3870   23.5790 C.3   219  PRO219      0.0893
     90  N         -5.6090   11.6490   26.7060 N.am  220  TRP220     -0.1977
     91  CA        -6.6750   11.5140   27.6960 C.3   220  TRP220      0.1640
     92  C         -6.1870   11.0370   29.0810 C.2   220  TRP220      0.2290
     93  O         -6.9940   10.6380   29.9190 O.2   220  TRP220     -0.2864
     94  CB        -7.8090   10.6280   27.1370 C.3   220  TRP220      0.0576
     95  CG        -7.3130    9.3710   26.4490 C.ar  220  TRP220      0.0006
     96  CD1       -7.0990    8.1530   27.0350 C.ar  220  TRP220      0.0946
     97  CD2       -6.9750    9.2080   25.0540 C.ar  220  TRP220      0.0152
     98  NE1       -6.6430    7.2530   26.1010 N.ar  220  TRP220     -0.2442
     99  CE2       -6.5580    7.8710   24.8800 C.ar  220  TRP220      0.0810
    100  CE3       -6.9880   10.0600   23.9420 C.ar  220  TRP220      0.0012
    101  CZ2       -6.1510    7.3650   23.6390 C.ar  220  TRP220      0.0191
    102  CZ3       -6.5790    9.5540   22.7060 C.ar  220  TRP220      0.0001
    103  CH2       -6.1690    8.2200   22.5690 C.ar  220  TRP220      0.0015
    104  N        -11.4610    3.2060   21.6710 N.3   301  LEU301     -0.1245
    105  CA       -12.3280    3.7180   20.5980 C.3   301  LEU301      0.1561
    106  C        -13.7600    3.9420   21.1000 C.2   301  LEU301      0.2260
    107  O        -14.7310    3.4730   20.5010 O.2   301  LEU301     -0.2867
    108  CB       -12.3180    2.7660   19.3970 C.3   301  LEU301      0.0270
    109  CG       -12.8350    3.3030   18.0550 C.3   301  LEU301      0.0019
    110  CD1      -11.8450    4.2810   17.4230 C.3   301  LEU301      0.0001
    111  CD2      -13.1650    2.1530   17.1000 C.3   301  LEU301      0.0001
@<TRIPOS>BOND
     1    37    36    2
     2    34    35    1
     3    36    35    1
     4    35    38    1
     5    38    39    1
     6    40    39   ar
     7    40    42   ar
     8    39    41   ar
     9    48    49    1
    10    15    16    1
    11    42    43   ar
    12    41    43   ar
    13    41    44   ar
    14    61    60    2
    15    16    19    1
    16    16    17    1
    17    52    49    1
    18    52    53    1
    19    49    50    1
    20    43    45   ar
    21    44    46   ar
    22    19    21    1
    23    19    20    1
    24    58    50   am
    25    58    59    1
    26    60    59    1
    27    22    17   am
    28    22    23    1
    29    54    53   ar
    30    54    56   ar
    31    17    18    2
    32    53    55   ar
    33    72    73    1
    34    50    51    2
    35    24    23    1
    36    24    25    2
    37    45    47   ar
    38    46    47   ar
    39    59    62    1
    40    23    26    1
    41    74    73    1
    42    74    75    2
    43    56    57   ar
    44    73    76    1
    45    26    27    1
    46    62    63    1
    47    55    57   ar
    48    29    27   ar
    49    29    31   ar
    50    27    28   ar
    51    31    32   ar
    52    28    30   ar
    53    64    63   ar
    54    64    66   ar
    55    63    65   ar
    56    76    77    1
    57    32    30   ar
    58    32    33    1
    59    77    79   ar
    60    77    78   ar
    61    79    81   ar
    62    66    67   ar
    63    78    80   ar
    64    81    82   ar
    65    65    67   ar
    66    65    68   ar
    67    80    82   ar
    68    67    69   ar
    69     1     2    1
    70    68    70   ar
    71     2     5    1
    72     2     3    1
    73   111   109    1
    74   110   109    1
    75     5     6    1
    76     7     6   ar
    77     7     9   ar
    78    69    71   ar
    79    70    71   ar
    80   109   108    1
    81     3     4    2
    82     6     8   ar
    83     9    10   ar
    84     8    10   ar
    85     8    11   ar
    86   108   105    1
    87    10    12   ar
    88    11    13   ar
    89   107   106    2
    90   105   106    1
    91   105   104    1
    92    12    14   ar
    93    13    14   ar
    94   103   102   ar
    95   103   101   ar
    96   102   100   ar
    97    88    89    1
    98    88    87    1
    99    89    83    1
   100   101    99   ar
   101   100    97   ar
   102    87    84    1
   103    99    97   ar
   104    99    98   ar
   105    83    84    1
   106    97    95   ar
   107    84    85    1
   108    98    96   ar
   109    85    90   am
   110    85    86    2
   111    95    96   ar
   112    95    94    1
   113    90    91    1
   114    94    91    1
   115    91    92    1
   116    92    93    2
