@<TRIPOS>MOLECULE
tmp/3v39A00.pdb
 110 103 0 0 0
SMALL
GASTEIGER

@<TRIPOS>ATOM
      1  N          3.4210   89.8710   27.8870 N.3    83  ASN83      -0.1240
      2  CA         4.4650   90.8690   28.1420 C.3    83  ASN83       0.1653
      3  C          5.1010   91.3980   26.8530 C.2    83  ASN83       0.2266
      4  O          5.3140   92.6320   26.7550 O.2    83  ASN83      -0.2867
      5  CB         5.4720   90.3230   29.1360 C.3    83  ASN83       0.1155
      6  CG         4.8410   90.1450   30.5040 C.2    83  ASN83       0.2627
      7  OD1        4.0380   90.9990   30.9170 O.2    83  ASN83      -0.2716
      8  ND2        5.0800   88.9690   31.1200 N.am   83  ASN83      -0.0877
      9  N          3.6800   82.7660   29.6740 N.3   116  GLU116     -0.1245
     10  CA         4.6420   82.7290   30.8190 C.3   116  GLU116      0.1567
     11  C          3.9470   82.5810   32.1450 C.2   116  GLU116      0.2260
     12  O          4.5310   82.8880   33.2300 O.2   116  GLU116     -0.2867
     13  CB         5.3040   84.1460   30.9490 C.3   116  GLU116      0.0388
     14  CG         6.0880   84.5390   29.8430 C.3   116  GLU116      0.1160
     15  CD         6.8870   85.7270   30.1980 C.2   116  GLU116      0.3649
     16  OE1        6.4990   86.8620   29.8030 O.co2 116  GLU116     -0.2457
     17  OE2        7.9320   85.5770   30.8460 O.co2 116  GLU116     -0.2457
     18  N         -0.3680   94.2540   35.9140 N.3   154  TYR154     -0.1241
     19  CA         0.6340   93.5100   35.1730 C.3   154  TYR154      0.1605
     20  C          1.6170   94.4270   34.4170 C.2   154  TYR154      0.2264
     21  O          2.7830   94.1020   34.2850 O.2   154  TYR154     -0.2867
     22  CB        -0.0210   92.5270   34.1540 C.3   154  TYR154      0.0534
     23  CG        -0.5490   91.2480   34.7830 C.ar  154  TYR154     -0.0201
     24  CD1        0.3130   90.2050   35.0200 C.ar  154  TYR154     -0.0009
     25  CD2       -1.9230   91.0600   35.0160 C.ar  154  TYR154     -0.0009
     26  CE1       -0.1840   88.9850   35.5840 C.ar  154  TYR154      0.0417
     27  CE2       -2.3960   89.8870   35.5600 C.ar  154  TYR154      0.0417
     28  CZ        -1.5210   88.8910   35.8370 C.ar  154  TYR154      0.1957
     29  OH        -1.9300   87.6810   36.3520 O.3   154  TYR154     -0.2866
     30  N          4.3110   96.0320   36.7910 N.3   157  ILE157     -0.1231
     31  CA         5.3000   95.0180   37.1650 C.3   157  ILE157      0.1692
     32  C          6.3110   94.7960   36.0400 C.2   157  ILE157      0.2591
     33  O          7.5230   94.8170   36.2850 O.2   157  ILE157     -0.2718
     34  CB         4.6030   93.7390   37.5190 C.3   157  ILE157      0.0266
     35  CG1        3.8370   94.0270   38.8420 C.3   157  ILE157      0.0019
     36  CG2        5.5730   92.5650   37.6230 C.3   157  ILE157      0.0020
     37  CD1        3.1430   92.8770   39.2620 C.3   157  ILE157      0.0001
     38  N          5.7950   94.6930   34.8180 N.am  158  LEU158     -0.1980
     39  CA         6.6670   94.5020   33.6630 C.3   158  LEU158      0.1596
     40  C          7.5640   95.7090   33.4360 C.2   158  LEU158      0.2287
     41  O          8.7650   95.5590   33.1880 O.2   158  LEU158     -0.2864
     42  CB         5.7960   94.2140   32.4340 C.3   158  LEU158      0.0297
     43  CG         6.6990   94.0790   31.1830 C.3   158  LEU158      0.0022
     44  CD1        7.5440   92.8060   31.2670 C.3   158  LEU158      0.0001
     45  CD2        5.7400   94.0190   29.9590 C.3   158  LEU158      0.0001
     46  N         10.4240   95.8300   35.8200 N.3   161  LYS161     -0.1245
     47  CA        11.4410   94.8380   35.4750 C.3   161  LYS161      0.1561
     48  C         12.2460   95.2600   34.2400 C.2   161  LYS161      0.2260
     49  O         13.4680   95.1140   34.1850 O.2   161  LYS161     -0.2867
     50  CB        10.7320   93.4850   35.1780 C.3   161  LYS161      0.0271
     51  CG        10.2770   92.7800   36.4640 C.3   161  LYS161      0.0035
     52  CD         9.5610   91.5100   36.1260 C.3   161  LYS161      0.0206
     53  CE         9.1320   90.8570   37.4790 C.3   161  LYS161      0.1093
     54  NZ         8.5020   89.5510   37.2280 N.3   161  LYS161     -0.1314
     55  N         14.4570   81.5610   30.5050 N.3   210  ARG210     -0.1245
     56  CA        13.1390   81.6540   31.0820 C.3   210  ARG210      0.1563
     57  C         12.4250   80.3130   31.0790 C.2   210  ARG210      0.2260
     58  O         11.8640   79.8900   32.1270 O.2   210  ARG210     -0.2867
     59  CB        12.3190   82.6890   30.2680 C.3   210  ARG210      0.0307
     60  CG        10.8870   82.8620   30.7890 C.3   210  ARG210      0.0489
     61  CD        10.8600   83.3820   32.2250 C.3   210  ARG210      0.2205
     62  NE         9.5310   83.9830   32.4750 N.pl3 210  ARG210     -0.0865
     63  CZ         9.1080   84.2480   33.7090 C.cat 210  ARG210      0.5346
     64  NH1        9.7870   83.9320   34.7970 N.pl3 210  ARG210      0.1354
     65  NH2        7.9140   84.8990   33.8400 N.pl3 210  ARG210      0.1354
     66  N         13.9330   78.1250   33.7280 N.3   213  ASN213     -0.1240
     67  CA        13.7030   78.5440   35.0920 C.3   213  ASN213      0.1653
     68  C         12.3180   78.1180   35.5110 C.2   213  ASN213      0.2266
     69  O         12.1510   77.6310   36.6500 O.2   213  ASN213     -0.2867
     70  CB        13.7300   80.0910   35.1830 C.3   213  ASN213      0.1155
     71  CG        15.1290   80.6780   35.4070 C.2   213  ASN213      0.2627
     72  OD1       16.1450   79.9650   35.6470 O.2   213  ASN213     -0.2716
     73  ND2       15.1970   82.0230   35.2940 N.am  213  ASN213     -0.0877
     74  N         13.6930   83.0680   40.8470 N.3   304  ALA304     -0.1301
     75  CA        12.4730   82.8550   40.0810 C.3   304  ALA304      0.1247
     76  C         12.6400   81.6070   39.2120 C.3   304  ALA304      0.2009
     77  O         12.5150   81.6800   37.9020 O.3   304  ALA304     -0.2188
     78  CB        12.1780   84.0910   39.2160 C.3   304  ALA304      0.0233
     79  N         19.9890   86.4410   36.5500 N.3   388  GLN388     -0.1231
     80  CA        19.4790   87.0600   35.3230 C.3   388  GLN388      0.1698
     81  C         18.0050   87.4030   35.4380 C.2   388  GLN388      0.2592
     82  O         17.2860   86.8220   36.2610 O.2   388  GLN388     -0.2718
     83  CB        19.7890   86.1570   34.0960 C.3   388  GLN388      0.0381
     84  CG        21.3270   86.0450   33.8880 C.3   388  GLN388      0.0905
     85  CD        21.7040   85.0520   32.8170 C.2   388  GLN388      0.2608
     86  OE1       20.8450   84.4730   32.1620 O.2   388  GLN388     -0.2717
     87  NE2       22.9900   84.8790   32.6000 N.am  388  GLN388     -0.0878
     88  N         17.5550   88.3410   34.6010 N.am  389  LEU389     -0.1966
     89  CA        16.1340   88.7260   34.5620 C.3   389  LEU389      0.1713
     90  C         15.6200   88.4910   33.1310 C.2   389  LEU389      0.2458
     91  O         15.6360   89.4080   32.3110 O.2   389  LEU389     -0.2730
     92  CB        16.0080   90.1820   34.9850 C.3   389  LEU389      0.0310
     93  CG        14.5510   90.7120   35.0390 C.3   389  LEU389      0.0022
     94  CD1       13.7210   89.8500   35.9610 C.3   389  LEU389      0.0001
     95  CD2       14.5630   92.1500   35.5570 C.3   389  LEU389      0.0001
     96  N         15.2130   87.2470   32.8120 N.am  390  PRO390     -0.2716
     97  CA        14.9570   86.9520   31.3750 C.3   390  PRO390      0.1536
     98  C         13.5760   87.3300   30.9180 C.2   390  PRO390      0.2598
     99  O         12.6920   86.4840   30.9950 O.2   390  PRO390     -0.2715
    100  CB        15.1490   85.4040   31.3090 C.3   390  PRO390      0.0310
    101  CG        14.7920   84.9590   32.7330 C.3   390  PRO390      0.0237
    102  CD        15.3400   86.0250   33.6430 C.3   390  PRO390      0.0939
    103  N         13.4220   88.5120   30.3870 N.am  391  LEU391     -0.1978
    104  CA        12.1450   88.9280   29.8010 C.3   391  LEU391      0.1596
    105  C         12.0960   88.5710   28.2880 C.2   391  LEU391      0.2287
    106  O         13.0930   88.2120   27.7170 O.2   391  LEU391     -0.2864
    107  CB        12.0190   90.4650   29.9010 C.3   391  LEU391      0.0297
    108  CG        12.0940   91.0720   31.3240 C.3   391  LEU391      0.0022
    109  CD1       11.9400   92.5680   31.2450 C.3   391  LEU391      0.0001
    110  CD2       10.9690   90.5100   32.2130 C.3   391  LEU391      0.0001
@<TRIPOS>BOND
     1     4     3    2
     2     3     2    1
     3   106   105    2
     4     1     2    1
     5     2     5    1
     6   105   104    1
     7     5     6    1
     8     9    10    1
     9   104   107    1
    10   104   103    1
    11    16    15   ar
    12    14    15    1
    13    14    13    1
    14   107   108    1
    15    45    43    1
    16    15    17   ar
    17    59    60    1
    18    59    56    1
    19   103    98   am
    20     6     7    2
    21     6     8   am
    22    55    56    1
    23    60    61    1
    24    10    13    1
    25    10    11    1
    26    98    99    2
    27    98    97    1
    28    57    56    1
    29    57    58    2
    30    43    44    1
    31    43    42    1
    32   109   108    1
    33   100    97    1
    34   100   101    1
    35   108   110    1
    36    97    96    1
    37    11    12    2
    38    86    85    2
    39    61    62    1
    40    91    90    2
    41    42    39    1
    42    62    63    2
    43    87    85   am
    44   101   102    1
    45    96    90   am
    46    96   102    1
    47    85    84    1
    48    90    89    1
    49    41    40    2
    50    40    39    1
    51    39    38    1
    52    63    65    1
    53    63    64    1
    54    66    67    1
    55    84    83    1
    56    83    80    1
    57    22    23    1
    58    22    19    1
    59    49    48    2
    60    48    47    1
    61    21    20    2
    62    20    19    1
    63    89    88    1
    64    89    92    1
    65    88    81   am
    66    23    25   ar
    67    23    24   ar
    68    38    32   am
    69    92    93    1
    70    25    27   ar
    71    24    26   ar
    72    93    95    1
    73    93    94    1
    74    67    70    1
    75    67    68    1
    76    19    18    1
    77    50    47    1
    78    50    51    1
    79    70    71    1
    80    73    71   am
    81    80    81    1
    82    80    79    1
    83    71    72    2
    84    81    82    2
    85    47    46    1
    86    68    69    2
    87    27    28   ar
    88    26    28   ar
    89    28    29    1
    90    32    33    2
    91    32    31    1
    92    52    51    1
    93    52    53    1
    94    30    31    1
    95    31    34    1
    96    54    53    1
    97    34    36    1
    98    34    35    1
    99    77    76    1
   100    35    37    1
   101    76    75    1
   102    78    75    1
   103    75    74    1
