@<TRIPOS>MOLECULE
tmp/3v3bB00.pdb
 160 155 0 0 0
SMALL
GASTEIGER

@<TRIPOS>ATOM
      1  N        -14.9450  -10.5000   32.1710 N.3    28  LYS28      -0.1245
      2  CA       -14.7020   -9.7990   33.4380 C.3    28  LYS28       0.1561
      3  C        -13.4620   -8.9180   33.3500 C.2    28  LYS28       0.2260
      4  O        -13.4580   -7.7730   33.8210 O.2    28  LYS28      -0.2867
      5  CB       -14.5550  -10.8090   34.5920 C.3    28  LYS28       0.0271
      6  CG       -15.7720  -11.6750   34.8300 C.3    28  LYS28       0.0035
      7  CD       -16.9800  -10.8250   35.1660 C.3    28  LYS28       0.0206
      8  CE       -18.0870  -11.6670   35.7770 C.3    28  LYS28       0.1093
      9  NZ       -18.3540  -12.8530   34.9170 N.3    28  LYS28      -0.1314
     10  N        -14.1160   -5.8520   30.9210 N.3    31  LEU31      -0.1231
     11  CA       -14.8940   -4.8300   31.6200 C.3    31  LEU31       0.1693
     12  C        -14.0910   -4.0940   32.7080 C.2    31  LEU31       0.2592
     13  O        -14.2430   -2.8790   32.8810 O.2    31  LEU31      -0.2718
     14  CB       -16.1760   -5.4280   32.1880 C.3    31  LEU31       0.0284
     15  CG       -17.2300   -5.7750   31.1280 C.3    31  LEU31       0.0019
     16  CD1      -18.1760   -6.8440   31.6580 C.3    31  LEU31       0.0001
     17  CD2      -17.9800   -4.5230   30.6950 C.3    31  LEU31       0.0001
     18  N        -13.2360   -4.8210   33.4310 N.am   32  PHE32      -0.1976
     19  CA       -12.3460   -4.1800   34.3990 C.3    32  PHE32       0.1639
     20  C        -11.4150   -3.1630   33.7290 C.2    32  PHE32       0.2290
     21  O        -11.3320   -2.0090   34.1550 O.2    32  PHE32      -0.2864
     22  CB       -11.4980   -5.1940   35.1730 C.3    32  PHE32       0.0560
     23  CG       -10.4630   -4.5390   36.0550 C.ar   32  PHE32      -0.0200
     24  CD1      -10.8280   -3.9970   37.2820 C.ar   32  PHE32      -0.0042
     25  CD2       -9.1490   -4.3980   35.6300 C.ar   32  PHE32      -0.0042
     26  CE1       -9.8880   -3.3630   38.0920 C.ar   32  PHE32      -0.0003
     27  CE2       -8.2080   -3.7630   36.4440 C.ar   32  PHE32      -0.0003
     28  CZ        -8.5930   -3.2490   37.6780 C.ar   32  PHE32      -0.0000
     29  N        -11.5920   -1.6760   30.8660 N.3    34  LEU34      -0.1231
     30  CA       -12.3560   -0.5930   30.2460 C.3    34  LEU34       0.1693
     31  C        -12.7900    0.4370   31.2750 C.2    34  LEU34       0.2593
     32  O        -12.7190    1.6430   31.0330 O.2    34  LEU34      -0.2718
     33  CB       -13.5810   -1.1560   29.5250 C.3    34  LEU34       0.0284
     34  CG       -14.4230   -0.1590   28.7320 C.3    34  LEU34       0.0019
     35  CD1      -13.5500    0.5610   27.6780 C.3    34  LEU34       0.0001
     36  CD2      -15.6380   -0.8700   28.0900 C.3    34  LEU34       0.0001
     37  N        -13.2610   -0.0430   32.4190 N.am   35  GLY35      -0.1942
     38  CA       -13.5680    0.8330   33.5420 C.3    35  GLY35       0.2014
     39  C        -12.3360    1.5910   34.0060 C.2    35  GLY35       0.2638
     40  O        -12.4130    2.7830   34.3080 O.2    35  GLY35      -0.2714
     41  N        -11.1980    0.8980   34.0490 N.am   36  GLN36      -0.1977
     42  CA        -9.9190    1.5140   34.4330 C.3    36  GLN36       0.1601
     43  C         -9.5210    2.5890   33.4420 C.2    36  GLN36       0.2287
     44  O         -9.0430    3.6470   33.8310 O.2    36  GLN36      -0.2864
     45  CB        -8.7910    0.4830   34.4980 C.3    36  GLN36       0.0394
     46  CG        -8.6870   -0.2580   35.8110 C.3    36  GLN36       0.0908
     47  CD        -8.3630    0.6580   36.9610 C.2    36  GLN36       0.2608
     48  OE1       -7.5620    1.5730   36.8300 O.2    36  GLN36      -0.2717
     49  NE2       -8.9960    0.4210   38.0990 N.am   36  GLN36      -0.0878
     50  N        -11.5180    4.3960   31.3620 N.3    38  ILE38      -0.1231
     51  CA       -12.4280    5.5470   31.4440 C.3    38  ILE38       0.1692
     52  C        -12.1130    6.3780   32.6950 C.2    38  ILE38       0.2591
     53  O        -12.0360    7.6130   32.6350 O.2    38  ILE38      -0.2718
     54  CB       -13.9020    5.0990   31.4670 C.3    38  ILE38       0.0266
     55  CG1      -14.2940    4.4450   30.1360 C.3    38  ILE38       0.0019
     56  CG2      -14.8180    6.2770   31.7660 C.3    38  ILE38       0.0020
     57  CD1      -15.5980    3.6280   30.1910 C.3    38  ILE38       0.0001
     58  N        -11.9100    5.6880   33.8170 N.am   39  MET39      -0.1979
     59  CA       -11.6250    6.3520   35.0850 C.3    39  MET39       0.1605
     60  C        -10.3110    7.1050   34.9980 C.2    39  MET39       0.2287
     61  O        -10.2370    8.2960   35.3270 O.2    39  MET39      -0.2864
     62  CB       -11.5380    5.3430   36.2270 C.3    39  MET39       0.0413
     63  CG       -11.2460    6.0130   37.5680 C.3    39  MET39       0.0598
     64  SD       -11.3770    4.8800   38.9530 S.3    39  MET39      -0.1393
     65  CE       -10.0400    3.7370   38.5990 C.3    39  MET39       0.0692
     66  N        -15.3380   10.5360   32.1950 N.3    44  TYR44      -0.1241
     67  CA       -16.6360   10.7000   32.8420 C.3    44  TYR44       0.1605
     68  C        -16.8450   12.1630   33.2360 C.2    44  TYR44       0.2264
     69  O        -15.8850   12.8840   33.4780 O.2    44  TYR44      -0.2867
     70  CB       -16.7490    9.7850   34.0760 C.3    44  TYR44       0.0534
     71  CG       -15.7110   10.0470   35.1510 C.ar   44  TYR44      -0.0201
     72  CD1      -15.9460   10.9760   36.1590 C.ar   44  TYR44      -0.0009
     73  CD2      -14.4980    9.3520   35.1650 C.ar   44  TYR44      -0.0009
     74  CE1      -15.0160   11.2070   37.1510 C.ar   44  TYR44       0.0417
     75  CE2      -13.5480    9.5900   36.1500 C.ar   44  TYR44       0.0417
     76  CZ       -13.8150   10.5280   37.1400 C.ar   44  TYR44       0.1957
     77  OH       -12.8890   10.7720   38.1260 O.3    44  TYR44      -0.2866
     78  N        -21.2990   11.4330   37.1990 N.3    49  GLN49      -0.1231
     79  CA       -20.2190   10.5480   36.7630 C.3    49  GLN49       0.1698
     80  C        -20.6680    9.3000   35.9980 C.2    49  GLN49       0.2592
     81  O        -19.8400    8.5540   35.4800 O.2    49  GLN49      -0.2718
     82  CB       -19.3500   10.1590   37.9630 C.3    49  GLN49       0.0381
     83  CG       -18.7590   11.3880   38.6480 C.3    49  GLN49       0.0905
     84  CD       -17.5420   11.0910   39.4720 C.2    49  GLN49       0.2608
     85  OE1      -17.1430    9.9390   39.6200 O.2    49  GLN49      -0.2717
     86  NE2      -16.9210   12.1450   40.0020 N.am   49  GLN49      -0.0878
     87  N        -21.9740    9.0840   35.9060 N.am   50  HIS50      -0.1976
     88  CA       -22.4930    8.0310   35.0410 C.3    50  HIS50       0.1656
     89  C        -22.4180    8.4200   33.5610 C.2    50  HIS50       0.2291
     90  O        -22.6220    7.5640   32.7000 O.2    50  HIS50      -0.2864
     91  CB       -23.9250    7.6670   35.4330 C.3    50  HIS50       0.0771
     92  CG       -24.9420    8.6890   35.0390 C.ar   50  HIS50       0.0820
     93  ND1      -25.6320    8.6290   33.8490 N.ar   50  HIS50      -0.2267
     94  CD2      -25.3770    9.8050   35.6720 C.ar   50  HIS50       0.1154
     95  CE1      -26.4660    9.6540   33.7790 C.ar   50  HIS50       0.1986
     96  NE2      -26.3270   10.3840   34.8700 N.ar   50  HIS50      -0.2212
     97  N        -20.3380    9.3590   30.3440 N.3    52  VAL52      -0.1245
     98  CA       -19.0190    9.2630   29.7140 C.3    52  VAL52       0.1561
     99  C        -19.0280   10.0600   28.4120 C.2    52  VAL52       0.2260
    100  O        -19.9060    9.8620   27.5650 O.2    52  VAL52      -0.2867
    101  CB       -18.6400    7.7720   29.4320 C.3    52  VAL52       0.0252
    102  CG1      -17.2580    7.6540   28.8060 C.3    52  VAL52       0.0019
    103  CG2      -18.7030    6.9640   30.7120 C.3    52  VAL52       0.0019
    104  N        -21.9830    8.3620   26.1750 N.3    68  PHE68      -0.1241
    105  CA       -22.9640    7.3820   26.6190 C.3    68  PHE68       0.1605
    106  C        -23.1250    7.4010   28.1340 C.2    68  PHE68       0.2264
    107  O        -22.2820    7.9330   28.8720 O.2    68  PHE68      -0.2867
    108  CB       -22.6120    5.9750   26.1080 C.3    68  PHE68       0.0534
    109  CG       -21.2970    5.4450   26.6150 C.ar   68  PHE68      -0.0203
    110  CD1      -21.2590    4.5500   27.6610 C.ar   68  PHE68      -0.0042
    111  CD2      -20.0910    5.8430   26.0380 C.ar   68  PHE68      -0.0042
    112  CE1      -20.0510    4.0480   28.1350 C.ar   68  PHE68      -0.0003
    113  CE2      -18.8830    5.3510   26.5090 C.ar   68  PHE68      -0.0003
    114  CZ       -18.8730    4.4400   27.5630 C.ar   68  PHE68      -0.0000
    115  N        -23.4080    5.0640   31.5600 N.3    70  VAL70      -0.1231
    116  CA       -23.0270    3.7500   32.0860 C.3    70  VAL70       0.1692
    117  C        -24.2300    2.7910   32.1960 C.2    70  VAL70       0.2591
    118  O        -24.0580    1.5760   32.2040 O.2    70  VAL70      -0.2718
    119  CB       -22.3050    3.8500   33.4590 C.3    70  VAL70       0.0266
    120  CG1      -22.0440    2.4430   34.0330 C.3    70  VAL70       0.0020
    121  CG2      -20.9810    4.6240   33.3130 C.3    70  VAL70       0.0020
    122  N        -25.4450    3.3340   32.2310 N.am   71  LYS71      -0.1980
    123  CA       -26.6480    2.5010   32.2670 C.3    71  LYS71       0.1596
    124  C        -27.0130    1.9220   30.8990 C.2    71  LYS71       0.2287
    125  O        -27.9510    1.1360   30.8030 O.2    71  LYS71      -0.2864
    126  CB       -27.8240    3.2860   32.8590 C.3    71  LYS71       0.0298
    127  CG       -27.5330    3.8650   34.2220 C.3    71  LYS71       0.0038
    128  CD       -27.2090    2.7370   35.1710 C.3    71  LYS71       0.0206
    129  CE       -26.3620    3.1980   36.3370 C.3    71  LYS71       0.1093
    130  NZ       -25.9130    2.0110   37.1230 N.3    71  LYS71      -0.1314
    131  N        -26.4270   -0.5840   29.0820 N.3    73  HIS73      -0.1241
    132  CA       -25.8790   -1.9490   29.1000 C.3    73  HIS73       0.1621
    133  C        -25.8390   -2.5430   27.7120 C.2    73  HIS73       0.2264
    134  O        -24.8280   -3.1260   27.3260 O.2    73  HIS73      -0.2867
    135  CB       -26.6900   -2.8660   30.0270 C.3    73  HIS73       0.0745
    136  CG       -26.4770   -2.5830   31.4800 C.ar   73  HIS73       0.0817
    137  ND1      -26.0700   -1.3500   31.9410 N.ar   73  HIS73      -0.2268
    138  CD2      -26.6210   -3.3640   32.5760 C.ar   73  HIS73       0.1154
    139  CE1      -25.9660   -1.3840   33.2580 C.ar   73  HIS73       0.1986
    140  NE2      -26.2920   -2.5960   33.6690 N.ar   73  HIS73      -0.2212
    141  N        -23.0960   -0.9420   25.5660 N.3    76  ILE76      -0.1231
    142  CA       -21.7670   -1.2940   26.0570 C.3    76  ILE76       0.1692
    143  C        -21.3590   -2.7180   25.6640 C.2    76  ILE76       0.2592
    144  O        -20.3160   -2.9210   25.0370 O.2    76  ILE76      -0.2718
    145  CB       -21.6730   -1.0820   27.5650 C.3    76  ILE76       0.0266
    146  CG1      -21.7200    0.4270   27.8510 C.3    76  ILE76       0.0019
    147  CG2      -20.3780   -1.6840   28.1080 C.3    76  ILE76       0.0020
    148  CD1      -22.0260    0.7710   29.2580 C.3    76  ILE76       0.0001
    149  N        -22.1840   -3.7040   26.0020 N.am   77  TYR77      -0.1976
    150  CA       -21.8700   -5.0860   25.6420 C.3    77  TYR77       0.1639
    151  C        -21.8040   -5.3020   24.1170 C.2    77  TYR77       0.2290
    152  O        -20.9640   -6.0540   23.6250 O.2    77  TYR77      -0.2864
    153  CB       -22.8640   -6.0490   26.2990 C.3    77  TYR77       0.0560
    154  CG       -22.5480   -6.2920   27.7520 C.ar   77  TYR77      -0.0198
    155  CD1      -23.2030   -5.5930   28.7630 C.ar   77  TYR77      -0.0009
    156  CD2      -21.5740   -7.2170   28.1190 C.ar   77  TYR77      -0.0009
    157  CE1      -22.8960   -5.8140   30.0980 C.ar   77  TYR77       0.0417
    158  CE2      -21.2680   -7.4450   29.4540 C.ar   77  TYR77       0.0417
    159  CZ       -21.9250   -6.7380   30.4300 C.ar   77  TYR77       0.1957
    160  OH       -21.6220   -6.9750   31.7500 O.3    77  TYR77      -0.2866
@<TRIPOS>BOND
     1   152   151    2
     2   151   150    1
     3   144   143    2
     4   141   142    1
     5   150   149    1
     6   150   153    1
     7   143   149   am
     8   143   142    1
     9   111   113   ar
    10   111   109   ar
    11   142   145    1
    12   108   109    1
    13   108   105    1
    14   104   105    1
    15   153   154    1
    16   113   114   ar
    17   109   110   ar
    18   105   106    1
    19   134   133    2
    20   114   112   ar
    21   145   146    1
    22   145   147    1
    23   100    99    2
    24   110   112   ar
    25    35    34    1
    26   133   132    1
    27   154   156   ar
    28   154   155   ar
    29   146   148    1
    30    36    34    1
    31   156   158   ar
    32   106   107    2
    33    99    98    1
    34    34    33    1
    35   155   157   ar
    36   102   101    1
    37   131   132    1
    38   132   135    1
    39   101    98    1
    40   101   103    1
    41   158   159   ar
    42    33    30    1
    43    98    97    1
    44   135   136    1
    45   157   159   ar
    46    55    57    1
    47    55    54    1
    48    30    29    1
    49    30    31    1
    50   159   160    1
    51    17    15    1
    52   125   124    2
    53   124   123    1
    54    10    11    1
    55    32    31    2
    56    15    16    1
    57    15    14    1
    58    31    37   am
    59    50    51    1
    60    51    54    1
    61    51    52    1
    62    54    56    1
    63   136   137   ar
    64   136   138   ar
    65   115   116    1
    66    11    14    1
    67    11    12    1
    68   137   139   ar
    69   116   117    1
    70   116   119    1
    71     1     2    1
    72    66    67    1
    73   117   118    2
    74   117   122   am
    75   122   123    1
    76   123   126    1
    77    37    38    1
    78   138   140   ar
    79    53    52    2
    80    52    58   am
    81    90    89    2
    82    12    13    2
    83    12    18   am
    84    67    68    1
    85    67    70    1
    86   126   127    1
    87    68    69    2
    88   139   140   ar
    89   121   119    1
    90     3     2    1
    91     3     4    2
    92    18    19    1
    93     2     5    1
    94    43    44    2
    95    43    42    1
    96   119   120    1
    97    38    39    1
    98    89    88    1
    99    20    21    2
   100    20    19    1
   101    95    93   ar
   102    95    96   ar
   103    58    59    1
   104    93    92   ar
   105    39    41   am
   106    39    40    2
   107    41    42    1
   108    70    71    1
   109   127   128    1
   110    19    22    1
   111    42    45    1
   112    45    46    1
   113     5     6    1
   114     6     7    1
   115    96    94   ar
   116     9     8    1
   117    60    59    1
   118    60    61    2
   119    92    91    1
   120    92    94   ar
   121    88    91    1
   122    88    87    1
   123    59    62    1
   124    71    73   ar
   125    71    72   ar
   126    73    75   ar
   127     7     8    1
   128   128   129    1
   129    22    23    1
   130    81    80    2
   131    25    23   ar
   132    25    27   ar
   133    46    47    1
   134    87    80   am
   135    80    79    1
   136    23    24   ar
   137    75    76   ar
   138    72    74   ar
   139    62    63    1
   140   129   130    1
   141    27    28   ar
   142    79    78    1
   143    79    82    1
   144    48    47    2
   145    47    49   am
   146    76    74   ar
   147    76    77    1
   148    24    26   ar
   149    63    64    1
   150    28    26   ar
   151    82    83    1
   152    65    64    1
   153    83    84    1
   154    84    85    2
   155    84    86   am
