@<TRIPOS>MOLECULE
tmp/3v3mA00.pdb
 191 189 0 0 0
SMALL
GASTEIGER

@<TRIPOS>ATOM
      1  N         27.9930  -37.7940    1.0470 N.3    25  THR25      -0.1203
      2  CA        26.8670  -36.9710    0.5870 C.3    25  THR25       0.1994
      3  C         25.5870  -37.7840    0.5590 C.2    25  THR25       0.2619
      4  O         25.5640  -38.8930    0.0240 O.2    25  THR25      -0.2717
      5  CB        27.1590  -36.3410   -0.7840 C.3    25  THR25       0.1784
      6  OG1       28.3260  -35.5200   -0.6770 O.3    25  THR25      -0.2211
      7  CG2       25.9820  -35.4630   -1.2720 C.3    25  THR25       0.0376
      8  N         24.5330  -37.2380    1.1630 N.am   26  THR26      -0.1938
      9  CA        23.1990  -37.8250    1.0810 C.3    26  THR26       0.2028
     10  C         22.1920  -36.8110    0.5200 C.2    26  THR26       0.2642
     11  O         22.2520  -35.6200    0.8330 O.2    26  THR26      -0.2714
     12  CB        22.7040  -38.3360    2.4530 C.3    26  THR26       0.1808
     13  OG1       23.6280  -39.3070    2.9760 O.3    26  THR26      -0.2208
     14  CG2       21.3490  -38.9940    2.3170 C.3    26  THR26       0.0379
     15  N         21.2820  -37.3070   -0.3130 N.am   27  LEU27      -0.1977
     16  CA        20.1580  -36.5230   -0.8290 C.3    27  LEU27       0.1596
     17  C         19.0260  -37.4610   -1.2140 C.2    27  LEU27       0.2287
     18  O         19.0930  -38.6760   -0.9540 O.2    27  LEU27      -0.2864
     19  CB        20.5880  -35.6410   -2.0110 C.3    27  LEU27       0.0297
     20  CG        21.5510  -36.1530   -3.0910 C.3    27  LEU27       0.0022
     21  CD1       20.9970  -37.3340   -3.8820 C.3    27  LEU27       0.0001
     22  CD2       21.8810  -35.0060   -4.0370 C.3    27  LEU27       0.0001
     23  N         25.1710  -34.4130   -8.8290 N.3    41  HIS41      -0.1241
     24  CA        26.0800  -33.7760   -7.8590 C.3    41  HIS41       0.1621
     25  C         26.2350  -34.5160   -6.5430 C.2    41  HIS41       0.2264
     26  O         27.0390  -34.1270   -5.6970 O.2    41  HIS41      -0.2867
     27  CB        25.7900  -32.2760   -7.6710 C.3    41  HIS41       0.0745
     28  CG        24.5840  -31.9620   -6.8020 C.ar   41  HIS41       0.0817
     29  ND1       23.5500  -31.1990   -7.2430 N.ar   41  HIS41      -0.2268
     30  CD2       24.2990  -32.2720   -5.4710 C.ar   41  HIS41       0.1154
     31  CE1       22.6380  -31.0610   -6.2540 C.ar   41  HIS41       0.1986
     32  NE2       23.0930  -31.7130   -5.1740 N.ar   41  HIS41      -0.2212
     33  N         29.8270  -35.5090   -6.2970 N.3    44  CYS44      -0.1235
     34  CA        30.7870  -34.3980   -6.2340 C.3    44  CYS44       0.1677
     35  C         31.5900  -34.4300   -4.9340 C.2    44  CYS44       0.2270
     36  O         31.0260  -34.5600   -3.8450 O.2    44  CYS44      -0.2867
     37  CB        30.0700  -33.0460   -6.4110 C.3    44  CYS44       0.0956
     38  SG        31.1320  -31.5740   -6.5240 S.3    44  CYS44      -0.0801
     39  N         33.8320  -28.2530   -5.4230 N.3    49  MET49      -0.1245
     40  CA        32.5380  -28.0300   -6.0340 C.3    49  MET49       0.1570
     41  C         32.7220  -27.0680   -7.2090 C.2    49  MET49       0.2261
     42  O         31.8160  -26.8820   -8.0230 O.2    49  MET49      -0.2867
     43  CB        31.5780  -27.4560   -4.9980 C.3    49  MET49       0.0387
     44  CG        31.2490  -28.4150   -3.8630 C.3    49  MET49       0.0595
     45  SD        30.2880  -27.6460   -2.5450 S.3    49  MET49      -0.1393
     46  CE        31.5710  -26.7500   -1.6660 C.3    49  MET49       0.0692
     47  N         32.0950  -34.5190  -14.2700 N.3    54  TYR54      -0.1241
     48  CA        31.1780  -35.5830  -13.8550 C.3    54  TYR54       0.1605
     49  C         31.4250  -36.9040  -14.5630 C.2    54  TYR54       0.2264
     50  O         31.2590  -37.9610  -13.9540 O.2    54  TYR54      -0.2867
     51  CB        29.7130  -35.1510  -13.9530 C.3    54  TYR54       0.0534
     52  CG        29.3360  -34.2030  -12.8420 C.ar   54  TYR54      -0.0201
     53  CD1       29.2340  -32.8250  -13.0740 C.ar   54  TYR54      -0.0009
     54  CD2       29.1290  -34.6740  -11.5450 C.ar   54  TYR54      -0.0009
     55  CE1       28.8930  -31.9520  -12.0500 C.ar   54  TYR54       0.0417
     56  CE2       28.7940  -33.8110  -10.5180 C.ar   54  TYR54       0.0417
     57  CZ        28.6770  -32.4540  -10.7740 C.ar   54  TYR54       0.1957
     58  OH        28.3620  -31.6070   -9.7390 O.3    54  TYR54      -0.2866
     59  N         13.3980  -24.4180    0.6750 N.3   140  PHE140     -0.1227
     60  CA        14.2820  -25.5900    0.6530 C.3   140  PHE140      0.1736
     61  C         15.4810  -25.3100    1.5590 C.2   140  PHE140      0.2595
     62  O         16.0770  -24.2160    1.5070 O.2   140  PHE140     -0.2718
     63  CB        14.8270  -25.8210   -0.7610 C.3   140  PHE140      0.0547
     64  CG        13.8870  -26.5200   -1.7160 C.ar  140  PHE140     -0.0202
     65  CD1       13.7130  -26.0250   -3.0140 C.ar  140  PHE140     -0.0042
     66  CD2       13.2260  -27.6930   -1.3560 C.ar  140  PHE140     -0.0042
     67  CE1       12.8980  -26.6800   -3.9270 C.ar  140  PHE140     -0.0003
     68  CE2       12.4110  -28.3610   -2.2730 C.ar  140  PHE140     -0.0003
     69  CZ        12.2600  -27.8600   -3.5620 C.ar  140  PHE140     -0.0000
     70  N         15.8390  -26.3110    2.3590 N.am  141  LEU141     -0.1966
     71  CA        17.0100  -26.2690    3.2220 C.3   141  LEU141      0.1728
     72  C         18.0970  -27.2230    2.6940 C.2   141  LEU141      0.2616
     73  O         17.8610  -27.9370    1.7200 O.2   141  LEU141     -0.2715
     74  CB        16.5940  -26.6890    4.6430 C.3   141  LEU141      0.0311
     75  CG        16.1800  -25.6730    5.7230 C.3   141  LEU141      0.0022
     76  CD1       15.6120  -24.3680    5.2130 C.3   141  LEU141      0.0001
     77  CD2       15.2870  -26.2650    6.8150 C.3   141  LEU141      0.0001
     78  N         19.2760  -27.2290    3.3330 N.am  142  ASN142     -0.1958
     79  CA        20.3500  -28.1990    3.0270 C.3   142  ASN142      0.1819
     80  C         19.8160  -29.6170    3.0150 C.2   142  ASN142      0.2622
     81  O         19.0830  -29.9990    3.9130 O.2   142  ASN142     -0.2715
     82  CB        21.4720  -28.1300    4.0710 C.3   142  ASN142      0.1195
     83  CG        22.2860  -26.8640    3.9710 C.2   142  ASN142      0.2630
     84  OD1       22.2480  -26.1600    2.9580 O.2   142  ASN142     -0.2716
     85  ND2       23.0390  -26.5630    5.0300 N.am  142  ASN142     -0.0877
     86  N         20.1540  -30.3820    1.9850 N.am  143  GLY143     -0.1940
     87  CA        19.7180  -31.7820    1.8980 C.3   143  GLY143      0.2014
     88  C         18.3960  -31.9960    1.1820 C.2   143  GLY143      0.2640
     89  O         17.9120  -33.1330    1.0720 O.2   143  GLY143     -0.2714
     90  N         17.8150  -30.9080    0.6830 N.am  144  SER144     -0.1935
     91  CA        16.5520  -30.9740   -0.0430 C.3   144  SER144      0.2055
     92  C         16.7260  -31.4460   -1.4830 C.2   144  SER144      0.2643
     93  O         15.7380  -31.7700   -2.1460 O.2   144  SER144     -0.2714
     94  CB        15.8500  -29.5980   -0.0360 C.3   144  SER144      0.2130
     95  OG        16.6650  -28.5850   -0.6120 O.3   144  SER144     -0.2179
     96  N         17.9720  -31.4560   -1.9770 N.am  145  CYS145     -0.1967
     97  CA        18.2350  -31.8820   -3.3620 C.3   145  CYS145      0.1712
     98  C         17.5810  -33.2230   -3.6790 C.2   145  CYS145      0.2296
     99  O         17.5700  -34.1370   -2.8410 O.2   145  CYS145     -0.2864
    100  CB        19.7350  -31.9460   -3.6380 C.3   145  CYS145      0.0983
    101  SG        20.5970  -30.4590   -3.0840 S.3   145  CYS145     -0.0798
    102  N         14.9270  -30.8880   -7.7320 N.3   163  HIS163     -0.1226
    103  CA        15.7030  -29.8050   -7.1200 C.3   163  HIS163      0.1752
    104  C         17.1980  -30.0500   -7.0640 C.2   163  HIS163      0.2596
    105  O         17.6420  -31.1170   -6.6150 O.2   163  HIS163     -0.2718
    106  CB        15.1820  -29.4970   -5.7180 C.3   163  HIS163      0.0759
    107  CG        15.8780  -28.3300   -5.0940 C.ar  163  HIS163      0.0818
    108  ND1       15.9950  -27.1430   -5.7300 N.ar  163  HIS163     -0.2268
    109  CD2       16.5470  -28.1980   -3.8780 C.ar  163  HIS163      0.1154
    110  CE1       16.6970  -26.2860   -4.9560 C.ar  163  HIS163      0.1986
    111  NE2       17.0310  -26.9300   -3.8180 N.ar  163  HIS163     -0.2212
    112  N         17.9870  -29.0520   -7.4740 N.am  164  HIS164     -0.1961
    113  CA        19.4650  -29.1770   -7.4870 C.3   164  HIS164      0.1787
    114  C         20.1990  -28.2310   -6.5740 C.2   164  HIS164      0.2620
    115  O         21.1280  -28.6360   -5.8990 O.2   164  HIS164     -0.2715
    116  CB        20.0190  -29.0310   -8.9110 C.3   164  HIS164      0.0785
    117  CG        19.9280  -30.2950   -9.7360 C.ar  164  HIS164      0.0821
    118  ND1       18.7460  -30.8140  -10.1570 N.ar  164  HIS164     -0.2267
    119  CD2       20.9240  -31.1270  -10.2370 C.ar  164  HIS164      0.1154
    120  CE1       18.9860  -31.9310  -10.8850 C.ar  164  HIS164      0.1986
    121  NE2       20.3180  -32.1250  -10.9190 N.ar  164  HIS164     -0.2212
    122  N         19.8300  -26.9550   -6.5530 N.am  165  MET165     -0.1963
    123  CA        20.6430  -25.9960   -5.8130 C.3   165  MET165      0.1736
    124  C         19.9340  -24.6870   -5.4950 C.2   165  MET165      0.2616
    125  O         18.8740  -24.3640   -6.0680 O.2   165  MET165     -0.2715
    126  CB        21.9310  -25.6960   -6.5870 C.3   165  MET165      0.0427
    127  CG        21.6680  -24.9310   -7.8690 C.3   165  MET165      0.0599
    128  SD        23.0450  -25.0930   -9.0060 S.3   165  MET165     -0.1393
    129  CE        22.5720  -23.8320  -10.1770 C.3   165  MET165      0.0692
    130  N         20.5330  -23.9420   -4.5750 N.am  166  GLU166     -0.1963
    131  CA        20.0160  -22.6400   -4.1940 C.3   166  GLU166      0.1733
    132  C         20.9730  -21.5780   -4.7030 C.2   166  GLU166      0.2616
    133  O         22.1940  -21.7530   -4.6130 O.2   166  GLU166     -0.2715
    134  CB        19.8680  -22.5340   -2.6790 C.3   166  GLU166      0.0429
    135  CG        19.2510  -21.2210   -2.2280 C.3   166  GLU166      0.1163
    136  CD        18.9200  -21.1910   -0.7540 C.2   166  GLU166      0.3649
    137  OE1       19.6520  -20.5040   -0.0070 O.co2 166  GLU166     -0.2457
    138  OE2       17.9310  -21.8380   -0.3410 O.co2 166  GLU166     -0.2457
    139  N         20.4140  -20.4780   -5.1990 N.am  167  LEU167     -0.1964
    140  CA        21.1890  -19.3850   -5.7840 C.3   167  LEU167      0.1713
    141  C         21.4100  -18.3100   -4.7420 C.2   167  LEU167      0.2458
    142  O         20.7360  -18.3220   -3.7130 O.2   167  LEU167     -0.2730
    143  CB        20.4640  -18.8210   -7.0160 C.3   167  LEU167      0.0310
    144  CG        20.3440  -19.8030   -8.1830 C.3   167  LEU167      0.0022
    145  CD1       19.4140  -19.2550   -9.2550 C.3   167  LEU167      0.0001
    146  CD2       21.7030  -20.1390   -8.7820 C.3   167  LEU167      0.0001
    147  N         22.3550  -17.3760   -4.9870 N.am  168  PRO168     -0.2727
    148  CA        22.6730  -16.3870   -3.9400 C.3   168  PRO168      0.1402
    149  C         21.4720  -15.6260   -3.3780 C.2   168  PRO168      0.2269
    150  O         21.4630  -15.3010   -2.1830 O.2   168  PRO168     -0.2865
    151  CB        23.6380  -15.4300   -4.6510 C.3   168  PRO168      0.0296
    152  CG        24.3570  -16.3160   -5.6140 C.3   168  PRO168      0.0237
    153  CD        23.3180  -17.3010   -6.1050 C.3   168  PRO168      0.0939
    154  N         15.7000  -20.9450   -6.2230 N.3   172  HIS172     -0.1241
    155  CA        16.1110  -22.3360   -6.4650 C.3   172  HIS172      0.1621
    156  C         16.1630  -22.7100   -7.9100 C.2   172  HIS172      0.2264
    157  O         15.4030  -22.1700   -8.7270 O.2   172  HIS172     -0.2867
    158  CB        15.1640  -23.2410   -5.6890 C.3   172  HIS172      0.0745
    159  CG        15.1880  -22.9400   -4.2290 C.ar  172  HIS172      0.0817
    160  ND1       14.1910  -22.2750   -3.6050 N.ar  172  HIS172     -0.2268
    161  CD2       16.1840  -23.1370   -3.2880 C.ar  172  HIS172      0.1154
    162  CE1       14.5150  -22.1030   -2.3080 C.ar  172  HIS172      0.1986
    163  NE2       15.7370  -22.6340   -2.1140 N.ar  172  HIS172     -0.2212
    164  N         25.4340  -27.3230  -12.5630 N.3   187  ASP187     -0.1225
    165  CA        25.5490  -27.9650  -11.2410 C.3   187  ASP187      0.1805
    166  C         26.9920  -27.9620  -10.7090 C.2   187  ASP187      0.2598
    167  O         27.6140  -29.0120  -10.4840 O.2   187  ASP187     -0.2718
    168  CB        24.8900  -29.3600  -11.2060 C.3   187  ASP187      0.1424
    169  CG        25.3890  -30.3050  -12.3030 C.2   187  ASP187      0.3668
    170  OD1       26.0720  -29.8710  -13.2540 O.co2 187  ASP187     -0.2456
    171  OD2       25.0770  -31.5090  -12.2170 O.co2 187  ASP187     -0.2456
    172  N         27.5080  -26.7510  -10.5170 N.am  188  ARG188     -0.1966
    173  CA        28.7960  -26.5230   -9.8620 C.3   188  ARG188      0.1729
    174  C         28.7930  -25.1220   -9.2600 C.2   188  ARG188      0.2616
    175  O         27.9470  -24.2980   -9.6090 O.2   188  ARG188     -0.2715
    176  CB        29.9720  -26.6940  -10.8460 C.3   188  ARG188      0.0348
    177  CG        29.9110  -25.8220  -12.0930 C.3   188  ARG188      0.0492
    178  CD        30.9260  -26.2760  -13.1420 C.3   188  ARG188      0.2205
    179  NE        30.9420  -25.3660  -14.2900 N.pl3 188  ARG188     -0.0865
    180  CZ        30.2500  -25.5430  -15.4170 C.cat 188  ARG188      0.5346
    181  NH1       30.3350  -24.6470  -16.3940 N.pl3 188  ARG188      0.1354
    182  NH2       29.4770  -26.6100  -15.5780 N.pl3 188  ARG188      0.1354
    183  N         29.7350  -24.8600   -8.3580 N.am  189  GLN189     -0.1977
    184  CA        29.8470  -23.5520   -7.7090 C.3   189  GLN189      0.1601
    185  C         30.5050  -22.5340   -8.6510 C.2   189  GLN189      0.2287
    186  O         31.7000  -22.6230   -8.9300 O.2   189  GLN189     -0.2864
    187  CB        30.6390  -23.6890   -6.4020 C.3   189  GLN189      0.0394
    188  CG        30.5960  -22.4750   -5.4860 C.3   189  GLN189      0.0908
    189  CD        31.2820  -22.7290   -4.1550 C.2   189  GLN189      0.2608
    190  OE1       30.9680  -23.6990   -3.4540 O.2   189  GLN189     -0.2717
    191  NE2       32.2320  -21.8610   -3.7980 N.am  189  GLN189     -0.0878
@<TRIPOS>BOND
     1   181   180    1
     2   182   180    1
     3   180   179    2
     4    49    50    2
     5    49    48    1
     6   179   178    1
     7    47    48    1
     8    51    48    1
     9    51    52    1
    10   170   169   ar
    11   178   177    1
    12    53    52   ar
    13    53    55   ar
    14    52    54   ar
    15   164   165    1
    16   169   171   ar
    17   169   168    1
    18   177   176    1
    19    55    57   ar
    20    54    56   ar
    21   165   168    1
    22   165   166    1
    23   121   120   ar
    24   121   119   ar
    25   120   118   ar
    26   176   173    1
    27    57    56   ar
    28    57    58    1
    29   166   172   am
    30   166   167    2
    31   172   173    1
    32   119   117   ar
    33   129   128    1
    34   118   117   ar
    35   173   174    1
    36   117   116    1
    37   175   174    2
    38   174   183   am
    39   145   144    1
    40   128   127    1
    41   186   185    2
    42   116   113    1
    43    23    24    1
    44   146   144    1
    45   157   156    2
    46   185   184    1
    47   183   184    1
    48   144   143    1
    49    42    41    2
    50   156   155    1
    51   127   126    1
    52    24    27    1
    53    24    25    1
    54   102   103    1
    55   184   187    1
    56    27    28    1
    57   113   112    1
    58   113   114    1
    59   112   104   am
    60    29    28   ar
    61    29    31   ar
    62    41    40    1
    63   103   104    1
    64   103   106    1
    65   104   105    2
    66   143   140    1
    67    28    30   ar
    68   126   123    1
    69   114   122   am
    70   114   115    2
    71   122   123    1
    72    25    26    2
    73    38    37    1
    74   155   154    1
    75   155   158    1
    76    37    34    1
    77   187   188    1
    78    33    34    1
    79    31    32   ar
    80    34    35    1
    81   153   152    1
    82   153   147    1
    83   125   124    2
    84    40    39    1
    85    40    43    1
    86   123   124    1
    87   140   139    1
    88   140   141    1
    89   108   107   ar
    90   108   110   ar
    91   106   107    1
    92   158   159    1
    93   152   151    1
    94   124   130   am
    95   188   189    1
    96    30    32   ar
    97   139   132   am
    98   107   109   ar
    99    43    44    1
   100   147   141   am
   101   147   148    1
   102   110   111   ar
   103    35    36    2
   104   141   142    2
   105   132   133    2
   106   132   131    1
   107   151   148    1
   108   130   131    1
   109   159   160   ar
   110   159   161   ar
   111   131   134    1
   112   189   191   am
   113   189   190    2
   114    22    20    1
   115   148   149    1
   116    67    69   ar
   117    67    65   ar
   118    21    20    1
   119   109   111   ar
   120    44    45    1
   121    98    97    1
   122    98    99    2
   123   100    97    1
   124   100   101    1
   125   160   162   ar
   126    69    68   ar
   127   149   150    2
   128    97    96    1
   129   161   163   ar
   130    20    19    1
   131    65    64   ar
   132   134   135    1
   133    45    46    1
   134   162   163   ar
   135    68    66   ar
   136   135   136    1
   137    93    92    2
   138    19    16    1
   139    96    92   am
   140    64    66   ar
   141    64    63    1
   142    92    91    1
   143     7     5    1
   144    17    18    2
   145    17    16    1
   146    16    15    1
   147     5     6    1
   148     5     2    1
   149    63    60    1
   150   136   138   ar
   151   136   137   ar
   152    95    94    1
   153    15    10   am
   154    91    94    1
   155    91    90    1
   156     4     3    2
   157    10    11    2
   158    10     9    1
   159     3     2    1
   160     3     8   am
   161     2     1    1
   162    60    59    1
   163    60    61    1
   164    90    88   am
   165    89    88    2
   166     9     8    1
   167     9    12    1
   168    88    87    1
   169    62    61    2
   170    61    70   am
   171    73    72    2
   172    87    86    1
   173    86    80   am
   174    14    12    1
   175    70    71    1
   176    12    13    1
   177    72    71    1
   178    72    78   am
   179    84    83    2
   180    80    79    1
   181    80    81    2
   182    79    78    1
   183    79    82    1
   184    71    74    1
   185    83    82    1
   186    83    85   am
   187    74    75    1
   188    76    75    1
   189    75    77    1
