@<TRIPOS>MOLECULE
tmp/3v3nA00.pdb
 183 175 0 0 0
SMALL
GASTEIGER

@<TRIPOS>ATOM
      1  N        -17.7080  -19.5450  -19.9840 N.3    45  GLY45      -0.1210
      2  CA       -17.7780  -19.6550  -18.5420 C.3    45  GLY45       0.1956
      3  C        -16.4950  -19.3270  -17.8120 C.2    45  GLY45       0.2612
      4  O        -15.6070  -18.6420  -18.3200 O.2    45  GLY45      -0.2717
      5  N        -16.4080  -19.8230  -16.5890 N.am   46  THR46      -0.1952
      6  CA       -15.2530  -19.5810  -15.7530 C.3    46  THR46       0.1897
      7  C        -14.3820  -20.8060  -15.7990 C.2    46  THR46       0.2313
      8  O        -14.8650  -21.9150  -16.0020 O.2    46  THR46      -0.2863
      9  CB       -15.6370  -19.2700  -14.2910 C.3    46  THR46       0.1794
     10  OG1      -16.4750  -20.3180  -13.7880 O.3    46  THR46      -0.2208
     11  CG2      -16.3770  -17.9600  -14.2010 C.3    46  THR46       0.0378
     12  N        -11.5890  -23.1640  -13.7990 N.3    48  ASP48      -0.1239
     13  CA       -11.0300  -23.5370  -12.5040 C.3    48  ASP48       0.1674
     14  C         -9.6560  -24.1650  -12.7380 C.2    48  ASP48       0.2266
     15  O         -9.4920  -25.0790  -13.5490 O.2    48  ASP48      -0.2867
     16  CB       -11.9550  -24.4890  -11.7430 C.3    48  ASP48       0.1410
     17  CG       -12.1590  -25.8190  -12.4710 C.2    48  ASP48       0.3668
     18  OD1      -12.3980  -25.8060  -13.7060 O.co2  48  ASP48      -0.2456
     19  OD2      -12.0620  -26.8830  -11.8090 O.co2  48  ASP48      -0.2456
     20  N         -6.8680  -26.3600  -11.1640 N.3    50  HIS50      -0.1241
     21  CA        -6.6440  -27.3280  -10.0990 C.3    50  HIS50       0.1621
     22  C         -5.2150  -27.2260   -9.5760 C.2    50  HIS50       0.2264
     23  O         -4.2900  -26.9290  -10.3380 O.2    50  HIS50      -0.2867
     24  CB        -6.8780  -28.7520  -10.6070 C.3    50  HIS50       0.0745
     25  CG        -8.2150  -28.9670  -11.2460 C.ar   50  HIS50       0.0817
     26  ND1       -8.5890  -30.1810  -11.7820 N.ar   50  HIS50      -0.2268
     27  CD2       -9.2640  -28.1300  -11.4380 C.ar   50  HIS50       0.1154
     28  CE1       -9.8110  -30.0810  -12.2770 C.ar   50  HIS50       0.1986
     29  NE2      -10.2430  -28.8480  -12.0810 N.ar   50  HIS50      -0.2212
     30  N        -13.4170  -20.5660   -9.1460 N.3   101  GLU101     -0.1245
     31  CA       -13.7320  -20.1770  -10.5190 C.3   101  GLU101      0.1567
     32  C        -13.1680  -18.7870  -10.8230 C.2   101  GLU101      0.2260
     33  O        -13.3720  -17.8440  -10.0430 O.2   101  GLU101     -0.2867
     34  CB       -15.2500  -20.2070  -10.7480 C.3   101  GLU101      0.0388
     35  CG       -15.9010  -21.5850  -10.5140 C.3   101  GLU101      0.1160
     36  CD       -15.4510  -22.6550  -11.5190 C.2   101  GLU101      0.3649
     37  OE1      -15.3260  -22.3160  -12.7190 O.co2 101  GLU101     -0.2457
     38  OE2      -15.2290  -23.8290  -11.1150 O.co2 101  GLU101     -0.2457
     39  N        -23.4640  -28.2380  -27.7990 N.3   177  ASN177     -0.1240
     40  CA       -23.6380  -27.3290  -26.6610 C.3   177  ASN177      0.1653
     41  C        -24.1990  -25.9750  -27.0520 C.2   177  ASN177      0.2266
     42  O        -23.7410  -25.3610  -28.0020 O.2   177  ASN177     -0.2867
     43  CB       -22.3100  -27.1340  -25.9430 C.3   177  ASN177      0.1155
     44  CG       -21.5090  -28.4240  -25.8530 C.2   177  ASN177      0.2627
     45  OD1      -21.7060  -29.2220  -24.9350 O.2   177  ASN177     -0.2716
     46  ND2      -20.6030  -28.6400  -26.8160 N.am  177  ASN177     -0.0877
     47  N        -24.8020  -22.1970  -25.4840 N.3   179  GLN179     -0.1245
     48  CA       -24.3920  -21.3520  -24.3610 C.3   179  GLN179      0.1566
     49  C        -24.9400  -19.9250  -24.4630 C.2   179  GLN179      0.2260
     50  O        -25.1010  -19.4030  -25.5570 O.2   179  GLN179     -0.2867
     51  CB       -22.8680  -21.3070  -24.3120 C.3   179  GLN179      0.0367
     52  CG       -22.2250  -22.6690  -24.5580 C.3   179  GLN179      0.0905
     53  CD       -22.1030  -23.5020  -23.2870 C.2   179  GLN179      0.2608
     54  OE1      -22.6300  -24.6250  -23.1960 O.2   179  GLN179     -0.2717
     55  NE2      -21.3960  -22.9550  -22.2970 N.am  179  GLN179     -0.0878
     56  N        -23.2030  -22.7900   -8.3820 N.3   200  ARG200     -0.1245
     57  CA       -23.3470  -23.3350   -9.7260 C.3   200  ARG200      0.1563
     58  C        -24.5750  -24.2360   -9.6810 C.2   200  ARG200      0.2260
     59  O        -25.1000  -24.5270   -8.6130 O.2   200  ARG200     -0.2867
     60  CB       -22.1040  -24.1390  -10.1480 C.3   200  ARG200      0.0307
     61  CG       -20.7730  -23.3720  -10.0600 C.3   200  ARG200      0.0489
     62  CD       -19.6960  -23.9840  -10.9640 C.3   200  ARG200      0.2205
     63  NE       -19.7680  -25.4490  -11.0140 N.pl3 200  ARG200     -0.0865
     64  CZ       -18.9380  -26.2220  -11.7140 C.cat 200  ARG200      0.5346
     65  NH1      -17.9570  -25.6700  -12.4270 N.pl3 200  ARG200      0.1354
     66  NH2      -19.0860  -27.5450  -11.7020 N.pl3 200  ARG200      0.1354
     67  N        -26.5400  -27.7470  -11.7730 N.3   202  MET202     -0.1245
     68  CA       -26.6050  -28.7140  -12.8630 C.3   202  MET202      0.1570
     69  C        -27.7620  -29.6980  -12.7620 C.2   202  MET202      0.2261
     70  O        -27.7250  -30.6350  -11.9880 O.2   202  MET202     -0.2867
     71  CB       -25.2760  -29.4440  -13.0380 C.3   202  MET202      0.0387
     72  CG       -24.6540  -29.9490  -11.7760 C.3   202  MET202      0.0595
     73  SD       -22.9970  -30.5810  -12.0830 S.3   202  MET202     -0.1393
     74  CE       -22.0700  -29.0660  -12.3660 C.3   202  MET202      0.0692
     75  N        -26.2970  -26.6680  -17.3340 N.3   211  PHE211     -0.1227
     76  CA       -25.2690  -26.2330  -16.4010 C.3   211  PHE211      0.1736
     77  C        -25.4000  -24.7320  -16.2680 C.2   211  PHE211      0.2595
     78  O        -25.8770  -24.0820  -17.1970 O.2   211  PHE211     -0.2718
     79  CB       -23.8760  -26.5590  -16.9340 C.3   211  PHE211      0.0547
     80  CG       -23.6380  -28.0210  -17.1780 C.ar  211  PHE211     -0.0202
     81  CD1      -23.9530  -28.5920  -18.4040 C.ar  211  PHE211     -0.0042
     82  CD2      -23.0880  -28.8220  -16.1850 C.ar  211  PHE211     -0.0042
     83  CE1      -23.7260  -29.9380  -18.6380 C.ar  211  PHE211     -0.0003
     84  CE2      -22.8560  -30.1750  -16.4130 C.ar  211  PHE211     -0.0003
     85  CZ       -23.1700  -30.7320  -17.6430 C.ar  211  PHE211     -0.0000
     86  N        -24.9810  -24.1740  -15.1340 N.am  212  ALA212     -0.1966
     87  CA       -25.1360  -22.7350  -14.9170 C.3   212  ALA212      0.1728
     88  C        -24.2760  -22.1430  -13.8060 C.2   212  ALA212      0.2616
     89  O        -24.1960  -22.6600  -12.7140 O.2   212  ALA212     -0.2715
     90  CB       -26.6110  -22.3640  -14.7070 C.3   212  ALA212      0.0334
     91  N        -23.6250  -21.0360  -14.1000 N.am  213  ASN213     -0.1972
     92  CA       -22.9830  -20.2730  -13.0560 C.3   213  ASN213      0.1688
     93  C        -23.7800  -18.9920  -12.9100 C.2   213  ASN213      0.2292
     94  O        -23.9870  -18.2870  -13.8780 O.2   213  ASN213     -0.2864
     95  CB       -21.5310  -19.9980  -13.4220 C.3   213  ASN213      0.1181
     96  CG       -20.8070  -19.2070  -12.3710 C.2   213  ASN213      0.2629
     97  OD1      -21.4170  -18.5520  -11.5440 O.2   213  ASN213     -0.2716
     98  ND2      -19.4870  -19.2550  -12.4040 N.am  213  ASN213     -0.0877
     99  N        -24.1720  -17.3190  -16.5300 N.3   221  HIS221     -0.1226
    100  CA       -23.7870  -18.0300  -17.7540 C.3   221  HIS221      0.1752
    101  C        -24.2920  -19.4520  -17.7030 C.2   221  HIS221      0.2596
    102  O        -23.8860  -20.2100  -16.8190 O.2   221  HIS221     -0.2718
    103  CB       -22.2700  -18.0710  -17.8930 C.3   221  HIS221      0.0759
    104  CG       -21.7890  -18.7330  -19.1510 C.ar  221  HIS221      0.0818
    105  ND1      -21.1650  -19.9640  -19.1540 N.ar  221  HIS221     -0.2268
    106  CD2      -21.8170  -18.3200  -20.4460 C.ar  221  HIS221      0.1154
    107  CE1      -20.8420  -20.2910  -20.3960 C.ar  221  HIS221      0.1986
    108  NE2      -21.2240  -19.3100  -21.1980 N.ar  221  HIS221     -0.2212
    109  N        -25.1670  -19.8280  -18.6290 N.am  222  PHE222     -0.1962
    110  CA       -25.6270  -21.2150  -18.6650 C.3   222  PHE222      0.1771
    111  C        -25.3210  -21.8990  -19.9820 C.2   222  PHE222      0.2620
    112  O        -25.1720  -21.2470  -21.0180 O.2   222  PHE222     -0.2715
    113  CB       -27.1180  -21.3160  -18.3920 C.3   222  PHE222      0.0574
    114  CG       -27.9680  -20.7590  -19.4900 C.ar  222  PHE222     -0.0200
    115  CD1      -28.3320  -19.4280  -19.4880 C.ar  222  PHE222     -0.0042
    116  CD2      -28.4120  -21.5630  -20.5230 C.ar  222  PHE222     -0.0042
    117  CE1      -29.1210  -18.9100  -20.4840 C.ar  222  PHE222     -0.0003
    118  CE2      -29.1940  -21.0390  -21.5300 C.ar  222  PHE222     -0.0003
    119  CZ       -29.5440  -19.7100  -21.5050 C.ar  222  PHE222     -0.0000
    120  N        -25.2460  -23.2250  -19.9330 N.am  223  GLY223     -0.1954
    121  CA       -25.0580  -24.0340  -21.1210 C.3   223  GLY223      0.1869
    122  C        -25.9350  -25.2720  -21.1070 C.2   223  GLY223      0.2309
    123  O        -25.9640  -26.0060  -20.1200 O.2   223  GLY223     -0.2863
    124  N        -26.7250  -28.9770  -23.0450 N.3   225  SER225     -0.1217
    125  CA       -26.0510  -29.9470  -23.9150 C.3   225  SER225      0.1889
    126  C        -26.9200  -31.1730  -24.1740 C.2   225  SER225      0.2288
    127  O        -27.7550  -31.5390  -23.3540 O.2   225  SER225     -0.2866
    128  CB       -24.7020  -30.3870  -23.3190 C.3   225  SER225      0.2089
    129  OG       -23.9570  -29.2760  -22.8450 O.3   225  SER225     -0.2183
    130  N        -15.7320  -30.5350  -23.1950 N.3   303  PRO303     -0.2102
    131  CA       -15.6990  -29.7290  -21.9720 C.3   303  PRO303      0.1504
    132  C        -16.5920  -30.3180  -20.8580 C.2   303  PRO303      0.2576
    133  O        -17.5060  -29.6510  -20.3500 O.2   303  PRO303     -0.2718
    134  CB       -16.2490  -28.3910  -22.4510 C.3   303  PRO303      0.0282
    135  CG       -17.2170  -28.7680  -23.5260 C.3   303  PRO303      0.0208
    136  CD       -16.6520  -29.9750  -24.1980 C.3   303  PRO303      0.0893
    137  N        -16.3150  -31.5630  -20.4750 N.am  304  PHE304     -0.1963
    138  CA       -17.1710  -32.2740  -19.5340 C.3   304  PHE304      0.1771
    139  C        -16.4080  -32.8180  -18.3180 C.2   304  PHE304      0.2619
    140  O        -16.9340  -33.6590  -17.5820 O.2   304  PHE304     -0.2715
    141  CB       -17.9050  -33.4140  -20.2490 C.3   304  PHE304      0.0574
    142  CG       -18.8440  -32.9580  -21.3400 C.ar  304  PHE304     -0.0200
    143  CD1      -20.1520  -32.6120  -21.0540 C.ar  304  PHE304     -0.0042
    144  CD2      -18.4230  -32.8990  -22.6560 C.ar  304  PHE304     -0.0042
    145  CE1      -21.0270  -32.2150  -22.0630 C.ar  304  PHE304     -0.0003
    146  CE2      -19.2840  -32.4960  -23.6670 C.ar  304  PHE304     -0.0003
    147  CZ       -20.5880  -32.1500  -23.3660 C.ar  304  PHE304     -0.0000
    148  N        -15.1830  -32.3360  -18.0990 N.am  305  ALA305     -0.1963
    149  CA       -14.3750  -32.8280  -16.9790 C.3   305  ALA305      0.1728
    150  C        -13.4360  -31.7990  -16.3360 C.2   305  ALA305      0.2616
    151  O        -12.6540  -32.1410  -15.4420 O.2   305  ALA305     -0.2715
    152  CB       -13.6010  -34.0860  -17.3820 C.3   305  ALA305      0.0334
    153  N        -13.5090  -30.5500  -16.7840 N.am  306  GLY306     -0.1955
    154  CA       -12.7080  -29.4880  -16.1940 C.3   306  GLY306      0.1869
    155  C        -11.2420  -29.4930  -16.5990 C.2   306  GLY306      0.2309
    156  O        -10.4320  -28.7090  -16.0950 O.2   306  GLY306     -0.2863
    157  N        -16.7320  -39.2790  -19.5170 N.3   356  ASN356     -0.1240
    158  CA       -17.7450  -38.4790  -18.8420 C.3   356  ASN356      0.1653
    159  C        -18.8500  -38.0460  -19.7780 C.2   356  ASN356      0.2266
    160  O        -20.0250  -38.0830  -19.4160 O.2   356  ASN356     -0.2867
    161  CB       -17.1210  -37.2660  -18.1730 C.3   356  ASN356      0.1155
    162  CG       -16.5080  -37.6050  -16.8290 C.2   356  ASN356      0.2627
    163  OD1      -16.5730  -36.8150  -15.8890 O.2   356  ASN356     -0.2716
    164  ND2      -15.9250  -38.7990  -16.7260 N.am  356  ASN356     -0.0877
    165  N        -23.0050  -39.1500  -19.1970 N.3   360  MET360     -0.1245
    166  CA       -24.2630  -38.4320  -19.3440 C.3   360  MET360      0.1570
    167  C        -24.8070  -38.7400  -20.7260 C.2   360  MET360      0.2261
    168  O        -24.2640  -39.5950  -21.4280 O.2   360  MET360     -0.2867
    169  CB       -24.0720  -36.9310  -19.1420 C.3   360  MET360      0.0387
    170  CG       -22.6200  -36.4970  -18.8930 C.3   360  MET360      0.0595
    171  SD       -22.4170  -35.2500  -17.5750 S.3   360  MET360     -0.1393
    172  CE       -20.7290  -34.7250  -17.8360 C.3   360  MET360      0.0692
    173  N        -26.9670  -37.4840  -11.6070 N.3   367  PHE367     -0.1241
    174  CA       -25.8660  -36.5420  -11.4000 C.3   367  PHE367      0.1605
    175  C        -25.0910  -36.8530  -10.1180 C.2   367  PHE367      0.2264
    176  O        -23.9060  -36.5300   -9.9970 O.2   367  PHE367     -0.2867
    177  CB       -26.3780  -35.0960  -11.3790 C.3   367  PHE367      0.0534
    178  CG       -25.9150  -34.2660  -12.5530 C.ar  367  PHE367     -0.0203
    179  CD1      -24.6200  -34.3740  -13.0230 C.ar  367  PHE367     -0.0042
    180  CD2      -26.7880  -33.3830  -13.1900 C.ar  367  PHE367     -0.0042
    181  CE1      -24.1940  -33.6050  -14.0990 C.ar  367  PHE367     -0.0003
    182  CE2      -26.3750  -32.6180  -14.2670 C.ar  367  PHE367     -0.0003
    183  CZ       -25.0760  -32.7290  -14.7250 C.ar  367  PHE367     -0.0000
@<TRIPOS>BOND
     1    42    41    2
     2    39    40    1
     3    41    40    1
     4    46    44   am
     5    40    43    1
     6    43    44    1
     7    44    45    2
     8    50    49    2
     9    47    48    1
    10    52    51    1
    11    52    53    1
    12    49    48    1
    13    48    51    1
    14   136   135    1
    15   136   130    1
    16   126   125    1
    17   126   127    2
    18   125   128    1
    19   125   124    1
    20   146   147   ar
    21   146   144   ar
    22   135   134    1
    23   147   145   ar
    24   128   129    1
    25    53    54    2
    26    53    55   am
    27   130   131    1
    28   144   142   ar
    29   134   131    1
    30   145   143   ar
    31   131   132    1
    32   118   119   ar
    33   118   116   ar
    34   119   117   ar
    35   168   167    2
    36   142   143   ar
    37   142   141    1
    38   108   106   ar
    39   108   107   ar
    40   121   122    1
    41   121   120    1
    42   122   123    2
    43   112   111    2
    44   132   137   am
    45   132   133    2
    46   167   166    1
    47   116   114   ar
    48   117   115   ar
    49   137   138    1
    50   106   104   ar
    51   107   105   ar
    52   141   138    1
    53     1     2    1
    54   111   120   am
    55   111   110    1
    56   159   160    2
    57   159   158    1
    58   138   139    1
    59   157   158    1
    60   114   115   ar
    61   114   113    1
    62   166   165    1
    63   166   169    1
    64   105   104   ar
    65   104   103    1
    66   169   170    1
    67   170   171    1
    68   158   161    1
    69   110   109    1
    70   110   113    1
    71    83    81   ar
    72    83    85   ar
    73   109   101   am
    74     2     3    1
    75    81    80   ar
    76     4     3    2
    77   139   148   am
    78   139   140    2
    79   161   162    1
    80   148   149    1
    81   103   100    1
    82   172   171    1
    83     3     5   am
    84   100   101    1
    85   100    99    1
    86   101   102    2
    87    85    84   ar
    88   152   149    1
    89    75    76    1
    90    78    77    2
    91    80    79    1
    92    80    82   ar
    93   149   150    1
    94    79    76    1
    95   162   164   am
    96   162   163    2
    97   153   150   am
    98   153   154    1
    99   155   154    1
   100   155   156    2
   101     5     6    1
   102    84    82   ar
   103    76    77    1
   104   150   151    2
   105    77    86   am
   106     8     7    2
   107     7     6    1
   108     6     9    1
   109    86    87    1
   110    87    90    1
   111    87    88    1
   112   183   182   ar
   113   183   181   ar
   114     9    11    1
   115     9    10    1
   116   182   180   ar
   117    91    88   am
   118    91    92    1
   119   181   179   ar
   120    94    93    2
   121    88    89    2
   122    12    13    1
   123    18    17   ar
   124    15    14    2
   125    95    92    1
   126    95    96    1
   127   180   178   ar
   128    92    93    1
   129    71    68    1
   130    71    72    1
   131   179   178   ar
   132    68    69    1
   133    68    67    1
   134    69    70    2
   135    14    13    1
   136    37    36   ar
   137   178   177    1
   138    13    16    1
   139    17    19   ar
   140    17    16    1
   141    65    64    1
   142    98    96   am
   143    96    97    2
   144    74    73    1
   145    28    29   ar
   146    28    26   ar
   147    73    72    1
   148    29    27   ar
   149    26    25   ar
   150    64    66    1
   151    64    63    2
   152   173   174    1
   153    36    38   ar
   154    36    35    1
   155    27    25   ar
   156   174   177    1
   157   174   175    1
   158    25    24    1
   159    20    21    1
   160    63    62    1
   161    62    61    1
   162    32    31    1
   163    32    33    2
   164    34    31    1
   165    34    35    1
   166    24    21    1
   167    31    30    1
   168    23    22    2
   169    60    61    1
   170    60    57    1
   171   175   176    2
   172    21    22    1
   173    57    58    1
   174    57    56    1
   175    58    59    2
