@<TRIPOS>MOLECULE
tmp/3v3oA01.pdb
 229 219 0 0 0
SMALL
GASTEIGER

@<TRIPOS>ATOM
      1  N         17.9800   24.9990  -13.8150 N.3    46  GLY46      -0.1210
      2  CA        18.1900   24.4390  -12.4960 C.3    46  GLY46       0.1956
      3  C         16.9270   23.9400  -11.8190 C.2    46  GLY46       0.2612
      4  O         16.1750   23.1110  -12.3760 O.2    46  GLY46      -0.2717
      5  N         16.7060   24.4280  -10.6010 N.am   47  THR47      -0.1952
      6  CA        15.6170   23.9320   -9.7920 C.3    47  THR47       0.1897
      7  C         14.6670   25.0540   -9.3950 C.2    47  THR47       0.2313
      8  O         15.0980   26.1350   -8.9850 O.2    47  THR47      -0.2863
      9  CB        16.1450   23.2710   -8.5220 C.3    47  THR47       0.1794
     10  OG1       16.8100   24.2510   -7.7130 O.3    47  THR47      -0.2208
     11  CG2       17.0940   22.1200   -8.8750 C.3    47  THR47       0.0378
     12  N         11.8920   26.7870   -6.9480 N.3    49  ASP49      -0.1239
     13  CA        11.4270   26.8310   -5.5760 C.3    49  ASP49       0.1674
     14  C         10.0330   27.3780   -5.5920 C.2    49  ASP49       0.2266
     15  O          9.7860   28.4930   -6.0280 O.2    49  ASP49      -0.2867
     16  CB        12.3600   27.6810   -4.7040 C.3    49  ASP49       0.1410
     17  CG        12.5300   29.1050   -5.2300 C.2    49  ASP49       0.3668
     18  OD1       13.1170   29.2420   -6.3340 O.co2  49  ASP49      -0.2456
     19  OD2       12.0880   30.0780   -4.5640 O.co2  49  ASP49      -0.2456
     20  N          7.1540   28.8110   -3.4580 N.3    51  HIS51      -0.1241
     21  CA         7.0000   29.4470   -2.1640 C.3    51  HIS51       0.1621
     22  C          5.6340   29.1310   -1.5980 C.2    51  HIS51       0.2264
     23  O          4.6380   29.1910   -2.3280 O.2    51  HIS51      -0.2867
     24  CB         7.1370   30.9650   -2.2880 C.3    51  HIS51       0.0745
     25  CG         8.5490   31.4400   -2.3920 C.ar   51  HIS51       0.0817
     26  ND1        9.1330   31.7710   -3.6010 N.ar   51  HIS51      -0.2268
     27  CD2        9.4870   31.6580   -1.4420 C.ar   51  HIS51       0.1154
     28  CE1       10.3800   32.1580   -3.3880 C.ar   51  HIS51       0.1986
     29  NE2       10.6200   32.0990   -2.0890 N.ar   51  HIS51      -0.2212
     30  N         10.5010   26.3680    0.7740 N.3   100  ASN100     -0.1240
     31  CA        10.8320   26.2870   -0.6450 C.3   100  ASN100      0.1653
     32  C         11.8650   25.1980   -0.9870 C.2   100  ASN100      0.2266
     33  O         13.0290   25.5100   -1.2900 O.2   100  ASN100     -0.2867
     34  CB        11.2220   27.6670   -1.2210 C.3   100  ASN100      0.1155
     35  CG        12.3860   28.3260   -0.4960 C.2   100  ASN100      0.2627
     36  OD1       12.6580   28.0470    0.6780 O.2   100  ASN100     -0.2716
     37  ND2       13.0720   29.2290   -1.1980 N.am  100  ASN100     -0.0877
     38  N         13.7140   22.5890   -3.2830 N.3   102  GLU102     -0.1245
     39  CA        14.0650   22.6630   -4.6980 C.3   102  GLU102      0.1567
     40  C         13.6040   21.4620   -5.5140 C.2   102  GLU102      0.2260
     41  O         14.0160   20.3280   -5.2650 O.2   102  GLU102     -0.2867
     42  CB        15.5790   22.8070   -4.8460 C.3   102  GLU102      0.0388
     43  CG        16.1910   24.0050   -4.1130 C.3   102  GLU102      0.1160
     44  CD        15.7900   25.3590   -4.6990 C.2   102  GLU102      0.3649
     45  OE1       15.9940   25.5820   -5.9180 O.co2 102  GLU102     -0.2457
     46  OE2       15.2950   26.2110   -3.9300 O.co2 102  GLU102     -0.2457
     47  N         24.4080   35.8980  -18.0480 N.3   178  ASN178     -0.1240
     48  CA        24.4620   34.6460  -17.2560 C.3   178  ASN178      0.1653
     49  C         25.0220   33.4610  -18.0140 C.2   178  ASN178      0.2266
     50  O         24.4400   33.0510  -19.0100 O.2   178  ASN178     -0.2867
     51  CB        23.0620   34.2310  -16.7350 C.3   178  ASN178      0.1155
     52  CG        22.3650   35.3200  -15.9120 C.2   178  ASN178      0.2627
     53  OD1       21.7680   36.2390  -16.4660 O.2   178  ASN178     -0.2716
     54  ND2       22.4010   35.1880  -14.5880 N.am  178  ASN178     -0.0877
     55  N         25.8480   29.2960  -17.7830 N.3   180  GLN180     -0.1245
     56  CA        25.3860   28.1270  -17.0020 C.3   180  GLN180      0.1566
     57  C         25.8730   26.7980  -17.5580 C.2   180  GLN180      0.2260
     58  O         25.9030   26.6030  -18.7560 O.2   180  GLN180     -0.2867
     59  CB        23.8620   28.0580  -16.9880 C.3   180  GLN180      0.0367
     60  CG        23.1900   29.4020  -16.8870 C.3   180  GLN180      0.0905
     61  CD        22.2280   29.4710  -15.7300 C.2   180  GLN180      0.2608
     62  OE1       21.2770   28.6740  -15.6530 O.2   180  GLN180     -0.2717
     63  NE2       22.4660   30.4270  -14.8070 N.am  180  GLN180     -0.0878
     64  N         23.3520   24.5920   -1.4410 N.3   201  ARG201     -0.1245
     65  CA        23.5680   25.6120   -2.4720 C.3   201  ARG201      0.1563
     66  C         24.7890   26.4350   -2.0770 C.2   201  ARG201      0.2260
     67  O         25.1940   26.4460   -0.9130 O.2   201  ARG201     -0.2867
     68  CB        22.3330   26.5170   -2.6500 C.3   201  ARG201      0.0307
     69  CG        21.0080   25.7380   -2.8090 C.3   201  ARG201      0.0489
     70  CD        20.0340   26.4110   -3.7690 C.3   201  ARG201      0.2205
     71  NE        19.7390   27.7880   -3.4040 N.pl3 201  ARG201     -0.0865
     72  CZ        18.7490   28.4940   -3.9370 C.cat 201  ARG201      0.5346
     73  NH1       17.9750   27.9480   -4.8650 N.pl3 201  ARG201      0.1354
     74  NH2       18.5380   29.7490   -3.5540 N.pl3 201  ARG201      0.1354
     75  N         26.6090   30.2880   -2.9060 N.3   203  MET203     -0.1245
     76  CA        26.5570   31.6200   -3.5010 C.3   203  MET203      0.1570
     77  C         27.7750   32.4870   -3.1460 C.2   203  MET203      0.2261
     78  O         27.9620   32.8570   -1.9920 O.2   203  MET203     -0.2867
     79  CB        25.2800   32.3340   -3.0600 C.3   203  MET203      0.0387
     80  CG        23.9990   31.6590   -3.5100 C.3   203  MET203      0.0595
     81  SD        22.6160   32.7400   -3.1530 S.3   203  MET203     -0.1393
     82  CE        21.2370   31.7220   -3.6810 C.3   203  MET203      0.0692
     83  N         26.9010   30.9530   -8.5780 N.3   212  PHE212     -0.1227
     84  CA        25.8850   30.2380   -7.8330 C.3   212  PHE212      0.1736
     85  C         26.0330   28.7830   -8.2050 C.2   212  PHE212      0.2595
     86  O         26.6020   28.4710   -9.2320 O.2   212  PHE212     -0.2718
     87  CB        24.4710   30.7270   -8.1830 C.3   212  PHE212      0.0547
     88  CG        24.2240   32.2260   -7.9340 C.ar  212  PHE212     -0.0202
     89  CD1       24.5240   33.1930   -8.9090 C.ar  212  PHE212     -0.0042
     90  CD2       23.6730   32.6630   -6.7240 C.ar  212  PHE212     -0.0042
     91  CE1       24.2840   34.5620   -8.6700 C.ar  212  PHE212     -0.0003
     92  CE2       23.4320   34.0210   -6.4820 C.ar  212  PHE212     -0.0003
     93  CZ        23.7390   34.9690   -7.4620 C.ar  212  PHE212     -0.0000
     94  N         25.5300   27.8850   -7.3700 N.am  213  ALA213     -0.1966
     95  CA        25.6410   26.4540   -7.6420 C.3   213  ALA213      0.1728
     96  C         24.6150   25.6380   -6.8570 C.2   213  ALA213      0.2616
     97  O         24.1440   26.0340   -5.7920 O.2   213  ALA213     -0.2715
     98  CB        27.0510   25.9660   -7.3590 C.3   213  ALA213      0.0334
     99  N         24.2160   24.5170   -7.4230 N.am  214  ASN214     -0.1972
    100  CA        23.4380   23.5790   -6.6650 C.3   214  ASN214      0.1688
    101  C         24.1080   22.2280   -6.7700 C.2   214  ASN214      0.2292
    102  O         24.1570   21.6310   -7.8340 O.2   214  ASN214     -0.2864
    103  CB        22.0140   23.5610   -7.1940 C.3   214  ASN214      0.1181
    104  CG        21.1250   22.5710   -6.4710 C.2   214  ASN214      0.2629
    105  OD1       21.5670   21.5180   -6.0090 O.2   214  ASN214     -0.2716
    106  ND2       19.8530   22.9110   -6.3700 N.am  214  ASN214     -0.0877
    107  N         24.6270   21.8200  -11.0510 N.3   222  HIS222     -0.1226
    108  CA        24.3080   22.9380  -11.9210 C.3   222  HIS222      0.1752
    109  C         24.9390   24.1540  -11.2780 C.2   222  HIS222      0.2596
    110  O         24.7320   24.3970  -10.0920 O.2   222  HIS222     -0.2718
    111  CB        22.8060   23.1480  -11.9830 C.3   222  HIS222      0.0759
    112  CG        22.3650   24.2150  -12.9450 C.ar  222  HIS222      0.0818
    113  ND1       22.6060   24.1480  -14.2970 N.ar  222  HIS222     -0.2268
    114  CD2       21.6250   25.3370  -12.7490 C.ar  222  HIS222      0.1154
    115  CE1       22.0510   25.1910  -14.8940 C.ar  222  HIS222      0.1986
    116  NE2       21.4500   25.9250  -13.9760 N.ar  222  HIS222     -0.2212
    117  N         25.8000   24.8490  -12.0110 N.am  223  PHE223     -0.1962
    118  CA        26.2910   26.1540  -11.5560 C.3   223  PHE223      0.1771
    119  C         25.9560   27.2470  -12.5430 C.2   223  PHE223      0.2620
    120  O         25.6840   26.9630  -13.7130 O.2   223  PHE223     -0.2715
    121  CB        27.7770   26.1550  -11.2510 C.3   223  PHE223      0.0574
    122  CG        28.6390   25.9230  -12.4440 C.ar  223  PHE223     -0.0200
    123  CD1       28.7840   24.6570  -12.9640 C.ar  223  PHE223     -0.0042
    124  CD2       29.3340   26.9580  -13.0190 C.ar  223  PHE223     -0.0042
    125  CE1       29.5980   24.4340  -14.0350 C.ar  223  PHE223     -0.0003
    126  CE2       30.1390   26.7430  -14.0910 C.ar  223  PHE223     -0.0003
    127  CZ        30.2740   25.4740  -14.5990 C.ar  223  PHE223     -0.0000
    128  N         25.9530   28.4890  -12.0590 N.am  224  GLY224     -0.1954
    129  CA        25.6820   29.6390  -12.9030 C.3   224  GLY224      0.1869
    130  C         26.5320   30.8440  -12.5590 C.2   224  GLY224      0.2309
    131  O         26.6320   31.2420  -11.3900 O.2   224  GLY224     -0.2863
    132  N         27.2350   34.9410  -13.2080 N.3   226  SER226     -0.1217
    133  CA        26.6070   36.1530  -13.6950 C.3   226  SER226      0.1889
    134  C         27.5090   37.3850  -13.5850 C.2   226  SER226      0.2288
    135  O         28.3170   37.5190  -12.6810 O.2   226  SER226     -0.2866
    136  CB        25.2960   36.3620  -12.9620 C.3   226  SER226      0.2089
    137  OG        24.6030   35.1410  -12.9780 O.3   226  SER226     -0.2183
    138  N         16.5020   36.5620  -13.2090 N.3   303  PRO303     -0.2102
    139  CA        16.3950   35.3910  -12.3220 C.3   303  PRO303      0.1504
    140  C         17.1460   35.5580  -10.9900 C.2   303  PRO303      0.2576
    141  O         17.8660   34.6560  -10.5560 O.2   303  PRO303     -0.2718
    142  CB        17.0670   34.2960  -13.1370 C.3   303  PRO303      0.0282
    143  CG        18.1300   35.0180  -13.9180 C.3   303  PRO303      0.0208
    144  CD        17.5640   36.3890  -14.2220 C.3   303  PRO303      0.0893
    145  N         16.9910   36.7170  -10.3610 N.am  304  PHE304     -0.1963
    146  CA        17.7370   37.0430   -9.1580 C.3   304  PHE304      0.1771
    147  C         16.8620   37.3300   -7.9410 C.2   304  PHE304      0.2619
    148  O         17.3280   38.0060   -7.0190 O.2   304  PHE304     -0.2715
    149  CB        18.6270   38.2540   -9.4110 C.3   304  PHE304      0.0574
    150  CG        19.5140   38.1150  -10.6030 C.ar  304  PHE304     -0.0200
    151  CD1       20.6790   37.3880  -10.5270 C.ar  304  PHE304     -0.0042
    152  CD2       19.1780   38.7240  -11.8020 C.ar  304  PHE304     -0.0042
    153  CE1       21.5010   37.2720  -11.6290 C.ar  304  PHE304     -0.0003
    154  CE2       19.9790   38.6060  -12.9100 C.ar  304  PHE304     -0.0003
    155  CZ        21.1480   37.8780  -12.8290 C.ar  304  PHE304     -0.0000
    156  N         15.5940   36.9100   -7.9560 N.am  305  ALA305     -0.1963
    157  CA        14.7260   37.1540   -6.7910 C.3   305  ALA305      0.1728
    158  C         13.6970   36.0420   -6.4230 C.2   305  ALA305      0.2617
    159  O         12.7550   36.2870   -5.6560 O.2   305  ALA305     -0.2715
    160  CB        14.0180   38.5080   -6.9560 C.3   305  ALA305      0.0334
    161  N         13.9070   34.8270   -6.9210 N.am  306  GLY306     -0.1940
    162  CA        12.9980   33.7120   -6.6850 C.3   306  GLY306      0.2014
    163  C         11.6410   33.8340   -7.3670 C.2   306  GLY306      0.2638
    164  O         10.7090   33.0470   -7.1710 O.2   306  GLY306     -0.2714
    165  N         11.5400   34.8050   -8.2470 N.am  307  GLN307     -0.1977
    166  CA        10.3050   34.9790   -8.9720 C.3   307  GLN307      0.1601
    167  C         10.4850   34.3800  -10.3540 C.2   307  GLN307      0.2287
    168  O         11.6120   34.1570  -10.8420 O.2   307  GLN307     -0.2864
    169  CB         9.8990   36.4550   -9.0530 C.3   307  GLN307      0.0394
    170  CG         8.7380   36.7950   -8.1580 C.3   307  GLN307      0.0908
    171  CD         9.1580   37.1650   -6.7380 C.2   307  GLN307      0.2608
    172  OE1        9.0180   38.3190   -6.3330 O.2   307  GLN307     -0.2717
    173  NE2        9.6520   36.1840   -5.9720 N.am  307  GLN307     -0.0878
    174  N         11.5490   44.1070   -7.6860 N.3   352  GLU352     -0.1245
    175  CA        12.4800   43.4110   -6.8160 C.3   352  GLU352      0.1567
    176  C         13.6600   42.8600   -7.6120 C.2   352  GLU352      0.2260
    177  O         14.8220   43.0950   -7.2650 O.2   352  GLU352     -0.2867
    178  CB        11.7980   42.2670   -6.0900 C.3   352  GLU352      0.0388
    179  CG        10.7080   42.6770   -5.1510 C.3   352  GLU352      0.1160
    180  CD        10.1980   41.4900   -4.3820 C.2   352  GLU352      0.3649
    181  OE1       11.0180   40.5880   -4.0880 O.co2 352  GLU352     -0.2457
    182  OE2        8.9760   41.4410   -4.1050 O.co2 352  GLU352     -0.2457
    183  N         17.4350   43.7690   -7.0570 N.3   356  ASN356     -0.1240
    184  CA        18.4880   42.8710   -6.5990 C.3   356  ASN356      0.1653
    185  C         19.6810   42.8210   -7.5410 C.2   356  ASN356      0.2266
    186  O         20.8270   42.6990   -7.1120 O.2   356  ASN356     -0.2867
    187  CB        17.9480   41.4660   -6.4200 C.3   356  ASN356      0.1155
    188  CG        16.8130   41.4090   -5.4430 C.2   356  ASN356      0.2627
    189  OD1       15.9050   40.5820   -5.5830 O.2   356  ASN356     -0.2716
    190  ND2       16.8550   42.2780   -4.4260 N.am  356  ASN356     -0.0877
    191  N         23.7990   43.3750   -6.3140 N.3   360  MET360     -0.1245
    192  CA        25.0070   42.6290   -6.6720 C.3   360  MET360      0.1570
    193  C         25.6890   43.4020   -7.8170 C.2   360  MET360      0.2261
    194  O         25.1260   44.3840   -8.3100 O.2   360  MET360     -0.2867
    195  CB        24.6340   41.2200   -7.1070 C.3   360  MET360      0.0387
    196  CG        23.4520   41.1880   -8.0540 C.3   360  MET360      0.0595
    197  SD        22.4750   39.6630   -7.9970 S.3   360  MET360     -0.1393
    198  CE        21.8740   39.7270   -6.3170 C.3   360  MET360      0.0692
    199  N         28.4680   42.4310   -1.5640 N.3   365  PHE365     -0.1241
    200  CA        27.1470   42.5210   -0.9250 C.3   365  PHE365      0.1605
    201  C         26.8480   41.2580   -0.1190 C.2   365  PHE365      0.2264
    202  O         27.5890   40.2760   -0.1940 O.2   365  PHE365     -0.2867
    203  CB        26.0390   42.8280   -1.9610 C.3   365  PHE365      0.0534
    204  CG        25.2660   41.6170   -2.4400 C.ar  365  PHE365     -0.0203
    205  CD1       25.9090   40.5360   -3.0260 C.ar  365  PHE365     -0.0042
    206  CD2       23.8820   41.5870   -2.3460 C.ar  365  PHE365     -0.0042
    207  CE1       25.1920   39.4320   -3.4630 C.ar  365  PHE365     -0.0003
    208  CE2       23.1580   40.4830   -2.7830 C.ar  365  PHE365     -0.0003
    209  CZ        23.8150   39.4100   -3.3470 C.ar  365  PHE365     -0.0000
    210  N         23.7330   39.2390    0.5430 N.3   367  PHE367     -0.1227
    211  CA        22.7850   38.1820    0.0590 C.3   367  PHE367      0.1736
    212  C         21.4460   38.0310    0.8420 C.2   367  PHE367      0.2595
    213  O         21.3080   38.5190    1.9680 O.2   367  PHE367     -0.2718
    214  CB        23.4310   36.7850   -0.0130 C.3   367  PHE367      0.0547
    215  CG        24.2960   36.5360   -1.2310 C.ar  367  PHE367     -0.0202
    216  CD1       23.7310   36.1370   -2.4330 C.ar  367  PHE367     -0.0042
    217  CD2       25.6840   36.6260   -1.1460 C.ar  367  PHE367     -0.0042
    218  CE1       24.5350   35.8820   -3.5490 C.ar  367  PHE367     -0.0003
    219  CE2       26.4950   36.3650   -2.2550 C.ar  367  PHE367     -0.0003
    220  CZ        25.9220   35.9940   -3.4510 C.ar  367  PHE367     -0.0000
    221  N         20.4800   37.3350    0.2210 N.am  368  GLN368     -0.1979
    222  CA        19.1650   36.9920    0.8140 C.3   368  GLN368      0.1601
    223  C         18.7740   35.5410    0.5250 C.2   368  GLN368      0.2287
    224  O         17.6910   35.0850    0.9070 O.2   368  GLN368     -0.2864
    225  CB        18.0390   37.9030    0.3030 C.3   368  GLN368      0.0394
    226  CG        17.7340   39.1090    1.1730 C.3   368  GLN368      0.0908
    227  CD        18.8550   40.1120    1.1540 C.2   368  GLN368      0.2608
    228  OE1       19.4080   40.4570    2.1980 O.2   368  GLN368     -0.2717
    229  NE2       19.2050   40.5900   -0.0400 N.am  368  GLN368     -0.0878
@<TRIPOS>BOND
     1    50    49    2
     2    58    57    2
     3    47    48    1
     4    49    48    1
     5    55    56    1
     6    57    56    1
     7    48    51    1
     8    56    59    1
     9    59    60    1
    10    60    61    1
    11    51    52    1
    12    53    52    2
    13    52    54   am
    14    61    62    2
    15    61    63   am
    16   115   113   ar
    17   115   116   ar
    18   127   126   ar
    19   127   125   ar
    20   113   112   ar
    21   144   143    1
    22   144   138    1
    23   126   124   ar
    24   125   123   ar
    25   116   114   ar
    26   143   142    1
    27     1     2    1
    28   120   119    2
    29   133   134    1
    30   133   132    1
    31   133   136    1
    32   134   135    2
    33   138   139    1
    34   142   139    1
    35   124   122   ar
    36   137   136    1
    37   123   122   ar
    38   112   114   ar
    39   112   111    1
    40   154   155   ar
    41   154   152   ar
    42   129   130    1
    43   129   128    1
    44   155   153   ar
    45   130   131    2
    46   119   128   am
    47   119   118    1
    48     2     3    1
    49   122   121    1
    50     4     3    2
    51   139   140    1
    52   117   118    1
    53   117   109   am
    54   111   108    1
    55   108   109    1
    56   108   107    1
    57     3     5   am
    58   152   150   ar
    59   153   151   ar
    60   118   121    1
    61   109   110    2
    62   140   141    2
    63   140   145   am
    64   168   167    2
    65   150   151   ar
    66   150   149    1
    67     5     6    1
    68   145   146    1
    69   167   166    1
    70     6     7    1
    71     6     9    1
    72   149   146    1
    73     7     8    2
    74    86    85    2
    75   146   147    1
    76   169   166    1
    77   169   170    1
    78   166   165    1
    79    89    91   ar
    80    89    88   ar
    81    11     9    1
    82    91    93   ar
    83    83    84    1
    84     9    10    1
    85   194   193    2
    86   165   163   am
    87    85    84    1
    88    85    94   am
    89    87    88    1
    90    87    84    1
    91   170   171    1
    92   196   197    1
    93   196   195    1
    94   197   198    1
    95   156   147   am
    96   156   157    1
    97   147   148    2
    98    88    90   ar
    99   102   101    2
   100   193   192    1
   101   174   175    1
   102    95    94    1
   103    95    98    1
   104    95    96    1
   105   176   177    2
   106   176   175    1
   107   185   186    2
   108   185   184    1
   109    93    92   ar
   110    99    96   am
   111    99   100    1
   112   163   164    2
   113   163   162    1
   114   103   100    1
   115   103   104    1
   116   195   192    1
   117   183   184    1
   118   160   157    1
   119    12    13    1
   120   161   162    1
   121   161   158   am
   122    96    97    2
   123   175   178    1
   124   157   158    1
   125   101   100    1
   126   171   172    2
   127   171   173   am
   128    90    92   ar
   129   192   191    1
   130   184   187    1
   131   104   106   am
   132   104   105    2
   133   158   159    2
   134   187   188    1
   135    18    17   ar
   136   178   179    1
   137    15    14    2
   138    45    44   ar
   139    14    13    1
   140   189   188    2
   141    13    16    1
   142    40    41    2
   143    40    39    1
   144   188   190   am
   145    17    16    1
   146    17    19   ar
   147   179   180    1
   148    73    72    1
   149    42    39    1
   150    42    43    1
   151    44    43    1
   152    44    46   ar
   153    39    38    1
   154   180   182   ar
   155   180   181   ar
   156    72    74    1
   157    72    71    2
   158    70    71    1
   159    70    69    1
   160    82    81    1
   161    26    28   ar
   162    26    25   ar
   163   218   220   ar
   164   218   216   ar
   165    80    81    1
   166    80    79    1
   167    76    77    1
   168    76    79    1
   169    76    75    1
   170   207   209   ar
   171   207   205   ar
   172    20    21    1
   173   220   219   ar
   174    28    29   ar
   175   209   208   ar
   176    77    78    2
   177   205   204   ar
   178    69    68    1
   179   208   206   ar
   180    68    65    1
   181    65    66    1
   182    65    64    1
   183   204   206   ar
   184   204   203    1
   185   216   215   ar
   186    25    24    1
   187    25    27   ar
   188    23    22    2
   189    24    21    1
   190   219   217   ar
   191    21    22    1
   192    29    27   ar
   193    66    67    2
   194   203   200    1
   195   199   200    1
   196    33    32    2
   197   215   217   ar
   198   215   214    1
   199    34    31    1
   200    34    35    1
   201    37    35   am
   202    32    31    1
   203   200   201    1
   204    31    30    1
   205    35    36    2
   206   202   201    2
   207   229   227   am
   208   214   211    1
   209   211   210    1
   210   211   212    1
   211   221   222    1
   212   221   212   am
   213   225   222    1
   214   225   226    1
   215   223   222    1
   216   223   224    2
   217   212   213    2
   218   227   226    1
   219   227   228    2
