@<TRIPOS>MOLECULE
tmp/3v3qA00.pdb
 132 127 0 0 0
SMALL
GASTEIGER

@<TRIPOS>ATOM
      1  N        -13.3430   32.4840    1.3350 N.3    82  GLU82      -0.1231
      2  CA       -13.0700   32.2580    2.7580 C.3    82  GLU82       0.1699
      3  C        -13.2390   30.7820    3.1670 C.2    82  GLU82       0.2593
      4  O        -12.4820   30.2670    4.0030 O.2    82  GLU82      -0.2718
      5  CB       -13.9370   33.1980    3.6570 C.3    82  GLU82       0.0402
      6  CG       -13.4920   34.6580    3.5210 C.3    82  GLU82       0.1161
      7  CD       -14.5300   35.7020    3.9360 C.2    82  GLU82       0.3649
      8  OE1      -14.3510   36.8840    3.5660 O.co2  82  GLU82      -0.2457
      9  OE2      -15.5090   35.3870    4.6520 O.co2  82  GLU82      -0.2457
     10  N        -14.2380   30.1100    2.5880 N.am   83  SER83      -0.1938
     11  CA       -14.5530   28.7460    2.9920 C.3    83  SER83       0.2055
     12  C        -13.5950   27.7320    2.4320 C.2    83  SER83       0.2643
     13  O        -13.4330   26.6380    3.0380 O.2    83  SER83      -0.2714
     14  CB       -15.9680   28.3450    2.6320 C.3    83  SER83       0.2130
     15  OG       -16.8930   29.3070    3.0830 O.3    83  SER83      -0.2179
     16  N        -12.9940   28.0570    1.2790 N.am   84  ALA84      -0.1963
     17  CA       -12.0400   27.1070    0.6560 C.3    84  ALA84       0.1728
     18  C        -10.6120   27.4900    0.8900 C.2    84  ALA84       0.2616
     19  O         -9.7310   26.7010    0.4990 O.2    84  ALA84      -0.2715
     20  CB       -12.2410   27.0610   -0.8250 C.3    84  ALA84       0.0334
     21  N        -10.3530   28.7060    1.3950 N.am   85  PHE85      -0.1960
     22  CA        -8.9750   29.1830    1.4860 C.3    85  PHE85       0.1771
     23  C         -7.9780   28.1540    2.0770 C.2    85  PHE85       0.2619
     24  O         -6.9150   27.8520    1.4630 O.2    85  PHE85      -0.2715
     25  CB        -8.8600   30.4740    2.3100 C.3    85  PHE85       0.0574
     26  CG        -7.4270   30.7890    2.6700 C.ar   85  PHE85      -0.0200
     27  CD1       -6.5010   31.1300    1.6670 C.ar   85  PHE85      -0.0042
     28  CD2       -6.9780   30.6970    3.9920 C.ar   85  PHE85      -0.0042
     29  CE1       -5.1800   31.3640    1.9800 C.ar   85  PHE85      -0.0003
     30  CE2       -5.6500   30.9270    4.3060 C.ar   85  PHE85      -0.0003
     31  CZ        -4.7520   31.2600    3.2910 C.ar   85  PHE85      -0.0000
     32  N         -8.3090   27.5690    3.2230 N.am   86  LEU86      -0.1963
     33  CA        -7.3080   26.6410    3.8720 C.3    86  LEU86       0.1728
     34  C         -7.0570   25.4290    3.0160 C.2    86  LEU86       0.2616
     35  O         -5.9250   25.0160    2.8240 O.2    86  LEU86      -0.2715
     36  CB        -7.7270   26.2150    5.2860 C.3    86  LEU86       0.0311
     37  CG        -6.8170   26.4400    6.4950 C.3    86  LEU86       0.0022
     38  CD1       -5.7940   27.5760    6.4150 C.3    86  LEU86       0.0001
     39  CD2       -7.6700   26.6340    7.7420 C.3    86  LEU86       0.0001
     40  N         -8.1350   24.8970    2.4330 N.am   87  GLU87      -0.1977
     41  CA        -8.0370   23.7730    1.5200 C.3    87  GLU87       0.1602
     42  C         -7.1640   24.1240    0.3180 C.2    87  GLU87       0.2287
     43  O         -6.3630   23.3100   -0.1460 O.2    87  GLU87      -0.2864
     44  CB        -9.4180   23.4690    0.9910 C.3    87  GLU87       0.0415
     45  CG        -9.5800   22.0490    0.4550 C.3    87  GLU87       0.1163
     46  CD       -10.9770   21.5150    0.6640 C.2    87  GLU87       0.3649
     47  OE1      -11.8760   22.2600    1.1300 O.co2  87  GLU87      -0.2457
     48  OE2      -11.1560   20.3320    0.3420 O.co2  87  GLU87      -0.2457
     49  N        -21.8010   25.9160   -0.3140 N.3   157  ARG157     -0.1245
     50  CA       -21.4970   26.3770    1.0340 C.3   157  ARG157      0.1563
     51  C        -22.7980   26.8290    1.7040 C.2   157  ARG157      0.2260
     52  O        -23.6560   27.4430    1.0710 O.2   157  ARG157     -0.2867
     53  CB       -20.4690   27.5130    1.0560 C.3   157  ARG157      0.0307
     54  CG       -19.1010   27.1390    0.4510 C.3   157  ARG157      0.0489
     55  CD       -18.3420   26.0890    1.2620 C.3   157  ARG157      0.2205
     56  NE       -17.0780   25.7850    0.5990 N.pl3 157  ARG157     -0.0865
     57  CZ       -16.1410   24.9260    1.0220 C.cat 157  ARG157      0.5346
     58  NH1      -16.2560   24.2420    2.1800 N.pl3 157  ARG157      0.1354
     59  NH2      -15.0690   24.7470    0.2790 N.pl3 157  ARG157      0.1354
     60  N         -8.6310   17.0720    4.3050 N.3   201  ARG201     -0.1245
     61  CA        -9.5070   17.3330    5.4560 C.3   201  ARG201      0.1563
     62  C         -8.7820   17.4430    6.8270 C.2   201  ARG201      0.2260
     63  O         -8.9540   18.4080    7.5620 O.2   201  ARG201     -0.2867
     64  CB       -10.5190   16.2080    5.4900 C.3   201  ARG201      0.0307
     65  CG       -11.9160   16.6050    5.9410 C.3   201  ARG201      0.0489
     66  CD       -12.9430   16.1840    4.8970 C.3   201  ARG201      0.2205
     67  NE       -12.7060   14.7960    4.5080 N.pl3 201  ARG201     -0.0865
     68  CZ       -13.2220   14.2190    3.4320 C.cat 201  ARG201      0.5346
     69  NH1      -14.0290   14.9080    2.6350 N.pl3 201  ARG201      0.1354
     70  NH2      -12.9320   12.9520    3.1740 N.pl3 201  ARG201      0.1354
     71  N         -6.5120   20.4830    7.0500 N.3   204  CYS204     -0.1221
     72  CA        -7.2570   21.7200    7.3210 C.3   204  CYS204      0.1808
     73  C         -7.5380   21.8700    8.8380 C.2   204  CYS204      0.2601
     74  O         -7.2930   22.9230    9.3870 O.2   204  CYS204     -0.2717
     75  CB        -8.5940   21.7500    6.5800 C.3   204  CYS204      0.0970
     76  SG        -8.5500   21.7900    4.8000 S.3   204  CYS204     -0.0800
     77  N         -8.0850   20.8170    9.4620 N.am  205  THR205     -0.1953
     78  CA        -8.1520   20.7150   10.8920 C.3   205  THR205      0.1897
     79  C         -6.7810   21.1110   11.4920 C.2   205  THR205      0.2313
     80  O         -6.7270   22.0570   12.2780 O.2   205  THR205     -0.2863
     81  CB        -8.5720   19.2880   11.3500 C.3   205  THR205      0.1794
     82  OG1       -9.7140   18.8870   10.6100 O.3   205  THR205     -0.2208
     83  CG2       -8.9240   19.2330   12.8500 C.3   205  THR205      0.0378
     84  N         -6.3110   24.7190   11.4110 N.3   208  LEU208     -0.1245
     85  CA        -7.1610   25.4420   12.3380 C.3   208  LEU208      0.1561
     86  C         -6.5480   25.3500   13.7560 C.2   208  LEU208      0.2260
     87  O         -6.6040   26.3140   14.5080 O.2   208  LEU208     -0.2867
     88  CB        -8.6090   24.9170   12.2950 C.3   208  LEU208      0.0270
     89  CG        -9.4740   25.3050   11.0750 C.3   208  LEU208      0.0019
     90  CD1      -10.8050   24.5790   11.0810 C.3   208  LEU208      0.0001
     91  CD2       -9.7490   26.7980   11.0260 C.3   208  LEU208      0.0001
     92  N        -11.7580   34.0500    8.9330 N.3   229  ILE229     -0.1231
     93  CA       -11.8610   32.6810    8.4000 C.3   229  ILE229      0.1692
     94  C        -11.7900   31.6420    9.5350 C.2   229  ILE229      0.2592
     95  O        -12.6280   30.7150    9.6520 O.2   229  ILE229     -0.2718
     96  CB       -10.7780   32.4420    7.3100 C.3   229  ILE229      0.0266
     97  CG1      -11.1400   33.2100    6.0390 C.3   229  ILE229      0.0019
     98  CG2      -10.6460   30.9640    7.0180 C.3   229  ILE229      0.0020
     99  CD1      -10.0550   33.3200    4.9660 C.3   229  ILE229      0.0001
    100  N        -10.7890   31.7870   10.3750 N.am  230  PHE230     -0.1976
    101  CA       -10.6810   30.9360   11.5610 C.3   230  PHE230      0.1639
    102  C        -11.9800   30.9970   12.3510 C.2   230  PHE230      0.2290
    103  O        -12.5540   29.9650   12.6630 O.2   230  PHE230     -0.2864
    104  CB        -9.5050   31.3750   12.4540 C.3   230  PHE230      0.0560
    105  CG        -9.4150   30.6300   13.7790 C.ar  230  PHE230     -0.0200
    106  CD1       -8.8640   29.3580   13.8370 C.ar  230  PHE230     -0.0042
    107  CD2       -9.9130   31.2100   14.9770 C.ar  230  PHE230     -0.0042
    108  CE1       -8.7700   28.6770   15.0470 C.ar  230  PHE230     -0.0003
    109  CE2       -9.8200   30.5340   16.1990 C.ar  230  PHE230     -0.0003
    110  CZ        -9.2390   29.2710   16.2270 C.ar  230  PHE230     -0.0000
    111  N        -15.0530   32.1210   11.4770 N.3   232  ASP232     -0.1225
    112  CA       -16.2460   31.6760   10.7150 C.3   232  ASP232      0.1805
    113  C        -16.3760   30.1790   10.6330 C.2   232  ASP232      0.2598
    114  O        -17.4790   29.6640   10.5210 O.2   232  ASP232     -0.2718
    115  CB       -16.3110   32.2620    9.2790 C.3   232  ASP232      0.1424
    116  CG       -16.7950   33.7020    9.2580 C.2   232  ASP232      0.3668
    117  OD1      -17.0760   34.2340   10.3480 O.co2 232  ASP232     -0.2456
    118  OD2      -16.8820   34.3180    8.1750 O.co2 232  ASP232     -0.2456
    119  N        -15.2440   29.4800   10.6760 N.am  233  THR233     -0.1953
    120  CA       -15.2240   28.0270   10.4740 C.3   233  THR233      0.1897
    121  C        -15.5650   27.2420   11.7430 C.2   233  THR233      0.2313
    122  O        -15.8730   26.0410   11.6750 O.2   233  THR233     -0.2863
    123  CB       -13.8560   27.5440    9.9750 C.3   233  THR233      0.1794
    124  OG1      -13.2010   28.5640    9.1810 O.3   233  THR233     -0.2208
    125  CG2      -14.0500   26.2540    9.1610 C.3   233  THR233      0.0378
    126  N        -17.7210   25.7250   14.2870 N.3   235  PRO235     -0.2116
    127  CA       -19.1290   25.3070   14.3510 C.3   235  PRO235      0.1372
    128  C        -19.8060   25.6010   15.7040 C.2   235  PRO235      0.2244
    129  O        -21.0180   25.5040   15.8000 O.2   235  PRO235     -0.2868
    130  CB       -19.0470   23.7910   14.1420 C.3   235  PRO235      0.0268
    131  CG       -17.7590   23.4050   14.7980 C.3   235  PRO235      0.0207
    132  CD       -16.8180   24.5880   14.5840 C.3   235  PRO235      0.0892
@<TRIPOS>BOND
     1    20    17    1
     2    49    50    1
     3    43    42    2
     4    59    57    1
     5    42    41    1
     6    48    46   ar
     7    54    53    1
     8    54    55    1
     9    45    46    1
    10    45    44    1
    11    19    18    2
    12    56    57    2
    13    56    55    1
    14    17    18    1
    15    17    16    1
    16    46    47   ar
    17    18    21   am
    18    44    41    1
    19    57    58    1
    20    50    53    1
    21    50    51    1
    22    52    51    2
    23    16    12   am
    24     1     2    1
    25    21    22    1
    26    24    23    2
    27    22    23    1
    28    22    25    1
    29    41    40    1
    30    27    29   ar
    31    27    26   ar
    32    29    31   ar
    33    23    32   am
    34    25    26    1
    35    12    11    1
    36    12    13    2
    37    40    34   am
    38    10    11    1
    39    10     3   am
    40    14    11    1
    41    14    15    1
    42    69    68    1
    43    26    28   ar
    44     2     3    1
    45     2     5    1
    46    35    34    2
    47    34    33    1
    48     3     4    2
    49    70    68    1
    50    32    33    1
    51    31    30   ar
    52    68    67    2
    53     6     5    1
    54     6     7    1
    55     8     7   ar
    56    33    36    1
    57     7     9   ar
    58    28    30   ar
    59    60    61    1
    60    67    66    1
    61    76    75    1
    62    66    65    1
    63    99    97    1
    64    36    37    1
    65    61    64    1
    66    61    62    1
    67    64    65    1
    68    97    96    1
    69    38    37    1
    70    37    39    1
    71    75    72    1
    72    62    63    2
    73    98    96    1
    74    71    72    1
    75    96    93    1
    76    72    73    1
    77   118   116   ar
    78    93    92    1
    79    93    94    1
    80    73    74    2
    81    73    77   am
    82   125   123    1
    83   124   123    1
    84   116   115    1
    85   116   117   ar
    86   115   112    1
    87    77    78    1
    88    94    95    2
    89    94   100   am
    90   123   120    1
    91   100   101    1
    92   120   119    1
    93   120   121    1
    94   114   113    2
    95    82    81    1
    96   113   119   am
    97   113   112    1
    98   112   111    1
    99    78    81    1
   100    78    79    1
   101    91    89    1
   102    89    90    1
   103    89    88    1
   104    81    83    1
   105    84    85    1
   106    79    80    2
   107   101   102    1
   108   101   104    1
   109   122   121    2
   110    88    85    1
   111    85    86    1
   112   102   103    2
   113   104   105    1
   114    86    87    2
   115   105   106   ar
   116   105   107   ar
   117   106   108   ar
   118   130   127    1
   119   130   131    1
   120   126   127    1
   121   126   132    1
   122   127   128    1
   123   132   131    1
   124   107   109   ar
   125   108   110   ar
   126   128   129    2
   127   109   110   ar
