@<TRIPOS>MOLECULE
tmp/3v3qA01.pdb
 141 135 0 0 0
SMALL
GASTEIGER

@<TRIPOS>ATOM
      1  N         -4.6550   29.2880  -13.4170 N.3    14  HIS14      -0.1226
      2  CA        -3.7590   28.5290  -12.5370 C.3    14  HIS14       0.1752
      3  C         -2.3280   28.9410  -12.6470 C.2    14  HIS14       0.2595
      4  O         -1.7200   29.3460  -11.6620 O.2    14  HIS14      -0.2718
      5  CB        -3.8760   27.0340  -12.7790 C.3    14  HIS14       0.0759
      6  CG        -2.8000   26.2460  -12.0930 C.ar   14  HIS14       0.0818
      7  ND1       -2.7630   26.0840  -10.7550 N.ar   14  HIS14      -0.2268
      8  CD2       -1.6820   25.5880  -12.5990 C.ar   14  HIS14       0.1154
      9  CE1       -1.6930   25.3480  -10.4260 C.ar   14  HIS14       0.1986
     10  NE2       -1.0290   25.0530  -11.5480 N.ar   14  HIS14      -0.2212
     11  N         -1.7810   28.8430  -13.8510 N.am   15  LEU15      -0.1980
     12  CA        -0.4210   29.2580  -14.1320 C.3    15  LEU15       0.1596
     13  C         -0.0380   30.7010  -13.7290 C.2    15  LEU15       0.2287
     14  O          1.0520   30.9360  -13.2320 O.2    15  LEU15      -0.2864
     15  CB        -0.1150   28.9450  -15.5940 C.3    15  LEU15       0.0297
     16  CG        -0.0730   27.4640  -16.0490 C.3    15  LEU15       0.0022
     17  CD1        0.3330   27.4140  -17.5340 C.3    15  LEU15       0.0001
     18  CD2        0.8630   26.5650  -15.2480 C.3    15  LEU15       0.0001
     19  N          0.9000   31.5600   -9.5840 N.3    18  GLY18      -0.1210
     20  CA         2.0430   30.9160   -8.9490 C.3    18  GLY18       0.1940
     21  C          3.3090   31.1780   -9.7370 C.2    18  GLY18       0.2454
     22  O          3.2530   31.7350  -10.8390 O.2    18  GLY18      -0.2732
     23  N          4.4700   30.8190   -9.1590 N.am   19  PRO19      -0.2717
     24  CA         5.7370   31.2180   -9.7560 C.3    19  PRO19       0.1536
     25  C          6.2500   30.3020  -10.8760 C.2    19  PRO19       0.2599
     26  O          6.0660   29.0850  -10.8450 O.2    19  PRO19      -0.2715
     27  CB         6.7020   31.1860   -8.5490 C.3    19  PRO19       0.0310
     28  CG         6.0940   30.1660   -7.6100 C.3    19  PRO19       0.0237
     29  CD         4.6240   30.3560   -7.7530 C.3    19  PRO19       0.0939
     30  N          6.9250   30.8940  -11.8550 N.am   20  SER20      -0.1936
     31  CA         7.6010   30.1110  -12.8890 C.3    20  SER20       0.2055
     32  C          8.8420   29.5230  -12.2340 C.2    20  SER20       0.2643
     33  O          9.3840   30.1040  -11.2980 O.2    20  SER20      -0.2714
     34  CB         8.0410   31.0040  -14.0600 C.3    20  SER20       0.2130
     35  OG         7.2320   32.1670  -14.1750 O.3    20  SER20      -0.2179
     36  N          9.2910   28.3730  -12.7130 N.am   21  THR21      -0.1950
     37  CA        10.6120   27.8790  -12.3780 C.3    21  THR21       0.1897
     38  C         11.6490   29.0200  -12.3820 C.2    21  THR21       0.2313
     39  O         12.5180   29.0840  -11.5110 O.2    21  THR21      -0.2863
     40  CB        10.9970   26.7490  -13.3400 C.3    21  THR21       0.1794
     41  OG1       10.1560   25.6200  -13.0700 O.3    21  THR21      -0.2208
     42  CG2       12.4620   26.3440  -13.1860 C.3    21  THR21       0.0378
     43  N         11.4530   31.6760   -9.0760 N.3    24  LEU24      -0.1245
     44  CA        11.6890   31.1530   -7.7100 C.3    24  LEU24       0.1561
     45  C         12.7100   31.9270   -6.9100 C.2    24  LEU24       0.2260
     46  O         13.7950   32.2510   -7.3840 O.2    24  LEU24      -0.2867
     47  CB        12.1030   29.7030   -7.7150 C.3    24  LEU24       0.0270
     48  CG        11.0940   28.6520   -8.1100 C.3    24  LEU24       0.0019
     49  CD1       11.6470   27.3470   -7.5410 C.3    24  LEU24       0.0001
     50  CD2        9.7060   28.9260   -7.5700 C.3    24  LEU24       0.0001
     51  N         -2.6310   23.7240   -3.1560 N.3    92  ARG92      -0.1245
     52  CA        -1.6800   24.4120   -4.0610 C.3    92  ARG92       0.1563
     53  C         -0.2660   24.3600   -3.5600 C.2    92  ARG92       0.2260
     54  O          0.6260   24.3190   -4.3750 O.2    92  ARG92      -0.2867
     55  CB        -2.1030   25.8910   -4.3020 C.3    92  ARG92       0.0307
     56  CG        -3.4220   25.9460   -5.0950 C.3    92  ARG92       0.0489
     57  CD        -4.1810   27.2750   -4.9770 C.3    92  ARG92       0.2205
     58  NE        -3.2840   28.4030   -5.1050 N.pl3  92  ARG92      -0.0865
     59  CZ        -2.9580   29.0270   -6.2390 C.cat  92  ARG92       0.5346
     60  NH1       -3.4770   28.6610   -7.4260 N.pl3  92  ARG92       0.1354
     61  NH2       -2.1400   30.0660   -6.1830 N.pl3  92  ARG92       0.1354
     62  N          1.0800   20.9510   -4.1290 N.3    95  TYR95      -0.1227
     63  CA         1.1920   20.5970   -5.5410 C.3    95  TYR95       0.1736
     64  C          2.4650   21.1840   -6.0630 C.2    95  TYR95       0.2595
     65  O          3.1200   20.4990   -6.7500 O.2    95  TYR95      -0.2718
     66  CB        -0.0210   21.0050   -6.3860 C.3    95  TYR95       0.0548
     67  CG        -0.0460   20.5020   -7.8610 C.ar   95  TYR95      -0.0200
     68  CD1       -0.0450   19.1100   -8.1640 C.ar   95  TYR95      -0.0009
     69  CD2       -0.1130   21.4150   -8.9410 C.ar   95  TYR95      -0.0009
     70  CE1       -0.1040   18.6600   -9.4830 C.ar   95  TYR95       0.0417
     71  CE2       -0.1920   20.9780  -10.2670 C.ar   95  TYR95       0.0417
     72  CZ        -0.1810   19.5970  -10.5330 C.ar   95  TYR95       0.1957
     73  OH        -0.2150   19.1100  -11.8460 O.3    95  TYR95      -0.2866
     74  N          2.8650   22.4070   -5.6980 N.am   96  ARG96      -0.1980
     75  CA         4.1450   22.9530   -6.2370 C.3    96  ARG96       0.1597
     76  C          5.4470   22.6790   -5.4550 C.2    96  ARG96       0.2287
     77  O          6.5520   22.8970   -5.9660 O.2    96  ARG96      -0.2864
     78  CB         4.0570   24.4440   -6.5490 C.3    96  ARG96       0.0334
     79  CG         3.7570   25.2910   -5.3760 C.3    96  ARG96       0.0492
     80  CD         3.9150   26.7780   -5.7610 C.3    96  ARG96       0.2205
     81  NE         2.6010   27.4050   -5.8000 N.pl3  96  ARG96      -0.0865
     82  CZ         1.8480   27.6170   -4.7140 C.cat  96  ARG96       0.5346
     83  NH1        2.3230   27.2910   -3.5000 N.pl3  96  ARG96       0.1354
     84  NH2        0.6300   28.1890   -4.8350 N.pl3  96  ARG96       0.1354
     85  N          8.4600   20.5530   -3.2430 N.3    98  LYS98      -0.1245
     86  CA         9.4670   19.6100   -3.6270 C.3    98  LYS98       0.1561
     87  C          9.8190   18.8130   -2.3670 C.2    98  LYS98       0.2260
     88  O         10.7810   19.1330   -1.6800 O.2    98  LYS98      -0.2867
     89  CB        10.6840   20.3590   -4.2060 C.3    98  LYS98       0.0271
     90  CG        10.4810   20.9980   -5.6000 C.3    98  LYS98       0.0035
     91  CD         9.5920   20.1180   -6.4910 C.3    98  LYS98       0.0206
     92  CE         8.8520   20.9560   -7.5360 C.3    98  LYS98       0.1093
     93  NZ         7.3820   20.6510   -7.5890 N.3    98  LYS98      -0.1314
     94  N          7.3240   25.7340   -1.3470 N.3   105  ILE105     -0.1245
     95  CA         7.4200   26.7870   -2.3360 C.3   105  ILE105      0.1561
     96  C          6.0890   27.4860   -2.3740 C.2   105  ILE105      0.2260
     97  O          5.0840   26.8900   -2.7070 O.2   105  ILE105     -0.2867
     98  CB         7.6800   26.2110   -3.7360 C.3   105  ILE105      0.0252
     99  CG1        8.9130   25.2970   -3.6700 C.3   105  ILE105      0.0019
    100  CG2        7.7490   27.3630   -4.7560 C.3   105  ILE105      0.0019
    101  CD1        9.2890   24.6400   -5.0060 C.3   105  ILE105      0.0001
    102  N          0.2450   13.4870   -3.0820 N.3   135  LEU135     -0.1231
    103  CA        -0.3940   14.0900   -4.2450 C.3   135  LEU135      0.1693
    104  C          0.4620   13.7960   -5.4830 C.2   135  LEU135      0.2592
    105  O         -0.0670   13.4080   -6.5180 O.2   135  LEU135     -0.2718
    106  CB        -0.5080   15.6050   -4.1120 C.3   135  LEU135      0.0284
    107  CG        -1.7710   16.2840   -4.6420 C.3   135  LEU135      0.0019
    108  CD1       -1.6430   17.7960   -4.5140 C.3   135  LEU135      0.0001
    109  CD2       -2.1590   15.8640   -6.0540 C.3   135  LEU135      0.0001
    110  N          1.7840   13.9390   -5.3510 N.am  136  HIS136     -0.1976
    111  CA         2.6860   13.9040   -6.4930 C.3   136  HIS136      0.1656
    112  C          2.7060   12.5400   -7.0900 C.2   136  HIS136      0.2291
    113  O          3.0550   12.3850   -8.2480 O.2   136  HIS136     -0.2864
    114  CB         4.1150   14.2440   -6.1020 C.3   136  HIS136      0.0771
    115  CG         4.3750   15.7190   -5.8670 C.ar  136  HIS136      0.0820
    116  ND1        3.5890   16.6920   -6.3600 N.ar  136  HIS136     -0.2267
    117  CD2        5.4160   16.3570   -5.1980 C.ar  136  HIS136      0.1154
    118  CE1        4.0970   17.8930   -6.0070 C.ar  136  HIS136      0.1986
    119  NE2        5.2110   17.6810   -5.2980 N.ar  136  HIS136     -0.2212
    120  N          0.3200   11.8040  -10.0540 N.3   139  LEU139     -0.1231
    121  CA         0.6520   12.3590  -11.3590 C.3   139  LEU139      0.1693
    122  C         -0.5160   13.0920  -12.0000 C.2   139  LEU139      0.2591
    123  O         -0.9070   12.7880  -13.1090 O.2   139  LEU139     -0.2718
    124  CB         1.1780   11.2510  -12.2980 C.3   139  LEU139      0.0284
    125  CG         2.4000   10.4870  -11.7980 C.3   139  LEU139      0.0019
    126  CD1        2.4800    9.1590  -12.5120 C.3   139  LEU139      0.0001
    127  CD2        3.6670   11.3130  -11.9690 C.3   139  LEU139      0.0001
    128  N         -1.0670   14.0550  -11.2740 N.am  140  VAL140     -0.1980
    129  CA        -2.1480   14.9120  -11.7310 C.3   140  VAL140      0.1595
    130  C         -1.5720   15.9890  -12.5890 C.2   140  VAL140      0.2287
    131  O         -0.8360   16.8330  -12.1260 O.2   140  VAL140     -0.2864
    132  CB        -2.8410   15.5500  -10.5270 C.3   140  VAL140      0.0276
    133  CG1       -3.7500   16.6940  -10.9470 C.3   140  VAL140      0.0022
    134  CG2       -3.5940   14.4520   -9.7440 C.3   140  VAL140      0.0022
    135  N         -1.3470   19.2960  -15.1330 N.3   142  VAL142     -0.1245
    136  CA        -1.7280   20.6590  -14.8840 C.3   142  VAL142      0.1561
    137  C         -3.1150   21.0530  -15.3390 C.2   142  VAL142      0.2260
    138  O         -3.7250   21.8970  -14.7220 O.2   142  VAL142     -0.2867
    139  CB        -0.7310   21.6040  -15.5100 C.3   142  VAL142      0.0252
    140  CG1       -1.2740   23.0360  -15.4980 C.3   142  VAL142      0.0019
    141  CG2        0.5760   21.4520  -14.7530 C.3   142  VAL142      0.0019
@<TRIPOS>BOND
     1    17    16    1
     2    16    15    1
     3    16    18    1
     4    15    12    1
     5   139   140    1
     6   139   136    1
     7   139   141    1
     8   137   136    1
     9   137   138    2
    10   135   136    1
    11    35    34    1
    12    12    11    1
    13    12    13    1
    14    34    31    1
    15    11     3   am
    16    13    14    2
    17     1     2    1
    18    40    42    1
    19    40    41    1
    20    40    37    1
    21   123   122    2
    22    31    32    1
    23    31    30    1
    24     5     2    1
    25     5     6    1
    26    36    37    1
    27    36    32   am
    28     3     2    1
    29     3     4    2
    30     8     6   ar
    31     8    10   ar
    32   130   131    2
    33   130   129    1
    34   126   125    1
    35    38    37    1
    36    38    39    2
    37   124   125    1
    38   124   121    1
    39    32    33    2
    40     6     7   ar
    41   122   121    1
    42   122   128   am
    43   127   125    1
    44    30    25   am
    45    73    72    1
    46   129   128    1
    47   129   132    1
    48    10     9   ar
    49   121   120    1
    50   133   132    1
    51    25    26    2
    52    25    24    1
    53    22    21    2
    54     7     9   ar
    55    72    71   ar
    56    72    70   ar
    57   132   134    1
    58    71    69   ar
    59    24    23    1
    60    24    27    1
    61    21    23   am
    62    21    20    1
    63    19    20    1
    64    70    68   ar
    65    23    29    1
    66    43    44    1
    67    69    67   ar
    68    27    28    1
    69   113   112    2
    70    68    67   ar
    71    48    47    1
    72    48    50    1
    73    48    49    1
    74    67    66    1
    75    29    28    1
    76    47    44    1
    77    44    45    1
    78    93    92    1
    79    92    91    1
    80    60    59    1
    81    46    45    2
    82   112   111    1
    83    65    64    2
    84    78    75    1
    85    78    79    1
    86   105   104    2
    87   111   114    1
    88   111   110    1
    89    91    90    1
    90    66    63    1
    91   116   118   ar
    92   116   115   ar
    93    59    61    1
    94    59    58    2
    95    75    74    1
    96    75    76    1
    97   114   115    1
    98    64    74   am
    99    64    63    1
   100   109   107    1
   101   118   119   ar
   102    77    76    2
   103   115   117   ar
   104    81    80    1
   105    81    82    2
   106    80    79    1
   107    90    89    1
   108    63    62    1
   109   104   110   am
   110   104   103    1
   111   119   117   ar
   112    58    57    1
   113    56    57    1
   114    56    55    1
   115   101    99    1
   116    84    82    1
   117   100    98    1
   118    82    83    1
   119   107   108    1
   120   107   106    1
   121    54    53    2
   122    55    52    1
   123   103   106    1
   124   103   102    1
   125    89    86    1
   126    52    53    1
   127    52    51    1
   128    98    99    1
   129    98    95    1
   130    86    85    1
   131    86    87    1
   132    97    96    2
   133    96    95    1
   134    87    88    2
   135    95    94    1
