@<TRIPOS>MOLECULE
tmp/3v3vA01.pdb
 159 148 0 0 0
SMALL
GASTEIGER

@<TRIPOS>ATOM
      1  N         34.3810   42.4510   -3.4240 N.3    26  ILE26      -0.1231
      2  CA        34.1000   41.4480   -2.4060 C.3    26  ILE26       0.1692
      3  C         32.6310   41.0350   -2.3740 C.2    26  ILE26       0.2593
      4  O         32.3100   39.8410   -2.5340 O.2    26  ILE26      -0.2718
      5  CB        34.5780   41.8620   -1.0190 C.3    26  ILE26       0.0266
      6  CG1       34.0280   43.2190   -0.6330 C.3    26  ILE26       0.0019
      7  CG2       36.0930   41.8680   -0.9870 C.3    26  ILE26       0.0020
      8  CD1       34.3230   43.5710    0.7840 C.3    26  ILE26       0.0001
      9  N         31.7480   42.0200   -2.2000 N.am   27  GLY27      -0.1942
     10  CA        30.3110   41.7670   -2.1670 C.3    27  GLY27       0.2014
     11  C         29.4190   42.9040   -2.6330 C.2    27  GLY27       0.2640
     12  O         29.7790   43.6530   -3.5360 O.2    27  GLY27      -0.2714
     13  N         28.2620   43.0270   -1.9760 N.am   28  SER28      -0.1935
     14  CA        27.1660   43.9490   -2.3450 C.3    28  SER28       0.2055
     15  C         26.0220   43.8540   -1.3000 C.2    28  SER28       0.2643
     16  O         25.4680   44.8790   -0.8530 O.2    28  SER28      -0.2714
     17  CB        26.6530   43.6230   -3.7750 C.3    28  SER28       0.2130
     18  OG        25.3230   44.0710   -4.0270 O.3    28  SER28      -0.2179
     19  N         25.7150   42.6100   -0.9030 N.am   29  GLY29      -0.1954
     20  CA        24.5150   42.2830   -0.0920 C.3    29  GLY29       0.1869
     21  C         23.3060   42.2870   -1.0400 C.2    29  GLY29       0.2309
     22  O         22.9570   41.2490   -1.6420 O.2    29  GLY29      -0.2863
     23  N         30.2120   46.5800   -3.0190 N.3    34  VAL34      -0.1245
     24  CA        31.3900   46.8020   -2.2010 C.3    34  VAL34       0.1561
     25  C         32.7040   46.2870   -2.7960 C.2    34  VAL34       0.2260
     26  O         32.7920   45.1670   -3.2680 O.2    34  VAL34      -0.2867
     27  CB        31.1770   46.2270   -0.7900 C.3    34  VAL34       0.0252
     28  CG1       32.4050   46.4220    0.0430 C.3    34  VAL34       0.0019
     29  CG2       29.9950   46.8960   -0.1190 C.3    34  VAL34       0.0019
     30  N         36.8950   49.0000    3.1750 N.3    47  ALA47      -0.1245
     31  CA        35.7790   48.6010    2.3190 C.3    47  ALA47       0.1562
     32  C         35.0320   49.8320    1.8150 C.2    47  ALA47       0.2260
     33  O         34.6420   50.6920    2.6140 O.2    47  ALA47      -0.2867
     34  CB        34.8360   47.6930    3.0630 C.3    47  ALA47       0.0290
     35  N         31.6970   51.2110   -0.2480 N.3    49  LYS49      -0.1245
     36  CA        30.4160   50.8590   -0.8330 C.3    49  LYS49       0.1561
     37  C         30.0370   51.9530   -1.8100 C.2    49  LYS49       0.2260
     38  O         30.0740   53.1320   -1.4550 O.2    49  LYS49      -0.2867
     39  CB        29.3530   50.7100    0.2490 C.3    49  LYS49       0.0271
     40  CG        27.9980   50.2160   -0.2450 C.3    49  LYS49       0.0035
     41  CD        26.9780   50.1800    0.8970 C.3    49  LYS49       0.0206
     42  CE        25.7390   49.3800    0.5080 C.3    49  LYS49       0.1093
     43  NZ        24.6610   49.3770    1.5600 N.3    49  LYS49      -0.1314
     44  N         21.3530   54.4420    5.8160 N.3    67  GLU67      -0.1245
     45  CA        22.7150   53.9800    5.9060 C.3    67  GLU67       0.1567
     46  C         23.5700   55.1610    6.3070 C.2    67  GLU67       0.2260
     47  O         24.1350   55.1730    7.3910 O.2    67  GLU67      -0.2867
     48  CB        23.1240   53.3960    4.5570 C.3    67  GLU67       0.0388
     49  CG        24.6050   53.1460    4.3500 C.3    67  GLU67       0.1160
     50  CD        25.0630   51.7380    4.7510 C.2    67  GLU67       0.3649
     51  OE1       25.0490   51.4320    5.9730 O.co2  67  GLU67      -0.2457
     52  OE2       25.4590   50.9480    3.8410 O.co2  67  GLU67      -0.2457
     53  N         25.4500   55.5390    9.8270 N.3    71  MET71      -0.1245
     54  CA        26.8720   55.2940    9.8180 C.3    71  MET71       0.1570
     55  C         27.6190   56.4370   10.4190 C.2    71  MET71       0.2261
     56  O         28.6810   56.2460   10.9820 O.2    71  MET71      -0.2867
     57  CB        27.3720   55.0360    8.4090 C.3    71  MET71       0.0387
     58  CG        26.9790   53.6820    7.8910 C.3    71  MET71       0.0595
     59  SD        27.4320   52.3610    9.0300 S.3    71  MET71      -0.1393
     60  CE        29.2330   52.3560    8.8540 C.3    71  MET71       0.0692
     61  N         30.3380   47.8180   12.3550 N.3    80  ILE80      -0.1245
     62  CA        31.3920   48.2110   11.4360 C.3    80  ILE80       0.1561
     63  C         31.6150   49.6990   11.5780 C.2    80  ILE80       0.2260
     64  O         30.6610   50.4750   11.6640 O.2    80  ILE80      -0.2867
     65  CB        31.0520   47.8310    9.9870 C.3    80  ILE80       0.0252
     66  CG1       32.2500   48.0490    9.0720 C.3    80  ILE80       0.0019
     67  CG2       29.8880   48.6160    9.4620 C.3    80  ILE80       0.0019
     68  CD1       33.1390   46.8410    8.9570 C.3    80  ILE80       0.0001
     69  N         34.6830   52.1540    5.0910 N.3   102  MET102     -0.1230
     70  CA        34.5530   51.5920    6.4200 C.3   102  MET102      0.1702
     71  C         35.5380   50.4320    6.5590 C.2   102  MET102      0.2592
     72  O         36.1450   50.0100    5.5740 O.2   102  MET102     -0.2718
     73  CB        33.1110   51.1510    6.6600 C.3   102  MET102      0.0401
     74  CG        32.5100   50.4570    5.4580 C.3   102  MET102      0.0596
     75  SD        30.7080   50.3070    5.3690 S.3   102  MET102     -0.1393
     76  CE        30.1910   52.0000    5.5980 C.3   102  MET102      0.0692
     77  N         35.6980   49.9420    7.7900 N.am  103  GLU103     -0.1966
     78  CA        36.7260   48.9650    8.1380 C.3   103  GLU103      0.1733
     79  C         36.6330   47.7610    7.2560 C.2   103  GLU103      0.2616
     80  O         35.5380   47.3930    6.8210 O.2   103  GLU103     -0.2715
     81  CB        36.5380   48.4800    9.5720 C.3   103  GLU103      0.0429
     82  CG        36.3240   49.5860   10.5770 C.3   103  GLU103      0.1163
     83  CD        36.1760   49.0640   11.9960 C.2   103  GLU103      0.3649
     84  OE1       35.0680   49.2080   12.5510 O.co2 103  GLU103     -0.2457
     85  OE2       37.1500   48.5040   12.5530 O.co2 103  GLU103     -0.2457
     86  N         37.7650   47.1190    7.0020 N.am  104  LEU104     -0.1963
     87  CA        37.6970   45.8110    6.3610 C.3   104  LEU104      0.1728
     88  C         37.8110   44.6400    7.3500 C.2   104  LEU104      0.2616
     89  O         38.8310   44.4790    8.0230 O.2   104  LEU104     -0.2715
     90  CB        38.7290   45.6910    5.2530 C.3   104  LEU104      0.0311
     91  CG        38.3660   44.5190    4.3560 C.3   104  LEU104      0.0022
     92  CD1       37.1810   44.8920    3.5170 C.3   104  LEU104      0.0001
     93  CD2       39.5250   44.1310    3.4980 C.3   104  LEU104      0.0001
     94  N         36.7640   43.8270    7.4390 N.am  105  MET105     -0.1963
     95  CA        36.8370   42.6120    8.2630 C.3   105  MET105      0.1736
     96  C         37.3810   41.4320    7.4600 C.2   105  MET105      0.2616
     97  O         37.7210   41.5790    6.2770 O.2   105  MET105     -0.2715
     98  CB        35.5000   42.2910    8.9320 C.3   105  MET105      0.0427
     99  CG        35.1070   43.3200    9.9640 C.3   105  MET105      0.0599
    100  SD        36.3190   43.3530   11.2920 S.3   105  MET105     -0.1393
    101  CE        35.5970   42.2280   12.5040 C.3   105  MET105      0.0692
    102  N         37.4990   40.2740    8.0970 N.am  106  ASP106     -0.1957
    103  CA        38.2110   39.1890    7.4580 C.3   106  ASP106      0.1840
    104  C         37.3190   38.3490    6.5770 C.2   106  ASP106      0.2622
    105  O         37.7610   37.8800    5.5340 O.2   106  ASP106     -0.2715
    106  CB        38.9180   38.3290    8.4910 C.3   106  ASP106      0.1450
    107  CG        40.2150   38.9420    8.9530 C.2   106  ASP106      0.3671
    108  OD1       40.4320   40.1490    8.6740 O.co2 106  ASP106     -0.2456
    109  OD2       41.0160   38.2170    9.5920 O.co2 106  ASP106     -0.2456
    110  N         36.0680   38.1640    7.0040 N.am  107  ALA107     -0.1963
    111  CA        35.0570   37.3970    6.2630 C.3   107  ALA107      0.1728
    112  C         33.7040   37.5430    6.9440 C.2   107  ALA107      0.2616
    113  O         33.6290   38.0950    8.0440 O.2   107  ALA107     -0.2715
    114  CB        35.4510   35.9290    6.1780 C.3   107  ALA107      0.0334
    115  N         32.6450   37.0660    6.2880 N.am  108  ASN108     -0.1972
    116  CA        31.3260   37.0450    6.9030 C.3   108  ASN108      0.1688
    117  C         30.9580   35.6550    7.3780 C.2   108  ASN108      0.2292
    118  O         31.5730   34.6680    6.9700 O.2   108  ASN108     -0.2864
    119  CB        30.2610   37.5960    5.9640 C.3   108  ASN108      0.1181
    120  CG        30.1820   36.8360    4.6560 C.2   108  ASN108      0.2629
    121  OD1       30.2960   35.6120    4.6240 O.2   108  ASN108     -0.2716
    122  ND2       29.9760   37.5640    3.5650 N.am  108  ASN108     -0.0877
    123  N         25.1180   37.0680    5.8880 N.3   149  SER149     -0.1202
    124  CA        25.9310   37.8350    4.9700 C.3   149  SER149      0.2020
    125  C         25.9530   39.3180    5.3110 C.2   149  SER149      0.2618
    126  O         26.6090   40.0930    4.6270 O.2   149  SER149     -0.2717
    127  CB        25.4440   37.6100    3.5500 C.3   149  SER149      0.2103
    128  OG        24.3170   38.4130    3.3060 O.3   149  SER149     -0.2182
    129  N         25.2120   39.7080    6.3480 N.am  150  ASN150     -0.1974
    130  CA        25.3210   41.0550    6.9370 C.3   150  ASN150      0.1688
    131  C         26.1260   41.0830    8.2350 C.2   150  ASN150      0.2292
    132  O         26.1670   42.1180    8.9030 O.2   150  ASN150     -0.2864
    133  CB        23.9520   41.6560    7.2440 C.3   150  ASN150      0.1181
    134  CG        23.2300   42.1550    6.0110 C.2   150  ASN150      0.2629
    135  OD1       22.0160   41.9690    5.9030 O.2   150  ASN150     -0.2716
    136  ND2       23.9530   42.8100    5.0820 N.am  150  ASN150     -0.0877
    137  N         29.9750   40.2570    9.8750 N.3   152  VAL152     -0.1245
    138  CA        31.3740   40.0900    9.5370 C.3   152  VAL152      0.1561
    139  C         32.2270   39.8230   10.7630 C.2   152  VAL152      0.2260
    140  O         31.8980   40.2610   11.8900 O.2   152  VAL152     -0.2867
    141  CB        31.8990   41.3570    8.9470 C.3   152  VAL152      0.0252
    142  CG1       31.6900   41.3670    7.4510 C.3   152  VAL152      0.0019
    143  CG2       31.2340   42.5270    9.6410 C.3   152  VAL152      0.0019
    144  N         26.5990   45.0450   10.1740 N.3   162  LEU162     -0.1231
    145  CA        26.5690   46.1010    9.1410 C.3   162  LEU162      0.1693
    146  C         25.3090   46.1690    8.2540 C.2   162  LEU162      0.2592
    147  O         24.3310   45.4570    8.4830 O.2   162  LEU162     -0.2718
    148  CB        27.8200   46.0320    8.2710 C.3   162  LEU162      0.0284
    149  CG        28.1290   44.6640    7.6820 C.3   162  LEU162      0.0019
    150  CD1       27.1270   44.2600    6.6190 C.3   162  LEU162      0.0001
    151  CD2       29.5120   44.7120    7.1010 C.3   162  LEU162      0.0001
    152  N         25.3790   47.0260    7.2300 N.am  163  ASP163     -0.1974
    153  CA        24.2750   47.3500    6.3110 C.3   163  ASP163      0.1709
    154  C         22.9970   47.7780    7.0260 C.2   163  ASP163      0.2293
    155  O         22.1390   46.9550    7.3360 O.2   163  ASP163     -0.2864
    156  CB        23.9950   46.2210    5.3040 C.3   163  ASP163      0.1436
    157  CG        23.3900   46.7400    3.9850 C.2   163  ASP163      0.3671
    158  OD1       22.4300   47.5530    4.0160 O.co2 163  ASP163     -0.2456
    159  OD2       23.8890   46.3350    2.9000 O.co2 163  ASP163     -0.2456
@<TRIPOS>BOND
     1    18    17    1
     2    17    14    1
     3    12    11    2
     4     1     2    1
     5    26    25    2
     6    23    24    1
     7    25    24    1
     8    11    10    1
     9    11    13   am
    10     4     3    2
    11     2     3    1
    12     2     5    1
    13     3     9   am
    14    14    13    1
    15    14    15    1
    16    24    27    1
    17     9    10    1
    18    37    38    2
    19    37    36    1
    20    22    21    2
    21    15    19   am
    22    15    16    2
    23    21    20    1
    24     5     7    1
    25     5     6    1
    26    19    20    1
    27    36    35    1
    28    36    39    1
    29    27    29    1
    30    27    28    1
    31     6     8    1
    32    40    39    1
    33    40    41    1
    34    42    41    1
    35    42    43    1
    36    32    31    1
    37    32    33    2
    38    31    34    1
    39    31    30    1
    40   159   157   ar
    41   128   127    1
    42    93    91    1
    43    92    91    1
    44   127   124    1
    45   122   120   am
    46    52    50   ar
    47   157   158   ar
    48   157   156    1
    49    49    48    1
    50    49    50    1
    51    91    90    1
    52    48    45    1
    53   121   120    2
    54   126   125    2
    55   120   119    1
    56    50    51   ar
    57   124   125    1
    58   124   123    1
    59   136   134   am
    60    69    70    1
    61    90    87    1
    62   156   153    1
    63   125   129   am
    64    75    74    1
    65    75    76    1
    66    74    73    1
    67   105   104    2
    68    72    71    2
    69    44    45    1
    70   135   134    2
    71    45    46    1
    72   119   116    1
    73   134   133    1
    74   114   111    1
    75   111   112    1
    76   111   110    1
    77    97    96    2
    78   115   116    1
    79   115   112   am
    80    46    47    2
    81   153   154    1
    82   153   152    1
    83   129   130    1
    84    87    86    1
    85    87    88    1
    86    70    71    1
    87    70    73    1
    88    71    77   am
    89   104   110   am
    90   104   103    1
    91   150   149    1
    92    80    79    2
    93   116   117    1
    94   130   133    1
    95   130   131    1
    96   112   113    2
    97   118   117    2
    98    86    79   am
    99   154   155    2
   100   151   149    1
   101   152   146   am
   102    79    78    1
   103    88    94   am
   104    88    89    2
   105    94    95    1
   106   142   141    1
   107   103   102    1
   108   103   106    1
   109    96   102   am
   110    96    95    1
   111   149   148    1
   112    77    78    1
   113    58    57    1
   114    58    59    1
   115    78    81    1
   116   131   132    2
   117   146   147    2
   118   146   145    1
   119    95    98    1
   120   148   145    1
   121    57    54    1
   122   106   107    1
   123   108   107   ar
   124    60    59    1
   125    98    99    1
   126   141   138    1
   127   141   143    1
   128   107   109   ar
   129    68    66    1
   130    66    65    1
   131   145   144    1
   132    67    65    1
   133   138   137    1
   134   138   139    1
   135    81    82    1
   136    54    53    1
   137    54    55    1
   138    99   100    1
   139    65    62    1
   140    55    56    2
   141    82    83    1
   142   139   140    2
   143   100   101    1
   144    62    63    1
   145    62    61    1
   146    63    64    2
   147    83    84   ar
   148    83    85   ar
