@<TRIPOS>MOLECULE
tmp/3v3wA00.pdb
 96 97 0 0 0
SMALL
GASTEIGER

@<TRIPOS>ATOM
      1  N         13.8440  -30.4800   21.5720 N.3   335  HIS335     -0.1241
      2  CA        14.2150  -31.8450   21.8960 C.3   335  HIS335      0.1621
      3  C         13.1840  -32.5040   22.7920 C.2   335  HIS335      0.2264
      4  O         13.2190  -32.3660   24.0000 O.2   335  HIS335     -0.2867
      5  CB        15.5880  -31.8850   22.5720 C.3   335  HIS335      0.0745
      6  CG        16.0450  -33.2790   22.8640 C.ar  335  HIS335      0.0817
      7  ND1       16.6380  -33.6320   24.0560 N.ar  335  HIS335     -0.2268
      8  CD2       15.9710  -34.4070   22.1140 C.ar  335  HIS335      0.1154
      9  CE1       16.9300  -34.9270   24.0150 C.ar  335  HIS335      0.1986
     10  NE2       16.5370  -35.4240   22.8510 N.ar  335  HIS335     -0.2212
     11  N         12.6120  -36.0320   23.9310 N.3   337  ALA337     -0.1231
     12  CA        13.5120  -37.1630   23.8320 C.3   337  ALA337      0.1694
     13  C         12.8730  -38.4510   23.3350 C.2   337  ALA337      0.2592
     14  O         11.7880  -38.8460   23.8160 O.2   337  ALA337     -0.2718
     15  CB        14.1730  -37.4590   25.1970 C.3   337  ALA337      0.0304
     16  N         13.5750  -39.1250   22.4430 N.am  338  HIS338     -0.1976
     17  CA        13.2440  -40.4900   22.0690 C.3   338  HIS338      0.1656
     18  C         13.4940  -41.4430   23.2160 C.2   338  HIS338      0.2291
     19  O         14.3400  -41.1670   24.0960 O.2   338  HIS338     -0.2864
     20  CB        14.0640  -40.9250   20.8300 C.3   338  HIS338      0.0771
     21  CG        13.6950  -40.1670   19.5850 C.ar  338  HIS338      0.0820
     22  ND1       14.5960  -39.3570   18.9360 N.ar  338  HIS338     -0.2267
     23  CD2       12.5150  -40.0520   18.9160 C.ar  338  HIS338      0.1154
     24  CE1       13.9950  -38.7750   17.9030 C.ar  338  HIS338      0.1986
     25  NE2       12.7400  -39.1850   17.8670 N.ar  338  HIS338     -0.2212
     26  N         15.9290  -45.1930   20.2060 N.3   343  ASN343     -0.1225
     27  CA        17.3140  -44.9030   19.9330 C.3   343  ASN343      0.1785
     28  C         18.0930  -46.1130   19.4830 C.2   343  ASN343      0.2597
     29  O         18.9910  -45.9880   18.6370 O.2   343  ASN343     -0.2718
     30  CB        17.9980  -44.2490   21.1710 C.3   343  ASN343      0.1169
     31  CG        17.6600  -42.8100   21.3290 C.2   343  ASN343      0.2627
     32  OD1       17.4410  -42.0730   20.3640 O.2   343  ASN343     -0.2716
     33  ND2       17.6120  -42.3720   22.5730 N.am  343  ASN343     -0.0877
     34  N         17.8030  -47.3120   20.0010 N.am  344  ALA344     -0.1979
     35  CA        18.5650  -48.4770   19.6300 C.3   344  ALA344      0.1597
     36  C         18.4430  -48.8460   18.1310 C.2   344  ALA344      0.2287
     37  O         19.3620  -49.3690   17.5210 O.2   344  ALA344     -0.2864
     38  CB        18.1240  -49.6620   20.5090 C.3   344  ALA344      0.0319
     39  N         21.3340  -46.0160   15.5420 N.3   347  PRO347     -0.2102
     40  CA        22.6380  -45.5750   16.0660 C.3   347  PRO347      0.1504
     41  C         23.0030  -44.2020   15.4910 C.2   347  PRO347      0.2575
     42  O         22.7700  -43.9290   14.2880 O.2   347  PRO347     -0.2718
     43  CB        23.5980  -46.6510   15.5360 C.3   347  PRO347      0.0282
     44  CG        22.7280  -47.8460   15.3520 C.3   347  PRO347      0.0208
     45  CD        21.3850  -47.3140   14.9040 C.3   347  PRO347      0.0893
     46  N         23.5560  -43.3180   16.3130 N.am  348  HIS348     -0.1976
     47  CA        23.7890  -41.9590   15.8900 C.3   348  HIS348      0.1656
     48  C         24.9820  -41.3410   16.5920 C.2   348  HIS348      0.2291
     49  O         25.3450  -41.7430   17.6920 O.2   348  HIS348     -0.2864
     50  CB        22.5130  -41.1050   16.1030 C.3   348  HIS348      0.0771
     51  CG        21.9790  -41.1490   17.5070 C.ar  348  HIS348      0.0820
     52  ND1       21.0280  -42.0630   17.9070 N.ar  348  HIS348     -0.2267
     53  CD2       22.2380  -40.3620   18.5920 C.ar  348  HIS348      0.1154
     54  CE1       20.7290  -41.8450   19.1890 C.ar  348  HIS348      0.1986
     55  NE2       21.4680  -40.8360   19.6350 N.ar  348  HIS348     -0.2212
     56  N         25.2180  -37.8660   17.2440 N.3   350  TYR350     -0.1227
     57  CA        24.9420  -36.6470   17.9770 C.3   350  TYR350      0.1736
     58  C         24.8590  -36.9310   19.4740 C.2   350  TYR350      0.2596
     59  O         24.4670  -38.0340   19.9010 O.2   350  TYR350     -0.2718
     60  CB        23.6690  -35.9660   17.4830 C.3   350  TYR350      0.0548
     61  CG        22.3650  -36.7330   17.5210 C.ar  350  TYR350     -0.0200
     62  CD1       21.6100  -36.8060   18.7070 C.ar  350  TYR350     -0.0009
     63  CD2       21.8450  -37.3430   16.3540 C.ar  350  TYR350     -0.0009
     64  CE1       20.3990  -37.4520   18.7190 C.ar  350  TYR350      0.0417
     65  CE2       20.6580  -37.9900   16.3760 C.ar  350  TYR350      0.0417
     66  CZ        19.9540  -38.0370   17.5430 C.ar  350  TYR350      0.1957
     67  OH        18.7160  -38.7040   17.5330 O.3   350  TYR350     -0.2866
     68  N         25.2390  -35.9340   20.2720 N.am  351  THR351     -0.1939
     69  CA        25.2520  -36.1020   21.7380 C.3   351  THR351      0.2028
     70  C         24.7650  -34.8270   22.4260 C.2   351  THR351      0.2642
     71  O         24.8340  -33.7220   21.8640 O.2   351  THR351     -0.2714
     72  CB        26.6410  -36.4630   22.2860 C.3   351  THR351      0.1808
     73  OG1       27.5910  -35.4550   21.9010 O.3   351  THR351     -0.2208
     74  CG2       27.1390  -37.7900   21.7490 C.3   351  THR351      0.0379
     75  N         24.3150  -35.0260   23.6610 N.am  352  PHE352     -0.1973
     76  CA        23.7360  -33.9710   24.4930 C.3   352  PHE352      0.1639
     77  C         24.5850  -33.7940   25.7280 C.2   352  PHE352      0.2290
     78  O         25.0700  -34.7740   26.3250 O.2   352  PHE352     -0.2864
     79  CB        22.3400  -34.4000   24.9110 C.3   352  PHE352      0.0560
     80  CG        21.6500  -33.4520   25.9110 C.ar  352  PHE352     -0.0200
     81  CD1       20.8500  -32.4190   25.4390 C.ar  352  PHE352     -0.0042
     82  CD2       21.7230  -33.6790   27.2940 C.ar  352  PHE352     -0.0042
     83  CE1       20.1750  -31.5740   26.3290 C.ar  352  PHE352     -0.0003
     84  CE2       21.0730  -32.8220   28.1850 C.ar  352  PHE352     -0.0003
     85  CZ        20.2800  -31.7900   27.6780 C.ar  352  PHE352     -0.0000
     86  N         23.4830  -29.6240   22.1990 N.3   357  PHE357     -0.1241
     87  CA        23.9040  -30.7290   21.3330 C.3   357  PHE357      0.1605
     88  C         25.1420  -30.3840   20.5340 C.2   357  PHE357      0.2264
     89  O         25.4400  -29.1990   20.2760 O.2   357  PHE357     -0.2867
     90  CB        22.7910  -31.0520   20.3410 C.3   357  PHE357      0.0534
     91  CG        21.6320  -31.8200   20.9350 C.ar  357  PHE357     -0.0203
     92  CD1       21.6440  -33.2200   20.9120 C.ar  357  PHE357     -0.0042
     93  CD2       20.5140  -31.1530   21.4590 C.ar  357  PHE357     -0.0042
     94  CE1       20.5860  -33.9510   21.4310 C.ar  357  PHE357     -0.0003
     95  CE2       19.4660  -31.8820   21.9980 C.ar  357  PHE357     -0.0003
     96  CZ        19.4820  -33.2660   21.9630 C.ar  357  PHE357     -0.0000
@<TRIPOS>BOND
     1    42    41    2
     2    45    44    1
     3    45    39    1
     4    44    43    1
     5    41    40    1
     6    41    46   am
     7    43    40    1
     8    39    40    1
     9    47    50    1
    10    47    46    1
    11    47    48    1
    12    50    51    1
    13    63    65   ar
    14    63    61   ar
    15    65    66   ar
    16    48    49    2
    17    56    57    1
    18    60    61    1
    19    60    57    1
    20    51    52   ar
    21    51    53   ar
    22    61    62   ar
    23    37    36    2
    24    67    66    1
    25    66    64   ar
    26    25    24   ar
    27    25    23   ar
    28    24    22   ar
    29    52    54   ar
    30    57    58    1
    31    36    35    1
    32    53    55   ar
    33    29    28    2
    34    62    64   ar
    35    23    21   ar
    36    22    21   ar
    37    54    55   ar
    38    58    59    2
    39    58    68   am
    40    28    27    1
    41    28    34   am
    42    21    20    1
    43    35    34    1
    44    35    38    1
    45    27    26    1
    46    27    30    1
    47    68    69    1
    48    89    88    2
    49    90    91    1
    50    90    87    1
    51    32    31    2
    52    88    87    1
    53    20    17    1
    54    92    91   ar
    55    92    94   ar
    56    91    93   ar
    57    30    31    1
    58    31    33   am
    59    87    86    1
    60    94    96   ar
    61    93    95   ar
    62     1     2    1
    63    69    72    1
    64    69    70    1
    65    74    72    1
    66    71    70    2
    67     2     5    1
    68     2     3    1
    69    73    72    1
    70    96    95   ar
    71    17    16    1
    72    17    18    1
    73     8    10   ar
    74     8     6   ar
    75    70    75   am
    76    16    13   am
    77     5     6    1
    78     3     4    2
    79    10     9   ar
    80     6     7   ar
    81    18    19    2
    82    13    14    2
    83    13    12    1
    84    75    76    1
    85    12    11    1
    86    12    15    1
    87     9     7   ar
    88    76    79    1
    89    76    77    1
    90    79    80    1
    91    81    80   ar
    92    81    83   ar
    93    77    78    2
    94    80    82   ar
    95    83    85   ar
    96    82    84   ar
    97    85    84   ar
