@<TRIPOS>MOLECULE
tmp/3v3zA01.pdb
 97 94 0 0 0
SMALL
GASTEIGER

@<TRIPOS>ATOM
      1  N        -44.7540   45.3300   25.7980 N.3    29  GLU29      -0.1245
      2  CA       -45.3410   46.6800   25.8500 C.3    29  GLU29       0.1567
      3  C        -46.8460   46.6270   26.0620 C.2    29  GLU29       0.2260
      4  O        -47.5460   45.8120   25.4410 O.2    29  GLU29      -0.2867
      5  CB       -45.0220   47.4780   24.5810 C.3    29  GLU29       0.0388
      6  CG       -43.5270   47.7170   24.3310 C.3    29  GLU29       0.1160
      7  CD       -43.0800   49.1640   24.5180 C.2    29  GLU29       0.3649
      8  OE1      -43.8420   49.9960   25.0570 O.co2  29  GLU29      -0.2457
      9  OE2      -41.9470   49.4750   24.0940 O.co2  29  GLU29      -0.2457
     10  N        -30.8350   53.7750   28.5470 N.3    63  THR63      -0.1203
     11  CA       -31.3360   52.4670   28.1420 C.3    63  THR63       0.1994
     12  C        -32.8680   52.4290   28.1520 C.2    63  THR63       0.2617
     13  O        -33.5250   53.3520   28.6490 O.2    63  THR63      -0.2717
     14  CB       -30.8050   51.3370   29.0490 C.3    63  THR63       0.1784
     15  OG1      -31.1970   51.5980   30.4020 O.3    63  THR63      -0.2211
     16  CG2      -29.2720   51.1840   28.9410 C.3    63  THR63       0.0376
     17  N        -33.4240   51.3770   27.5570 N.am   64  LEU64      -0.1979
     18  CA       -34.8150   51.0290   27.7780 C.3    64  LEU64       0.1596
     19  C        -34.8580   49.5690   28.1410 C.2    64  LEU64       0.2287
     20  O        -34.1340   48.7460   27.5650 O.2    64  LEU64      -0.2864
     21  CB       -35.6910   51.3000   26.5590 C.3    64  LEU64       0.0297
     22  CG       -37.0610   50.6140   26.5760 C.3    64  LEU64       0.0022
     23  CD1      -38.0270   51.3080   27.5080 C.3    64  LEU64       0.0001
     24  CD2      -37.6160   50.5540   25.1790 C.3    64  LEU64       0.0001
     25  N        -42.1170   48.7620   34.5410 N.3    69  PRO69      -0.2102
     26  CA       -43.2330   49.4920   35.1450 C.3    69  PRO69       0.1504
     27  C        -43.7630   50.5160   34.1650 C.2    69  PRO69       0.2576
     28  O        -42.9730   51.2150   33.5220 O.2    69  PRO69      -0.2718
     29  CB       -42.5900   50.1980   36.3480 C.3    69  PRO69       0.0282
     30  CG       -41.1110   50.0780   36.1360 C.3    69  PRO69       0.0208
     31  CD       -40.9350   48.7840   35.4180 C.3    69  PRO69       0.0893
     32  N        -45.0840   50.6000   34.0520 N.am   70  GLU70      -0.1966
     33  CA       -45.6890   51.3210   32.9390 C.3    70  GLU70       0.1733
     34  C        -46.8350   52.2460   33.3310 C.2    70  GLU70       0.2617
     35  O        -47.9190   51.8000   33.7290 O.2    70  GLU70      -0.2715
     36  CB       -46.1980   50.3020   31.9370 C.3    70  GLU70       0.0429
     37  CG       -45.8990   50.6020   30.4950 C.3    70  GLU70       0.1163
     38  CD       -46.3240   49.4510   29.6180 C.2    70  GLU70       0.3649
     39  OE1      -47.2460   48.7070   30.0480 O.co2  70  GLU70      -0.2457
     40  OE2      -45.7430   49.2890   28.5210 O.co2  70  GLU70      -0.2457
     41  N        -46.6020   53.5410   33.2040 N.am   71  SER71      -0.1936
     42  CA       -47.6680   54.4980   33.4370 C.3    71  SER71       0.2055
     43  C        -47.8210   55.4120   32.2280 C.2    71  SER71       0.2643
     44  O        -46.9070   55.5390   31.4040 O.2    71  SER71      -0.2714
     45  CB       -47.3860   55.3130   34.6900 C.3    71  SER71       0.2130
     46  OG       -46.2540   56.1390   34.4750 O.3    71  SER71      -0.2179
     47  N        -48.9880   56.0400   32.1270 N.am   72  GLU72      -0.1963
     48  CA       -49.2680   56.9700   31.0360 C.3    72  GLU72       0.1733
     49  C        -48.4820   58.2850   31.1560 C.2    72  GLU72       0.2616
     50  O        -48.3180   58.9850   30.1510 O.2    72  GLU72      -0.2715
     51  CB       -50.7790   57.2260   30.9050 C.3    72  GLU72       0.0429
     52  CG       -51.5620   56.0440   30.3310 C.3    72  GLU72       0.1163
     53  CD       -51.3190   55.8280   28.8410 C.2    72  GLU72       0.3649
     54  OE1      -51.9560   56.5050   28.0070 O.co2  72  GLU72      -0.2457
     55  OE2      -50.4870   54.9700   28.5100 O.co2  72  GLU72      -0.2457
     56  N        -48.0040   58.6020   32.3720 N.am   73  ASP73      -0.1971
     57  CA       -47.2160   59.8160   32.6610 C.3    73  ASP73       0.1709
     58  C        -47.9140   61.1210   32.2300 C.2    73  ASP73       0.2293
     59  O        -47.2540   62.1380   31.9750 O.2    73  ASP73      -0.2864
     60  CB       -45.8010   59.7200   32.0490 C.3    73  ASP73       0.1436
     61  CG       -44.9050   58.7000   32.7620 C.2    73  ASP73       0.3671
     62  OD1      -45.0870   58.4920   33.9780 O.co2  73  ASP73      -0.2456
     63  OD2      -44.0000   58.1120   32.1190 O.co2  73  ASP73      -0.2456
     64  N        -48.6590   60.3650   22.8980 N.3   106  VAL106     -0.1231
     65  CA       -47.9190   59.6820   23.9550 C.3   106  VAL106      0.1692
     66  C        -46.8360   60.5760   24.5230 C.2   106  VAL106      0.2592
     67  O        -46.1830   61.2910   23.7850 O.2   106  VAL106     -0.2718
     68  CB       -47.3140   58.3510   23.4770 C.3   106  VAL106      0.0266
     69  CG1      -46.3900   57.7340   24.5360 C.3   106  VAL106      0.0020
     70  CG2      -48.4250   57.3890   23.1300 C.3   106  VAL106      0.0020
     71  N        -46.6700   60.5400   25.8450 N.am  107  ALA107     -0.1966
     72  CA       -45.5840   61.2320   26.5360 C.3   107  ALA107      0.1728
     73  C        -44.2230   60.6050   26.2420 C.2   107  ALA107      0.2616
     74  O        -43.6160   59.9460   27.0880 O.2   107  ALA107     -0.2715
     75  CB       -45.8410   61.2420   28.0080 C.3   107  ALA107      0.0334
     76  N        -43.7620   60.8210   25.0180 N.am  108  ARG108     -0.1963
     77  CA       -42.4450   60.3900   24.5760 C.3   108  ARG108      0.1729
     78  C        -41.4180   61.4080   25.0620 C.2   108  ARG108      0.2616
     79  O        -41.7920   62.4190   25.6770 O.2   108  ARG108     -0.2715
     80  CB       -42.4110   60.2870   23.0420 C.3   108  ARG108      0.0348
     81  CG       -43.4890   59.3770   22.4420 C.3   108  ARG108      0.0492
     82  CD       -43.4050   59.3300   20.9260 C.3   108  ARG108      0.2205
     83  NE       -42.3570   58.4370   20.4380 N.pl3 108  ARG108     -0.0865
     84  CZ       -41.7910   58.5520   19.2440 C.cat 108  ARG108      0.5346
     85  NH1      -42.1800   59.5360   18.4420 N.pl3 108  ARG108      0.1354
     86  NH2      -40.8390   57.6990   18.8640 N.pl3 108  ARG108      0.1354
     87  N        -40.1390   61.1480   24.7740 N.am  109  ARG109     -0.1977
     88  CA       -39.0620   62.0300   25.1910 C.3   109  ARG109      0.1597
     89  C        -39.1920   63.4350   24.6150 C.2   109  ARG109      0.2287
     90  O        -39.6040   63.6240   23.4680 O.2   109  ARG109     -0.2864
     91  CB       -37.7040   61.4480   24.8480 C.3   109  ARG109      0.0334
     92  CG       -36.6510   61.8430   25.8640 C.3   109  ARG109      0.0492
     93  CD       -35.3170   61.1720   25.6220 C.3   109  ARG109      0.2205
     94  NE       -35.5110   59.7820   25.2140 N.pl3 109  ARG109     -0.0865
     95  CZ       -34.7720   58.7570   25.6310 C.cat 109  ARG109      0.5346
     96  NH1      -33.7700   58.9430   26.4960 N.pl3 109  ARG109      0.1354
     97  NH2      -35.0560   57.5380   25.1860 N.pl3 109  ARG109      0.1354
@<TRIPOS>BOND
     1    85    84    1
     2    86    84    1
     3    84    83    2
     4    83    82    1
     5    82    81    1
     6    81    80    1
     7    64    65    1
     8    80    77    1
     9    70    68    1
    10    90    89    2
    11    68    65    1
    12    68    69    1
    13    67    66    2
    14    65    66    1
    15     9     7   ar
    16     6     7    1
    17     6     5    1
    18     7     8   ar
    19    66    71   am
    20    77    76    1
    21    77    78    1
    22     5     2    1
    23    89    88    1
    24    87    78   am
    25    87    88    1
    26    91    88    1
    27    91    92    1
    28    76    73   am
    29    78    79    2
    30    24    22    1
    31    97    95    1
    32    94    93    1
    33    94    95    2
    34     4     3    2
    35    93    92    1
    36    95    96    1
    37     1     2    1
    38    71    72    1
    39     2     3    1
    40    73    72    1
    41    73    74    2
    42    72    75    1
    43    21    22    1
    44    21    18    1
    45    22    23    1
    46    17    18    1
    47    17    12   am
    48    20    19    2
    49    18    19    1
    50    54    53   ar
    51    11    12    1
    52    11    10    1
    53    11    14    1
    54    12    13    2
    55    55    53   ar
    56    40    38   ar
    57    53    52    1
    58    16    14    1
    59    14    15    1
    60    38    39   ar
    61    38    37    1
    62    50    49    2
    63    52    51    1
    64    37    36    1
    65    51    48    1
    66    48    49    1
    67    48    47    1
    68    49    56   am
    69    44    43    2
    70    36    33    1
    71    59    58    2
    72    60    57    1
    73    60    61    1
    74    63    61   ar
    75    47    43   am
    76    43    42    1
    77    58    57    1
    78    56    57    1
    79    61    62   ar
    80    33    34    1
    81    33    32    1
    82    41    34   am
    83    41    42    1
    84    34    35    2
    85    42    45    1
    86    28    27    2
    87    32    27   am
    88    27    26    1
    89    46    45    1
    90    25    26    1
    91    25    31    1
    92    26    29    1
    93    31    30    1
    94    30    29    1
