@<TRIPOS>MOLECULE
tmp/3v43A00.pdb
 183 180 0 0 0
SMALL
GASTEIGER

@<TRIPOS>ATOM
      1  N         25.6610   19.8600   14.5080 N.3    42  LYS42      -0.1231
      2  CA        26.5110   18.6580   14.4170 C.3    42  LYS42       0.1693
      3  C         26.3330   17.9410   13.0750 C.2    42  LYS42       0.2592
      4  O         26.4400   16.7190   12.9860 O.2    42  LYS42      -0.2718
      5  CB        26.3240   17.7120   15.6350 C.3    42  LYS42       0.0285
      6  CG        26.4680   18.4470   16.9880 C.3    42  LYS42       0.0035
      7  CD        26.8320   17.5270   18.1360 C.3    42  LYS42       0.0206
      8  CE        27.1460   18.3250   19.4060 C.3    42  LYS42       0.1093
      9  NZ        28.4050   19.1270   19.3000 N.3    42  LYS42      -0.1314
     10  N         26.0720   18.7210   12.0220 N.am   43  PHE43      -0.1976
     11  CA        25.9740   18.1610   10.6700 C.3    43  PHE43       0.1639
     12  C         27.3410   18.0830   10.0090 C.2    43  PHE43       0.2290
     13  O         28.1320   19.0240   10.0840 O.2    43  PHE43      -0.2864
     14  CB        25.0980   19.0610    9.7900 C.3    43  PHE43       0.0560
     15  CG        23.6210   19.0390   10.1170 C.ar   43  PHE43      -0.0200
     16  CD1       23.0710   18.1840   11.0890 C.ar   43  PHE43      -0.0042
     17  CD2       22.7720   19.8970    9.4330 C.ar   43  PHE43      -0.0042
     18  CE1       21.6950   18.1940   11.3470 C.ar   43  PHE43      -0.0003
     19  CE2       21.4160   19.9110    9.6950 C.ar   43  PHE43      -0.0003
     20  CZ        20.8820   19.0530   10.6580 C.ar   43  PHE43      -0.0000
     21  N         26.3380   16.5300    4.7150 N.3    47  LEU47      -0.1245
     22  CA        24.9290   16.6800    5.0970 C.3    47  LEU47       0.1561
     23  C         24.5300   18.1520    4.9870 C.2    47  LEU47       0.2260
     24  O         23.4410   18.4820    4.5040 O.2    47  LEU47      -0.2867
     25  CB        24.6700   16.1290    6.5120 C.3    47  LEU47       0.0270
     26  CG        23.2370   16.3040    7.0270 C.3    47  LEU47       0.0019
     27  CD1       22.2270   15.6130    6.0850 C.3    47  LEU47       0.0001
     28  CD2       23.1220   15.7320    8.4490 C.3    47  LEU47       0.0001
     29  N         14.0620   20.2820   14.2710 N.3    59  ILE59      -0.1231
     30  CA        13.6560   19.1190   15.0440 C.3    59  ILE59       0.1692
     31  C         12.1810   19.1490   15.4650 C.2    59  ILE59       0.2591
     32  O         11.5150   18.1090   15.5120 O.2    59  ILE59      -0.2718
     33  CB        14.5910   18.9560   16.2770 C.3    59  ILE59       0.0266
     34  CG1       14.3090   17.6380   16.9880 C.3    59  ILE59       0.0019
     35  CG2       14.5390   20.1960   17.2320 C.3    59  ILE59       0.0020
     36  CD1       15.4300   17.2420   17.9060 C.3    59  ILE59       0.0001
     37  N         11.6760   20.3420   15.7600 N.am   60  GLU60      -0.1979
     38  CA        10.2990   20.4840   16.2040 C.3    60  GLU60       0.1602
     39  C          9.2780   20.4970   15.0800 C.2    60  GLU60       0.2287
     40  O          8.1390   20.0970   15.2750 O.2    60  GLU60      -0.2864
     41  CB        10.1560   21.7270   17.0810 C.3    60  GLU60       0.0415
     42  CG        10.9460   21.6370   18.3940 C.3    60  GLU60       0.1163
     43  CD        10.5870   20.4220   19.2430 C.2    60  GLU60       0.3649
     44  OE1        9.3820   20.1360   19.3710 O.co2  60  GLU60      -0.2457
     45  OE2       11.5050   19.7590   19.7840 O.co2  60  GLU60      -0.2457
     46  N          9.8400   18.9720   12.0030 N.3    62  LYS62      -0.1245
     47  CA        10.0380   17.8310   11.1020 C.3    62  LYS62       0.1561
     48  C          8.8100   16.9380   11.0760 C.2    62  LYS62       0.2260
     49  O          8.3090   16.5300   12.1290 O.2    62  LYS62      -0.2867
     50  CB        11.2650   17.0160   11.5520 C.3    62  LYS62       0.0271
     51  CG        11.7460   15.9680   10.5710 C.3    62  LYS62       0.0035
     52  CD        12.8910   16.4590    9.7230 C.3    62  LYS62       0.0206
     53  CE        14.1920   16.6810   10.5050 C.3    62  LYS62       0.1093
     54  NZ        15.0270   17.5760    9.6620 N.3    62  LYS62      -0.1314
     55  N          2.0160   13.6190   16.8710 N.3    72  LYS72      -0.1231
     56  CA         2.0290   14.1220   18.2430 C.3    72  LYS72       0.1693
     57  C          3.4670   14.4040   18.6640 C.2    72  LYS72       0.2592
     58  O          4.3910   13.7820   18.1590 O.2    72  LYS72      -0.2718
     59  CB         1.4260   13.0800   19.1800 C.3    72  LYS72       0.0285
     60  CG        -0.0900   13.0400   19.1950 C.3    72  LYS72       0.0035
     61  CD        -0.5810   11.8730   20.0320 C.3    72  LYS72       0.0206
     62  CE         0.2710   10.6330   19.3610 C.3    72  LYS72       0.1093
     63  NZ        -0.4040    9.3020   19.3900 N.3    72  LYS72      -0.1314
     64  N          3.6480   15.3310   19.6000 N.am   73  ASN73      -0.1960
     65  CA         4.9790   15.6720   20.1260 C.3    73  ASN73       0.1819
     66  C          5.7740   14.4800   20.6640 C.2    73  ASN73       0.2621
     67  O          7.0080   14.4690   20.5920 O.2    73  ASN73      -0.2715
     68  CB         4.8590   16.7500   21.2090 C.3    73  ASN73       0.1195
     69  CG         4.5230   18.1110   20.6360 C.2    73  ASN73       0.2630
     70  OD1        5.2130   18.6120   19.7430 O.2    73  ASN73      -0.2716
     71  ND2        3.4610   18.7190   21.1490 N.am   73  ASN73      -0.0877
     72  N          5.0620   13.4790   21.1760 N.am   74  ALA74      -0.1963
     73  CA         5.6870   12.2820   21.7460 C.3    74  ALA74       0.1728
     74  C          6.2050   11.2830   20.7040 C.2    74  ALA74       0.2616
     75  O          7.0130   10.4210   21.0340 O.2    74  ALA74      -0.2715
     76  CB         4.7250   11.5940   22.7080 C.3    74  ALA74       0.0334
     77  N          5.7590   11.4130   19.4520 N.am   75  ASP75      -0.1957
     78  CA         6.1970   10.5270   18.3570 C.3    75  ASP75       0.1840
     79  C          7.7040   10.6080   18.1230 C.2    75  ASP75       0.2622
     80  O          8.3290   11.6500   18.3820 O.2    75  ASP75      -0.2715
     81  CB         5.5350   10.9360   17.0430 C.3    75  ASP75       0.1450
     82  CG         4.0420   10.7140   17.0150 C.2    75  ASP75       0.3671
     83  OD1        3.4630   10.1170   17.9520 O.co2  75  ASP75      -0.2456
     84  OD2        3.4440   11.1490   16.0020 O.co2  75  ASP75      -0.2456
     85  N          8.2830    9.5170   17.6260 N.am   76  ASN76      -0.1958
     86  CA         9.6930    9.5260   17.2420 C.3    76  ASN76       0.1819
     87  C          9.8440    9.2600   15.7560 C.2    76  ASN76       0.2621
     88  O          8.9550    8.6930   15.1170 O.2    76  ASN76      -0.2715
     89  CB        10.5090    8.4960   18.0290 C.3    76  ASN76       0.1195
     90  CG        11.9920    8.8870   18.1760 C.2    76  ASN76       0.2630
     91  OD1       12.8040    8.1140   18.7250 O.2    76  ASN76      -0.2716
     92  ND2       12.3450   10.0760   17.7130 N.am   76  ASN76      -0.0877
     93  N         10.9710    9.7020   15.2100 N.am   77  MET77      -0.1963
     94  CA        11.3410    9.4080   13.8150 C.3    77  MET77       0.1736
     95  C         12.8460    9.3680   13.6770 C.2    77  MET77       0.2616
     96  O         13.5610   10.0320   14.4390 O.2    77  MET77      -0.2715
     97  CB        10.7460   10.3820   12.7900 C.3    77  MET77       0.0427
     98  CG        10.9110   11.8200   13.0230 C.3    77  MET77       0.0599
     99  SD         9.8170   12.6760   11.8480 S.3    77  MET77      -0.1393
    100  CE         8.8480   13.5980   13.0130 C.3    77  MET77       0.0692
    101  N         13.3180    8.5660   12.7270 N.am   78  LEU78      -0.1963
    102  CA        14.7260    8.5810   12.3070 C.3    78  LEU78       0.1728
    103  C         14.9990    9.7870   11.4420 C.2    78  LEU78       0.2616
    104  O         14.1400   10.2030   10.6490 O.2    78  LEU78      -0.2715
    105  CB        15.0410    7.3310   11.4820 C.3    78  LEU78       0.0311
    106  CG        15.2870    6.0560   12.2800 C.3    78  LEU78       0.0022
    107  CD1       15.0990    4.8210   11.4020 C.3    78  LEU78       0.0001
    108  CD2       16.6820    6.0800   12.8750 C.3    78  LEU78       0.0001
    109  N         16.2200   10.3130   11.5380 N.am   79  PHE79      -0.1960
    110  CA        16.6560   11.4030   10.6510 C.3    79  PHE79       0.1771
    111  C         17.7200   10.8880    9.6900 C.2    79  PHE79       0.2620
    112  O         18.7190   10.3050   10.1150 O.2    79  PHE79      -0.2715
    113  CB        17.2540   12.5640   11.4450 C.3    79  PHE79       0.0574
    114  CG        16.2930   13.2630   12.3770 C.ar   79  PHE79      -0.0200
    115  CD1       14.9080   13.2330   12.1860 C.ar   79  PHE79      -0.0042
    116  CD2       16.7970   14.0330   13.4170 C.ar   79  PHE79      -0.0042
    117  CE1       14.0400   13.9220   13.0470 C.ar   79  PHE79      -0.0003
    118  CE2       15.9360   14.7320   14.2950 C.ar   79  PHE79      -0.0003
    119  CZ        14.5560   14.6860   14.0900 C.ar   79  PHE79      -0.0000
    120  N         17.5230   11.1060    8.3890 N.am   80  CYS80      -0.1954
    121  CA        18.4500   10.5850    7.3950 C.3    80  CYS80       0.1843
    122  C         19.8100   11.2630    7.5190 C.2    80  CYS80       0.2625
    123  O         19.9050   12.4930    7.5870 O.2    80  CYS80      -0.2714
    124  CB        17.8680   10.8320    6.0090 C.3    80  CYS80       0.0997
    125  SG        19.0010   10.2660    4.7020 S.3    80  CYS80      -0.0797
    126  N         20.8590   10.4530    7.4820 N.am   81  ASP81      -0.1971
    127  CA        22.2150   10.9860    7.5670 C.3    81  ASP81       0.1709
    128  C         22.7620   11.5920    6.2860 C.2    81  ASP81       0.2293
    129  O         23.8580   12.1570    6.2880 O.2    81  ASP81      -0.2864
    130  CB        23.1440    9.9550    8.1850 C.3    81  ASP81       0.1436
    131  CG        22.8680    9.7820    9.6520 C.2    81  ASP81       0.3671
    132  OD1       22.7350   10.8220   10.3520 O.co2  81  ASP81      -0.2456
    133  OD2       22.7570    8.6260   10.1000 O.co2  81  ASP81      -0.2456
    134  N         18.7460   14.5740    6.0860 N.3    84  ASP84      -0.1239
    135  CA        18.0590   14.9970    7.3320 C.3    84  ASP84       0.1674
    136  C         16.5350   14.9540    7.2970 C.2    84  ASP84       0.2266
    137  O         15.8980   15.4490    8.2090 O.2    84  ASP84      -0.2867
    138  CB        18.5140   16.3580    7.8440 C.3    84  ASP84       0.1410
    139  CG        18.4400   16.4240    9.3530 C.2    84  ASP84       0.3668
    140  OD1       18.8870   15.4370    9.9730 O.co2  84  ASP84      -0.2456
    141  OD2       17.9370   17.4300    9.9190 O.co2  84  ASP84      -0.2456
    142  N         16.8110   -0.1460   15.2580 N.3    99  MET99      -0.1231
    143  CA        17.5540    1.0520   14.9010 C.3    99  MET99       0.1687
    144  C         18.9940    0.6840   14.5320 C.2    99  MET99       0.2434
    145  O         19.6370   -0.0790   15.2350 O.2    99  MET99      -0.2733
    146  CB        17.5520    2.0230   16.0850 C.3    99  MET99       0.0400
    147  CG        17.7740    3.4780   15.6920 C.3    99  MET99       0.0596
    148  SD        17.8860    4.4110   17.2050 S.3    99  MET99      -0.1393
    149  CE        18.9950    5.6870   16.6580 C.3    99  MET99       0.0692
    150  N         19.5150    1.2330   13.4270 N.am  100  PRO100     -0.2718
    151  CA        20.9230    0.9450   13.1360 C.3   100  PRO100      0.1535
    152  C         21.8520    1.5760   14.1610 C.2   100  PRO100      0.2598
    153  O         21.5540    2.6470   14.6780 O.2   100  PRO100     -0.2715
    154  CB        21.1570    1.6320   11.7890 C.3   100  PRO100      0.0310
    155  CG        19.8420    1.9330   11.2640 C.3   100  PRO100      0.0237
    156  CD        18.8710    2.0330   12.3730 C.3   100  PRO100      0.0939
    157  N         22.9790    0.9240   14.4480 N.am  101  LYS101     -0.1964
    158  CA        23.9810    1.5160   15.3430 C.3   101  LYS101      0.1728
    159  C         24.6530    2.7320   14.6970 C.2   101  LYS101      0.2616
    160  O         24.8650    3.7610   15.3580 O.2   101  LYS101     -0.2715
    161  CB        25.0370    0.4780   15.7740 C.3   101  LYS101      0.0311
    162  CG        24.5730   -0.7670   16.5230 C.3   101  LYS101      0.0038
    163  CD        24.0210   -0.2720   17.8100 C.3   101  LYS101      0.0206
    164  CE        23.4050   -1.5850   18.3560 C.3   101  LYS101      0.1093
    165  NZ        22.1980   -1.2180   19.1130 N.3   101  LYS101     -0.1314
    166  N         24.9570    2.6100   13.4020 N.am  102  GLY102     -0.1955
    167  CA        25.6310    3.6650   12.6510 C.3   102  GLY102      0.1869
    168  C         24.6890    4.5340   11.8400 C.2   102  GLY102      0.2309
    169  O         23.5490    4.8150   12.2550 O.2   102  GLY102     -0.2863
    170  N         22.1010    5.9660    9.0490 N.3   104  TRP104     -0.1241
    171  CA        20.8930    5.4800    8.4190 C.3   104  TRP104      0.1605
    172  C         20.5710    6.3920    7.2450 C.2   104  TRP104      0.2264
    173  O         20.6170    7.6060    7.3830 O.2   104  TRP104     -0.2867
    174  CB        19.7220    5.4320    9.4010 C.3   104  TRP104      0.0550
    175  CG        18.4820    5.0050    8.7000 C.ar  104  TRP104      0.0003
    176  CD1       18.1590    3.7380    8.2810 C.ar  104  TRP104      0.0946
    177  CD2       17.4320    5.8570    8.2530 C.ar  104  TRP104      0.0152
    178  NE1       16.9500    3.7540    7.6160 N.ar  104  TRP104     -0.2442
    179  CE2       16.4770    5.0390    7.5910 C.ar  104  TRP104      0.0810
    180  CE3       17.1810    7.2320    8.3690 C.ar  104  TRP104      0.0012
    181  CZ2       15.3100    5.5620    7.0260 C.ar  104  TRP104      0.0191
    182  CZ3       16.0180    7.7470    7.8140 C.ar  104  TRP104      0.0001
    183  CH2       15.0940    6.9080    7.1630 C.ar  104  TRP104      0.0015
@<TRIPOS>BOND
     1    24    23    2
     2   125   124    1
     3    21    22    1
     4    23    22    1
     5    22    25    1
     6   124   121    1
     7    27    26    1
     8   134   135    1
     9   128   129    2
    10   128   127    1
    11    25    26    1
    12   181   183   ar
    13   181   179   ar
    14    26    28    1
    15   183   182   ar
    16   172   173    2
    17   172   171    1
    18   136   135    1
    19   136   137    2
    20   135   138    1
    21   121   122    1
    22   121   120    1
    23   126   122   am
    24   126   127    1
    25   122   123    2
    26   127   130    1
    27   179   178   ar
    28   179   177   ar
    29   178   176   ar
    30   182   180   ar
    31   138   139    1
    32   130   131    1
    33   177   180   ar
    34   177   175   ar
    35   176   175   ar
    36   120   111   am
    37   171   170    1
    38   171   174    1
    39   175   174    1
    40   139   141   ar
    41   139   140   ar
    42    17    19   ar
    43    17    15   ar
    44   131   133   ar
    45   131   132   ar
    46    54    53    1
    47   111   112    2
    48   111   110    1
    49    19    20   ar
    50    52    53    1
    51    52    51    1
    52    14    15    1
    53    14    11    1
    54    12    13    2
    55    12    11    1
    56    15    16   ar
    57    51    50    1
    58   104   103    2
    59   110   113    1
    60   110   109    1
    61    20    18   ar
    62    11    10    1
    63    48    47    1
    64    48    49    2
    65    16    18   ar
    66    47    50    1
    67    47    46    1
    68   155   154    1
    69   155   156    1
    70   107   106    1
    71   103   109   am
    72   103   102    1
    73   113   114    1
    74   105   106    1
    75   105   102    1
    76   154   151    1
    77   168   169    2
    78   168   167    1
    79    99   100    1
    80    99    98    1
    81    10     3   am
    82   115   114   ar
    83   115   117   ar
    84   106   108    1
    85   102   101    1
    86   156   150    1
    87   114   116   ar
    88   167   166    1
    89   101    95   am
    90    97    98    1
    91    97    94    1
    92     4     3    2
    93   117   119   ar
    94     3     2    1
    95   151   150    1
    96   151   152    1
    97   166   159   am
    98   116   118   ar
    99   150   144   am
   100    95    94    1
   101    95    96    2
   102    94    93    1
   103   119   118   ar
   104   152   157   am
   105   152   153    2
   106    29    30    1
   107     2     1    1
   108     2     5    1
   109   157   158    1
   110   144   143    1
   111   144   145    2
   112   159   158    1
   113   159   160    2
   114   143   142    1
   115   143   146    1
   116    30    31    1
   117    30    33    1
   118    39    40    2
   119    39    38    1
   120    88    87    2
   121    93    87   am
   122   158   161    1
   123    31    32    2
   124    31    37   am
   125     5     6    1
   126   147   146    1
   127   147   148    1
   128    87    86    1
   129    37    38    1
   130   161   162    1
   131    84    82   ar
   132    38    41    1
   133    33    34    1
   134    33    35    1
   135   162   163    1
   136   149   148    1
   137    55    56    1
   138    34    36    1
   139     6     7    1
   140    82    81    1
   141    82    83   ar
   142    81    78    1
   143    41    42    1
   144    86    85    1
   145    86    89    1
   146    85    79   am
   147    92    90   am
   148   163   164    1
   149    89    90    1
   150    79    78    1
   151    79    80    2
   152     7     8    1
   153    58    57    2
   154    90    91    2
   155    56    57    1
   156    56    59    1
   157   164   165    1
   158    78    77    1
   159    42    43    1
   160    57    64   am
   161    59    60    1
   162    60    61    1
   163    43    44   ar
   164    43    45   ar
   165     9     8    1
   166    62    63    1
   167    62    61    1
   168    77    74   am
   169    64    65    1
   170    70    69    2
   171    65    66    1
   172    65    68    1
   173    67    66    2
   174    69    71   am
   175    69    68    1
   176    66    72   am
   177    74    75    2
   178    74    73    1
   179    72    73    1
   180    73    76    1
