@<TRIPOS>MOLECULE
tmp/3v47A03.pdb
 123 114 0 0 0
SMALL
GASTEIGER

@<TRIPOS>ATOM
      1  N        -13.6520   -4.8650   27.4780 N.3   277  SER277     -0.1202
      2  CA       -14.7580   -3.9440   27.6610 C.3   277  SER277      0.2020
      3  C        -16.0750   -4.6780   27.9720 C.2   277  SER277      0.2618
      4  O        -16.2120   -5.8620   27.6430 O.2   277  SER277     -0.2717
      5  CB       -14.9300   -3.1350   26.3890 C.3   277  SER277      0.2103
      6  OG       -15.1020   -4.0360   25.3070 O.3   277  SER277     -0.2182
      7  N        -17.0290   -3.9510   28.5820 N.am  278  LYS278     -0.1979
      8  CA       -18.3600   -4.4630   28.8940 C.3   278  LYS278      0.1596
      9  C        -18.3300   -5.7210   29.7510 C.2   278  LYS278      0.2287
     10  O        -19.0640   -6.6670   29.4650 O.2   278  LYS278     -0.2864
     11  CB       -19.1690   -4.7640   27.6100 C.3   278  LYS278      0.0298
     12  CG       -19.2030   -3.6570   26.5370 C.3   278  LYS278      0.0038
     13  CD       -19.9840   -4.0830   25.2750 C.3   278  LYS278      0.0206
     14  CE       -19.4970   -3.3860   23.9620 C.3   278  LYS278      0.1093
     15  NZ       -18.1080   -3.8580   23.4690 N.3   278  LYS278     -0.1314
     16  N         -8.2090   -2.0110   26.0550 N.3   299  THR299     -0.1218
     17  CA        -9.4510   -1.3160   26.3080 C.3   299  THR299      0.1862
     18  C        -10.2000   -1.9250   27.4910 C.2   299  THR299      0.2287
     19  O        -10.3640   -3.1450   27.5750 O.2   299  THR299     -0.2866
     20  CB       -10.3590   -1.1670   25.0360 C.3   299  THR299      0.1770
     21  OG1      -11.6140   -0.6350   25.4560 O.3   299  THR299     -0.2211
     22  CG2      -10.6230   -2.4840   24.3490 C.3   299  THR299      0.0375
     23  N        -13.0410   -0.0780   28.3530 N.3   301  ALA301     -0.1231
     24  CA       -14.2180    0.7630   28.1710 C.3   301  ALA301      0.1694
     25  C        -15.5110    0.0650   28.6100 C.2   301  ALA301      0.2591
     26  O        -15.6340   -1.1630   28.5380 O.2   301  ALA301     -0.2718
     27  CB       -14.3280    1.2040   26.7310 C.3   301  ALA301      0.0304
     28  N        -16.4780    0.8660   29.0500 N.am  302  GLN302     -0.1979
     29  CA       -17.8130    0.3870   29.3750 C.3   302  GLN302      0.1601
     30  C        -17.8160   -0.7390   30.3600 C.2   302  GLN302      0.2287
     31  O        -18.6310   -1.6600   30.2330 O.2   302  GLN302     -0.2864
     32  CB       -18.5920   -0.0610   28.1350 C.3   302  GLN302      0.0394
     33  CG       -18.6300    0.9220   27.0050 C.3   302  GLN302      0.0908
     34  CD       -19.2720    0.3240   25.7520 C.2   302  GLN302      0.2608
     35  OE1      -18.6370    0.1910   24.7080 O.2   302  GLN302     -0.2717
     36  NE2      -20.4990   -0.1040   25.8850 N.am  302  GLN302     -0.0878
     37  N         -1.5550    2.4240   24.6020 N.3   321  LYS321     -0.1245
     38  CA        -2.9200    2.8700   24.5580 C.3   321  LYS321      0.1561
     39  C         -3.8120    2.2240   25.6240 C.2   321  LYS321      0.2260
     40  O         -3.9320    0.9840   25.6940 O.2   321  LYS321     -0.2867
     41  CB        -3.5110    2.6690   23.1760 C.3   321  LYS321      0.0271
     42  CG        -5.0260    2.9860   23.0920 C.3   321  LYS321      0.0035
     43  CD        -5.4830    3.0590   21.6250 C.3   321  LYS321      0.0206
     44  CE        -6.9910    3.4130   21.5500 C.3   321  LYS321      0.1093
     45  NZ        -7.4660    3.4420   20.1380 N.3   321  LYS321     -0.1314
     46  N         -7.7150    2.6120   27.1930 N.3   323  ASN323     -0.1240
     47  CA        -9.0380    3.1400   27.0850 C.3   323  ASN323      0.1653
     48  C         -9.8380    2.8090   28.3460 C.2   323  ASN323      0.2266
     49  O        -10.1050    1.6370   28.6320 O.2   323  ASN323     -0.2867
     50  CB        -9.6780    2.5330   25.8520 C.3   323  ASN323      0.1155
     51  CG       -10.9440    3.2390   25.4410 C.2   323  ASN323      0.2627
     52  OD1      -11.5790    3.8980   26.2590 O.2   323  ASN323     -0.2716
     53  ND2      -11.3040    3.1170   24.1680 N.am  323  ASN323     -0.0877
     54  N        -12.6830    4.7510   28.9230 N.3   325  SER325     -0.1202
     55  CA       -13.9160    5.4680   28.6210 C.3   325  SER325      0.2020
     56  C        -15.1760    4.7430   29.1170 C.2   325  SER325      0.2618
     57  O        -15.1840    3.5250   29.2540 O.2   325  SER325     -0.2717
     58  CB       -14.0240    5.6410   27.1130 C.3   325  SER325      0.2103
     59  OG       -15.0140    6.5870   26.7950 O.3   325  SER325     -0.2182
     60  N        -16.2390    5.4990   29.3580 N.am  326  GLN326     -0.1979
     61  CA       -17.5070    4.9570   29.8750 C.3   326  GLN326      0.1601
     62  C        -17.3280    4.0350   31.0830 C.2   326  GLN326      0.2287
     63  O        -17.6760    2.8610   31.0840 O.2   326  GLN326     -0.2864
     64  CB       -18.3240    4.2930   28.7650 C.3   326  GLN326      0.0394
     65  CG       -18.5340    5.2080   27.5760 C.3   326  GLN326      0.0908
     66  CD       -19.2270    4.4880   26.4370 C.2   326  GLN326      0.2608
     67  OE1      -18.5670    3.9220   25.5540 O.2   326  GLN326     -0.2717
     68  NE2      -20.5450    4.4590   26.4700 N.am  326  GLN326     -0.0878
     69  N         -1.6670    7.2640   24.6890 N.3   345  VAL345     -0.1245
     70  CA        -3.0550    7.6110   24.5350 C.3   345  VAL345      0.1561
     71  C         -3.8530    7.1260   25.7570 C.2   345  VAL345      0.2260
     72  O         -3.8610    5.9230   26.0870 O.2   345  VAL345     -0.2867
     73  CB        -3.6890    6.9740   23.2660 C.3   345  VAL345      0.0252
     74  CG1       -5.2130    7.3060   23.2140 C.3   345  VAL345      0.0019
     75  CG2       -2.9670    7.3720   21.9560 C.3   345  VAL345      0.0019
     76  N         -7.7490    7.4910   27.3230 N.3   347  ASP347     -0.1239
     77  CA        -9.1320    7.8890   27.1660 C.3   347  ASP347      0.1674
     78  C         -9.8960    7.7280   28.4740 C.2   347  ASP347      0.2266
     79  O        -10.1370    6.6250   28.9330 O.2   347  ASP347     -0.2867
     80  CB        -9.8360    7.0650   26.0810 C.3   347  ASP347      0.1410
     81  CG       -11.1470    7.7020   25.6270 C.2   347  ASP347      0.3668
     82  OD1      -11.7240    8.5360   26.3850 O.co2 347  ASP347     -0.2456
     83  OD2      -11.6200    7.3560   24.5150 O.co2 347  ASP347     -0.2456
     84  N        -16.2560   10.1690   29.4030 N.3   350  TYR350     -0.1241
     85  CA       -17.5150    9.5380   29.8070 C.3   350  TYR350      0.1605
     86  C        -17.2960    8.8100   31.1280 C.2   350  TYR350      0.2264
     87  O        -17.6460    7.6400   31.2890 O.2   350  TYR350     -0.2867
     88  CB       -18.0600    8.5940   28.7360 C.3   350  TYR350      0.0534
     89  CG       -18.7210    9.2510   27.5390 C.ar  350  TYR350     -0.0201
     90  CD1      -17.9660    9.7320   26.4640 C.ar  350  TYR350     -0.0009
     91  CD2      -20.1130    9.3550   27.4570 C.ar  350  TYR350     -0.0009
     92  CE1      -18.5890   10.3200   25.3610 C.ar  350  TYR350      0.0417
     93  CE2      -20.7300    9.9220   26.3840 C.ar  350  TYR350      0.0417
     94  CZ       -19.9790   10.3960   25.3330 C.ar  350  TYR350      0.1957
     95  OH       -20.6380   10.9540   24.2400 O.3   350  TYR350     -0.2866
     96  N         -2.0050   11.9370   23.6430 N.3   369  GLU369     -0.1245
     97  CA        -3.4160   12.2080   23.5200 C.3   369  GLU369      0.1567
     98  C         -4.1190   11.9650   24.8680 C.2   369  GLU369      0.2260
     99  O         -3.9820   10.9070   25.4790 O.2   369  GLU369     -0.2867
    100  CB        -4.0210   11.3190   22.4400 C.3   369  GLU369      0.0388
    101  CG        -3.3860   11.5540   21.0660 C.3   369  GLU369      0.1160
    102  CD        -4.1140   10.8710   19.9160 C.2   369  GLU369      0.3649
    103  OE1       -5.3650   10.9100   19.8440 O.co2 369  GLU369     -0.2457
    104  OE2       -3.4140   10.3210   19.0480 O.co2 369  GLU369     -0.2457
    105  N         -7.8900   12.3300   26.7750 N.3   371  ALA371     -0.1245
    106  CA        -9.3080   12.6450   26.6390 C.3   371  ALA371      0.1562
    107  C         -9.9980   12.7080   27.9870 C.2   371  ALA371      0.2260
    108  O        -10.1180   11.6950   28.6680 O.2   371  ALA371     -0.2867
    109  CB       -10.0430   11.6660   25.6750 C.3   371  ALA371      0.0290
    110  N         -8.7320   16.5490   24.9090 N.3   395  TRP395     -0.1241
    111  CA       -10.1800   16.7920   24.9220 C.3   395  TRP395      0.1605
    112  C        -10.6970   17.2340   26.3250 C.2   395  TRP395      0.2264
    113  O        -10.4880   16.5500   27.3390 O.2   395  TRP395     -0.2867
    114  CB       -10.9600   15.5360   24.4930 C.3   395  TRP395      0.0550
    115  CG       -10.7770   15.0580   23.0400 C.ar  395  TRP395      0.0003
    116  CD1      -11.6700   15.2070   22.0170 C.ar  395  TRP395      0.0946
    117  CD2       -9.6560   14.3460   22.4840 C.ar  395  TRP395      0.0152
    118  NE1      -11.1980   14.6150   20.8710 N.ar  395  TRP395     -0.2442
    119  CE2       -9.9580   14.0880   21.1200 C.ar  395  TRP395      0.0810
    120  CE3       -8.4430   13.8880   23.0010 C.ar  395  TRP395      0.0012
    121  CZ2       -9.0650   13.4090   20.2520 C.ar  395  TRP395      0.0191
    122  CZ3       -7.5760   13.1900   22.1530 C.ar  395  TRP395      0.0001
    123  CH2       -7.8940   12.9680   20.7840 C.ar  395  TRP395      0.0015
@<TRIPOS>BOND
     1   104   102   ar
     2   103   102   ar
     3   102   101    1
     4    45    44    1
     5   121   123   ar
     6   121   119   ar
     7   123   122   ar
     8   118   119   ar
     9   118   116   ar
    10   101   100    1
    11   119   117   ar
    12    44    43    1
    13    43    42    1
    14    75    73    1
    15   116   115   ar
    16   122   120   ar
    17   100    97    1
    18   117   120   ar
    19   117   115   ar
    20   115   114    1
    21    42    41    1
    22    41    38    1
    23    74    73    1
    24    73    70    1
    25    15    14    1
    26    97    96    1
    27    97    98    1
    28    14    13    1
    29    53    51   am
    30    95    94    1
    31    22    20    1
    32   114   111    1
    33    83    81   ar
    34    70    69    1
    35    70    71    1
    36    38    37    1
    37    38    39    1
    38    35    34    2
    39    98    99    2
    40   110   111    1
    41   111   112    1
    42    20    21    1
    43    20    17    1
    44    13    12    1
    45     6     5    1
    46    94    92   ar
    47    94    93   ar
    48    92    90   ar
    49    51    50    1
    50    51    52    2
    51    67    66    2
    52    39    40    2
    53    81    80    1
    54    81    82   ar
    55   109   106    1
    56    34    36   am
    57    34    33    1
    58    71    72    2
    59    50    47    1
    60    16    17    1
    61    80    77    1
    62    17    18    1
    63   112   113    2
    64    93    91   ar
    65     5     2    1
    66    66    68   am
    67    66    65    1
    68    90    89   ar
    69    12    11    1
    70   106   105    1
    71   106   107    1
    72    27    24    1
    73    59    58    1
    74    33    32    1
    75    47    46    1
    76    47    48    1
    77    58    55    1
    78    77    76    1
    79    77    78    1
    80    91    89   ar
    81     1     2    1
    82    18    19    2
    83    89    88    1
    84    65    64    1
    85    11     8    1
    86     4     3    2
    87     2     3    1
    88     3     7   am
    89   107   108    2
    90    32    29    1
    91    24    23    1
    92    24    25    1
    93    48    49    2
    94    78    79    2
    95    26    25    2
    96     7     8    1
    97    25    28   am
    98    55    54    1
    99    55    56    1
   100    88    85    1
   101    64    61    1
   102     8     9    1
   103    28    29    1
   104    56    57    2
   105    56    60   am
   106    60    61    1
   107    29    30    1
   108    84    85    1
   109    10     9    2
   110    85    86    1
   111    61    62    1
   112    31    30    2
   113    62    63    2
   114    86    87    2
