@<TRIPOS>MOLECULE
tmp/3v49A01.pdb
 187 176 0 0 0
SMALL
GASTEIGER

@<TRIPOS>ATOM
      1  N         32.4530    0.1390   -3.6190 N.3    31  LEU31      -0.1245
      2  CA        32.7310   -0.1220   -2.1950 C.3    31  LEU31       0.1561
      3  C         33.7410    0.8820   -1.6660 C.2    31  LEU31       0.2260
      4  O         33.6480    1.2800   -0.5070 O.2    31  LEU31      -0.2867
      5  CB        33.2230   -1.5410   -1.9470 C.3    31  LEU31       0.0270
      6  CG        33.4010   -2.0590   -0.5150 C.3    31  LEU31       0.0019
      7  CD1       32.1210   -2.2510    0.2400 C.3    31  LEU31       0.0001
      8  CD2       34.2450   -3.3490   -0.6720 C.3    31  LEU31       0.0001
      9  N         31.8010    3.8530   -0.8060 N.3    34  LEU34      -0.1231
     10  CA        30.8990    3.7090    0.3580 C.3    34  LEU34       0.1693
     11  C         31.7070    3.7480    1.6470 C.2    34  LEU34       0.2592
     12  O         31.2720    4.3220    2.6570 O.2    34  LEU34      -0.2718
     13  CB        30.1070    2.4260    0.2240 C.3    34  LEU34       0.0284
     14  CG        29.0390    2.4250   -0.8960 C.3    34  LEU34       0.0019
     15  CD1       28.6550    0.9910   -1.1760 C.3    34  LEU34       0.0001
     16  CD2       27.8680    3.2820   -0.4560 C.3    34  LEU34       0.0001
     17  N         32.8830    3.1280    1.6060 N.am   35  ASN35      -0.1974
     18  CA        33.7900    3.2030    2.7360 C.3    35  ASN35       0.1688
     19  C         34.1630    4.6520    3.0700 C.2    35  ASN35       0.2292
     20  O         34.1440    5.1220    4.2170 O.2    35  ASN35      -0.2864
     21  CB        35.0890    2.3960    2.4570 C.3    35  ASN35       0.1181
     22  CG        34.9800    0.9590    2.9380 C.2    35  ASN35       0.2629
     23  OD1       34.3510    0.6460    3.9670 O.2    35  ASN35      -0.2716
     24  ND2       35.6050    0.0180    2.2220 N.am   35  ASN35      -0.0877
     25  N         32.5280    7.4170    2.1270 N.3    37  LEU37      -0.1231
     26  CA        31.3390    8.1520    2.5640 C.3    37  LEU37       0.1693
     27  C         30.9940    7.8210    4.0120 C.2    37  LEU37       0.2592
     28  O         30.7040    8.7140    4.8060 O.2    37  LEU37      -0.2718
     29  CB        30.1480    7.8270    1.6400 C.3    37  LEU37       0.0284
     30  CG        28.8580    8.5840    1.9420 C.3    37  LEU37       0.0019
     31  CD1       29.0360   10.0980    1.8810 C.3    37  LEU37       0.0001
     32  CD2       27.7520    8.1560    0.9770 C.3    37  LEU37       0.0001
     33  N         31.0420    6.5270    4.3020 N.am   38  GLY38      -0.1957
     34  CA        30.7650    6.0030    5.6230 C.3    38  GLY38       0.1869
     35  C         31.6330    6.6410    6.7060 C.2    38  GLY38       0.2309
     36  O         31.1620    7.0680    7.7730 O.2    38  GLY38      -0.2863
     37  N         30.6940   10.4030    7.0160 N.3    41  GLN41      -0.1245
     38  CA        29.4480   10.6040    7.7610 C.3    41  GLN41       0.1566
     39  C         29.6730   10.3220    9.2410 C.2    41  GLN41       0.2260
     40  O         29.0820   10.9960   10.0970 O.2    41  GLN41      -0.2867
     41  CB        28.3340    9.7130    7.1960 C.3    41  GLN41       0.0367
     42  CG        27.7450   10.1950    5.8840 C.3    41  GLN41       0.0905
     43  CD        26.7570   11.3340    5.9700 C.2    41  GLN41       0.2608
     44  OE1       26.5250   11.9880    6.9930 O.2    41  GLN41      -0.2717
     45  NE2       26.1080   11.5960    4.8320 N.am   41  GLN41      -0.0878
     46  N         25.4970    4.0910   14.4020 N.3    71  TRP71      -0.1227
     47  CA        25.8420    4.8840   13.2030 C.3    71  TRP71       0.1737
     48  C         25.2220    4.3450   11.9210 C.2    71  TRP71       0.2595
     49  O         24.6750    5.1480   11.1450 O.2    71  TRP71      -0.2718
     50  CB        27.3570    5.0710   13.0250 C.3    71  TRP71       0.0564
     51  CG        28.1110    3.9480   12.4130 C.ar   71  TRP71       0.0003
     52  CD1       28.1600    2.7420   13.0760 C.ar   71  TRP71       0.0946
     53  CD2       28.8750    3.7540   11.2170 C.ar   71  TRP71       0.0152
     54  NE1       28.8900    1.8190   12.3840 N.ar   71  TRP71      -0.2442
     55  CE2       29.3380    2.4210   11.2350 C.ar   71  TRP71       0.0810
     56  CE3       29.2400    4.5230   10.1030 C.ar   71  TRP71       0.0012
     57  CZ2       30.1200    1.8290   10.2430 C.ar   71  TRP71       0.0191
     58  CZ3       30.0150    3.9350    9.1230 C.ar   71  TRP71       0.0001
     59  CH2       30.4540    2.6160    9.1790 C.ar   71  TRP71       0.0015
     60  N         25.2680    3.0400   11.6670 N.am   72  MET72      -0.1979
     61  CA        24.6660    2.5630   10.4050 C.3    72  MET72       0.1605
     62  C         23.1800    2.8770   10.3760 C.2    72  MET72       0.2287
     63  O         22.6440    3.2930    9.3470 O.2    72  MET72      -0.2864
     64  CB        24.9800    1.0660   10.2480 C.3    72  MET72       0.0413
     65  CG        24.7920    0.4680    8.8610 C.3    72  MET72       0.0598
     66  SD        25.6210    1.3550    7.5270 S.3    72  MET72      -0.1393
     67  CE        27.3090    1.3410    8.1970 C.3    72  MET72       0.0692
     68  N         22.6950    6.4280    9.4620 N.3    75  MET75      -0.1230
     69  CA        22.9940    6.7510    8.0650 C.3    75  MET75       0.1702
     70  C         21.8690    6.2640    7.1510 C.2    75  MET75       0.2592
     71  O         21.4760    6.9570    6.2140 O.2    75  MET75      -0.2718
     72  CB        24.3370    6.1830    7.6050 C.3    75  MET75       0.0401
     73  CG        25.5830    6.7720    8.2550 C.3    75  MET75       0.0596
     74  SD        27.0370    6.3730    7.2350 S.3    75  MET75      -0.1393
     75  CE        27.1210    4.5930    7.4260 C.3    75  MET75       0.0692
     76  N         21.3240    5.0840    7.4480 N.am   76  VAL76      -0.1980
     77  CA        20.1880    4.5570    6.6660 C.3    76  VAL76       0.1595
     78  C         18.9880    5.4820    6.6890 C.2    76  VAL76       0.2287
     79  O         18.4190    5.7890    5.6310 O.2    76  VAL76      -0.2864
     80  CB        19.8110    3.1660    7.2100 C.3    76  VAL76       0.0276
     81  CG1       18.5130    2.6440    6.6130 C.3    76  VAL76       0.0022
     82  CG2       20.9550    2.2190    6.8570 C.3    76  VAL76       0.0022
     83  N         19.7160    8.7390    4.8200 N.3    79  MET79      -0.1245
     84  CA        19.8000    8.5130    3.3810 C.3    79  MET79       0.1570
     85  C         18.4050    8.3270    2.8170 C.2    79  MET79       0.2261
     86  O         18.0530    8.8530    1.7670 O.2    79  MET79      -0.2867
     87  CB        20.7320    7.3300    3.0530 C.3    79  MET79       0.0387
     88  CG        21.0540    7.3070    1.5490 C.3    79  MET79       0.0595
     89  SD        19.8230    6.3650    0.6300 S.3    79  MET79      -0.1393
     90  CE        20.1570    4.7220    1.3070 C.3    79  MET79       0.0692
     91  N         16.8760   11.7710    2.5400 N.3    82  ARG82      -0.1245
     92  CA        17.3970   12.5310    1.3980 C.3    82  ARG82       0.1563
     93  C         16.8370   12.0160    0.0760 C.2    82  ARG82       0.2260
     94  O         16.5890   12.8240   -0.8270 O.2    82  ARG82      -0.2867
     95  CB        18.9230   12.4540    1.2740 C.3    82  ARG82       0.0307
     96  CG        19.6940   13.1780    2.3730 C.3    82  ARG82       0.0489
     97  CD        21.1720   13.2080    1.9990 C.3    82  ARG82       0.2205
     98  NE        21.8170   11.8960    1.9700 N.pl3  82  ARG82      -0.0865
     99  CZ        22.2400   11.2360    3.0440 C.cat  82  ARG82       0.5346
    100  NH1       22.0760   11.7620    4.2630 N.pl3  82  ARG82       0.1354
    101  NH2       22.8180   10.0550    2.8790 N.pl3  82  ARG82       0.1354
    102  N         22.6200    8.5900   -1.7670 N.3    94  PHE94      -0.1241
    103  CA        23.6590    8.4330   -0.7470 C.3    94  PHE94       0.1605
    104  C         24.3910    9.7480   -0.5030 C.2    94  PHE94       0.2264
    105  O         24.6300   10.1760    0.6130 O.2    94  PHE94      -0.2867
    106  CB        24.6890    7.3610   -1.1630 C.3    94  PHE94       0.0534
    107  CG        24.2000    5.9290   -1.0020 C.ar   94  PHE94      -0.0203
    108  CD1       23.3330    5.3690   -1.9350 C.ar   94  PHE94      -0.0042
    109  CD2       24.6090    5.1370    0.0540 C.ar   94  PHE94      -0.0042
    110  CE1       22.9110    4.0600   -1.8160 C.ar   94  PHE94      -0.0003
    111  CE2       24.1770    3.8290    0.1820 C.ar   94  PHE94      -0.0003
    112  CZ        23.3180    3.2740   -0.7540 C.ar   94  PHE94      -0.0000
    113  N         24.6070   -5.1030   -3.0870 N.3   110  MET110     -0.1245
    114  CA        23.6990   -4.8730   -1.9700 C.3   110  MET110      0.1570
    115  C         22.2750   -4.6430   -2.4730 C.2   110  MET110      0.2261
    116  O         21.5470   -3.7890   -1.9390 O.2   110  MET110     -0.2867
    117  CB        24.1610   -3.6690   -1.1480 C.3   110  MET110      0.0387
    118  CG        25.6500   -3.5590   -0.8490 C.3   110  MET110      0.0595
    119  SD        25.9810   -2.3230    0.4290 S.3   110  MET110     -0.1393
    120  CE        25.4180   -0.8050   -0.3230 C.3   110  MET110      0.0692
    121  N         15.8230   -0.0670    1.4710 N.3   117  MET117     -0.1245
    122  CA        16.0470    1.3410    1.7920 C.3   117  MET117      0.1570
    123  C         15.1860    2.2380    0.9030 C.2   117  MET117      0.2261
    124  O         14.7060    3.2930    1.3130 O.2   117  MET117     -0.2867
    125  CB        17.5370    1.7260    1.7080 C.3   117  MET117      0.0387
    126  CG        18.3490    1.0660    2.8220 C.3   117  MET117      0.0595
    127  SD        20.0520    1.6390    2.9420 S.3   117  MET117     -0.1393
    128  CE        20.7940    0.9280    1.4770 C.3   117  MET117      0.0692
    129  N         23.1670   -4.6220    6.3310 N.3   198  LEU198     -0.1231
    130  CA        24.3850   -3.9650    5.8580 C.3   198  LEU198      0.1693
    131  C         25.6140   -4.4580    6.6240 C.2   198  LEU198      0.2592
    132  O         26.6490   -4.7150    5.9900 O.2   198  LEU198     -0.2718
    133  CB        24.2530   -2.4400    5.9850 C.3   198  LEU198      0.0284
    134  CG        23.1980   -1.8560    5.0150 C.3   198  LEU198      0.0019
    135  CD1       22.8480   -0.4240    5.3840 C.3   198  LEU198      0.0001
    136  CD2       23.6730   -1.9570    3.5670 C.3   198  LEU198      0.0001
    137  N         25.4560   -4.6020    7.9420 N.am  199  HIS199     -0.1976
    138  CA        26.5570   -5.0870    8.7820 C.3   199  HIS199      0.1656
    139  C         26.9610   -6.5050    8.3780 C.2   199  HIS199      0.2291
    140  O         28.1560   -6.7680    8.2170 O.2   199  HIS199     -0.2864
    141  CB        26.1760   -5.0610   10.2700 C.3   199  HIS199      0.0771
    142  CG        26.1670   -3.6850   10.8670 C.ar  199  HIS199      0.0820
    143  ND1       27.1000   -2.7270   10.5370 N.ar  199  HIS199     -0.2267
    144  CD2       25.3450   -3.1290   11.7860 C.ar  199  HIS199      0.1154
    145  CE1       26.8460   -1.6220   11.2320 C.ar  199  HIS199      0.1986
    146  NE2       25.7800   -1.8490   11.9850 N.ar  199  HIS199     -0.2212
    147  N         26.4890   -8.1400    5.5120 N.3   201  PHE201     -0.1227
    148  CA        27.1340   -8.1270    4.1960 C.3   201  PHE201      0.1736
    149  C         28.5790   -7.6660    4.2890 C.2   201  PHE201      0.2596
    150  O         29.5000   -8.2150    3.6710 O.2   201  PHE201     -0.2718
    151  CB        26.2960   -7.2330    3.2690 C.3   201  PHE201      0.0547
    152  CG        27.0400   -6.7840    2.0120 C.ar  201  PHE201     -0.0202
    153  CD1       27.6630   -5.5500    1.9370 C.ar  201  PHE201     -0.0042
    154  CD2       27.0710   -7.6430    0.9130 C.ar  201  PHE201     -0.0042
    155  CE1       28.3130   -5.1690    0.7730 C.ar  201  PHE201     -0.0003
    156  CE2       27.7380   -7.2720   -0.2410 C.ar  201  PHE201     -0.0003
    157  CZ        28.3670   -6.0400   -0.3100 C.ar  201  PHE201     -0.0000
    158  N         28.8360   -6.5900    5.0480 N.am  202  THR202     -0.1953
    159  CA        30.1810   -6.0290    5.1030 C.3   202  THR202      0.1897
    160  C         31.1470   -6.8250    5.9710 C.2   202  THR202      0.2313
    161  O         32.3390   -6.9810    5.6730 O.2   202  THR202     -0.2863
    162  CB        30.0670   -4.5640    5.5850 C.3   202  THR202      0.1794
    163  OG1       29.0900   -3.8900    4.7560 O.3   202  THR202     -0.2208
    164  CG2       31.3930   -3.8630    5.4010 C.3   202  THR202      0.0378
    165  N         37.1790    1.6570    9.3500 N.3   220  MET220     -0.1245
    166  CA        36.1100    0.6980    9.0300 C.3   220  MET220      0.1570
    167  C         36.5140   -0.6960    9.5000 C.2   220  MET220      0.2261
    168  O         35.7220   -1.4560   10.0490 O.2   220  MET220     -0.2867
    169  CB        35.7830    0.6960    7.5370 C.3   220  MET220      0.0387
    170  CG        35.2610    2.0300    7.0040 C.3   220  MET220      0.0595
    171  SD        33.6640    2.4690    7.7210 S.3   220  MET220     -0.1393
    172  CE        34.0900    3.4810    9.1220 C.3   220  MET220      0.0692
    173  N         34.2600   -2.7570   12.0080 N.3   224  ILE224     -0.1245
    174  CA        33.6500   -4.0140   11.5480 C.3   224  ILE224      0.1561
    175  C         34.1590   -5.1960   12.3560 C.2   224  ILE224      0.2260
    176  O         33.4060   -6.1520   12.5640 O.2   224  ILE224     -0.2867
    177  CB        33.8870   -4.2060   10.0410 C.3   224  ILE224      0.0252
    178  CG1       33.2710   -3.0450    9.2230 C.3   224  ILE224      0.0019
    179  CG2       33.3780   -5.5530    9.5730 C.3   224  ILE224      0.0019
    180  CD1       33.9580   -2.9270    7.8640 C.3   224  ILE224      0.0001
    181  N         30.9130   -4.3580   15.2830 N.3   228  VAL228     -0.1301
    182  CA        29.8700   -5.0400   14.5370 C.3   228  VAL228      0.1246
    183  C         29.6410   -6.4920   14.9780 C.3   228  VAL228      0.2009
    184  O         28.4530   -6.8510   14.9710 O.3   228  VAL228     -0.2188
    185  CB        30.1510   -4.9700   13.0240 C.3   228  VAL228      0.0202
    186  CG1       29.2150   -5.8570   12.2200 C.3   228  VAL228      0.0016
    187  CG2       30.0120   -3.5130   12.5810 C.3   228  VAL228      0.0016
@<TRIPOS>BOND
     1     1     2    1
     2   113   114    1
     3   115   114    1
     4   115   116    2
     5     2     5    1
     6     2     3    1
     7   114   117    1
     8     5     6    1
     9   108   110   ar
    10   108   107   ar
    11   110   112   ar
    12   102   103    1
    13     3     4    2
    14    15    14    1
    15   106   107    1
    16   106   103    1
    17   117   118    1
    18   107   109   ar
    19    14    16    1
    20    14    13    1
    21   118   119    1
    22    94    93    2
    23     9    10    1
    24   112   111   ar
    25   103   104    1
    26     8     6    1
    27     6     7    1
    28   104   105    2
    29   120   119    1
    30   157   156   ar
    31   157   155   ar
    32   156   154   ar
    33   109   111   ar
    34    93    92    1
    35    13    10    1
    36    10    11    1
    37    89    90    1
    38    89    88    1
    39   155   153   ar
    40   123   124    2
    41   123   122    1
    42   154   152   ar
    43    32    30    1
    44    95    92    1
    45    95    96    1
    46    92    91    1
    47   121   122    1
    48   128   127    1
    49    88    87    1
    50    17    11   am
    51    17    18    1
    52    29    30    1
    53    29    26    1
    54    11    12    2
    55   125   122    1
    56   125   126    1
    57    86    85    2
    58    31    30    1
    59   153   152   ar
    60    98    97    1
    61    98    99    2
    62    97    96    1
    63   152   151    1
    64    25    26    1
    65    24    22   am
    66    21    18    1
    67    21    22    1
    68    26    27    1
    69    18    19    1
    70    85    84    1
    71   126   127    1
    72   101    99    1
    73    22    23    2
    74    99   100    1
    75    87    84    1
    76    19    20    2
    77   151   148    1
    78    84    83    1
    79   136   134    1
    80   150   149    2
    81    27    33   am
    82    27    28    2
    83   148   149    1
    84   148   147    1
    85   149   158   am
    86    33    34    1
    87   163   162    1
    88    45    43   am
    89   134   135    1
    90   134   133    1
    91   158   159    1
    92   159   162    1
    93   159   160    1
    94   164   162    1
    95    34    35    1
    96    79    78    2
    97   161   160    2
    98   130   133    1
    99   130   129    1
   100   130   131    1
   101    42    43    1
   102    42    41    1
   103    43    44    2
   104   132   131    2
   105    71    70    2
   106    81    80    1
   107   131   137   am
   108    77    78    1
   109    77    80    1
   110    77    76    1
   111    35    36    2
   112    82    80    1
   113   170   169    1
   114   170   171    1
   115    37    38    1
   116    70    76   am
   117    70    69    1
   118    41    38    1
   119    74    75    1
   120    74    73    1
   121    66    67    1
   122    66    65    1
   123   169   166    1
   124    72    69    1
   125    72    73    1
   126   171   172    1
   127    38    39    1
   128   180   178    1
   129   137   138    1
   130    69    68    1
   131   140   139    2
   132   139   138    1
   133   138   141    1
   134    65    64    1
   135   166   165    1
   136   166   167    1
   137    58    59   ar
   138    58    56   ar
   139    59    57   ar
   140   178   177    1
   141    39    40    2
   142    63    62    2
   143   167   168    2
   144   179   177    1
   145   177   174    1
   146    56    53   ar
   147    57    55   ar
   148    64    61    1
   149   141   142    1
   150    62    61    1
   151    61    60    1
   152   143   142   ar
   153   143   145   ar
   154   142   144   ar
   155    49    48    2
   156    53    55   ar
   157    53    51   ar
   158   145   146   ar
   159    55    54   ar
   160   174   173    1
   161   174   175    1
   162    60    48   am
   163   144   146   ar
   164    48    47    1
   165   186   185    1
   166   175   176    2
   167    54    52   ar
   168    51    50    1
   169    51    52   ar
   170   187   185    1
   171   185   182    1
   172    50    47    1
   173    47    46    1
   174   182   183    1
   175   182   181    1
   176   184   183    1
