@<TRIPOS>MOLECULE
tmp/3v4aA00.pdb
 126 117 0 0 0
SMALL
GASTEIGER

@<TRIPOS>ATOM
      1  N         30.4590    9.5120    9.5750 N.3    42  LEU42      -0.1231
      2  CA        30.7150    9.1900   10.9770 C.3    42  LEU42       0.1693
      3  C         31.2610   10.4180   11.7070 C.2    42  LEU42       0.2591
      4  O         30.8630   10.7450   12.8180 O.2    42  LEU42      -0.2718
      5  CB        31.6780    8.0140   11.1110 C.3    42  LEU42       0.0284
      6  CG        32.0950    7.6350   12.5420 C.3    42  LEU42       0.0019
      7  CD1       30.8720    7.1900   13.3250 C.3    42  LEU42       0.0001
      8  CD2       33.1580    6.5540   12.5100 C.3    42  LEU42       0.0001
      9  N         32.1770   11.1390   11.0680 N.am   43  VAL43      -0.1980
     10  CA        32.6890   12.3800   11.6500 C.3    43  VAL43       0.1595
     11  C         31.5450   13.3330   11.9640 C.2    43  VAL43       0.2287
     12  O         31.4750   13.8660   13.0740 O.2    43  VAL43      -0.2864
     13  CB        33.6990   13.0820   10.7270 C.3    43  VAL43       0.0276
     14  CG1       34.1730   14.3920   11.3410 C.3    43  VAL43       0.0022
     15  CG2       34.8930   12.1800   10.4450 C.3    43  VAL43       0.0022
     16  N         29.4630   12.1440   14.9570 N.3    46  VAL46      -0.1231
     17  CA        30.0500   12.4640   16.2670 C.3    46  VAL46       0.1692
     18  C         29.8240   13.9140   16.6710 C.2    46  VAL46       0.2591
     19  O         29.4580   14.1960   17.8150 O.2    46  VAL46      -0.2718
     20  CB        31.5550   12.1490   16.2670 C.3    46  VAL46       0.0266
     21  CG1       32.2770   12.6800   17.4910 C.3    46  VAL46       0.0020
     22  CG2       31.7310   10.6360   16.1500 C.3    46  VAL46       0.0020
     23  N         30.0420   14.8600   15.7750 N.am   47  LYS47      -0.1980
     24  CA        29.8750   16.2790   16.0470 C.3    47  LYS47       0.1596
     25  C         28.4280   16.5900   16.4050 C.2    47  LYS47       0.2287
     26  O         28.1720   17.3270   17.3550 O.2    47  LYS47      -0.2864
     27  CB        30.2680   17.1280   14.8310 C.3    47  LYS47       0.0298
     28  CG        31.7070   16.9260   14.3700 C.3    47  LYS47       0.0038
     29  CD        32.0600   17.9950   13.3430 C.3    47  LYS47       0.0206
     30  CE        32.9430   17.4480   12.2360 C.3    47  LYS47       0.1093
     31  NZ        33.6460   18.5430   11.5010 N.3    47  LYS47      -0.1314
     32  N         27.4800   14.8400   19.8080 N.3    50  LYS50      -0.1245
     33  CA        28.0000   15.4600   21.0340 C.3    50  LYS50       0.1561
     34  C         27.2710   16.7360   21.3990 C.2    50  LYS50       0.2260
     35  O         27.3210   17.2050   22.5480 O.2    50  LYS50      -0.2867
     36  CB        29.5080   15.7030   20.8570 C.3    50  LYS50       0.0271
     37  CG        30.3070   14.4120   21.0390 C.3    50  LYS50       0.0035
     38  CD        31.8000   14.6910   20.9330 C.3    50  LYS50       0.0206
     39  CE        32.4600   14.9140   22.2820 C.3    50  LYS50       0.1093
     40  NZ        33.9400   14.7580   22.1830 N.3    50  LYS50      -0.1314
     41  N         25.7800   14.8550   27.0550 N.3    56  ARG56      -0.1245
     42  CA        26.9090   14.8440   27.9800 C.3    56  ARG56       0.1563
     43  C         26.5360   14.2540   29.3360 C.2    56  ARG56       0.2260
     44  O         27.4360   13.9560   30.1260 O.2    56  ARG56      -0.2867
     45  CB        27.4720   16.2610   28.1430 C.3    56  ARG56       0.0307
     46  CG        28.1200   16.8200   26.8810 C.3    56  ARG56       0.0489
     47  CD        29.0760   17.9470   27.2130 C.3    56  ARG56       0.2205
     48  NE        30.2120   18.1120   26.3360 N.pl3  56  ARG56      -0.0865
     49  CZ        30.4790   17.8070   25.0840 C.cat  56  ARG56       0.5346
     50  NH1       31.6650   18.1140   24.5570 N.pl3  56  ARG56       0.1354
     51  NH2       29.6040   17.1960   24.3000 N.pl3  56  ARG56       0.1354
     52  N         31.0650    8.8020   29.5480 N.3    60  VAL60      -0.1245
     53  CA        31.7790    8.9790   28.2830 C.3    60  VAL60       0.1561
     54  C         32.0080    7.6520   27.5860 C.2    60  VAL60       0.2260
     55  O         32.1090    7.6050   26.3590 O.2    60  VAL60      -0.2867
     56  CB        33.1440    9.6750   28.4690 C.3    60  VAL60       0.0252
     57  CG1       34.1380    8.7330   29.1280 C.3    60  VAL60       0.0019
     58  CG2       33.6960   10.1650   27.1370 C.3    60  VAL60       0.0019
     59  N         28.6880    7.3150   25.8010 N.3    63  GLN63      -0.1231
     60  CA        28.6540    8.2290   24.6600 C.3    63  GLN63       0.1698
     61  C         29.3430    7.6040   23.4490 C.2    63  GLN63       0.2592
     62  O         28.8200    7.5820   22.3340 O.2    63  GLN63      -0.2718
     63  CB        29.3450    9.5560   24.9920 C.3    63  GLN63       0.0381
     64  CG        28.6060   10.3860   26.0300 C.3    63  GLN63       0.0905
     65  CD        29.4350   11.5810   26.4640 C.2    63  GLN63       0.2608
     66  OE1       29.3990   12.0050   27.6120 O.2    63  GLN63      -0.2717
     67  NE2       30.1960   12.1200   25.5330 N.am   63  GLN63      -0.0878
     68  N         30.5530    7.0860   23.6470 N.am   64  MET64      -0.1979
     69  CA        31.2700    6.4940   22.5180 C.3    64  MET64       0.1605
     70  C         30.5740    5.2440   22.0060 C.2    64  MET64       0.2287
     71  O         30.4020    5.0640   20.7970 O.2    64  MET64      -0.2864
     72  CB        32.7100    6.1720   22.9040 C.3    64  MET64       0.0413
     73  CG        33.5460    7.3820   23.2830 C.3    64  MET64       0.0598
     74  SD        35.3210    7.0390   23.1670 S.3    64  MET64      -0.1393
     75  CE        35.4950    5.9400   24.5780 C.3    64  MET64       0.0692
     76  N         27.2000    5.8910   19.9380 N.3    67  ILE67      -0.1231
     77  CA        27.4200    6.3690   18.5670 C.3    67  ILE67       0.1692
     78  C         27.8260    5.2470   17.6240 C.2    67  ILE67       0.2591
     79  O         27.3020    5.0880   16.5100 O.2    67  ILE67      -0.2718
     80  CB        28.4810    7.4940   18.5660 C.3    67  ILE67       0.0266
     81  CG1       27.9950    8.7830   19.2360 C.3    67  ILE67       0.0019
     82  CG2       28.9820    7.7270   17.1440 C.3    67  ILE67       0.0020
     83  CD1       29.0700    9.7400   19.7430 C.3    67  ILE67       0.0001
     84  N         28.7850    4.4250   18.0500 N.am   68  GLN68      -0.1979
     85  CA        29.2430    3.3330   17.1840 C.3    68  GLN68       0.1601
     86  C         28.1540    2.2860   16.9950 C.2    68  GLN68       0.2287
     87  O         28.0940    1.7330   15.8950 O.2    68  GLN68      -0.2864
     88  CB        30.4970    2.6560   17.7260 C.3    68  GLN68       0.0394
     89  CG        31.7630    3.5040   17.7450 C.3    68  GLN68       0.0908
     90  CD        32.8250    2.9060   18.6560 C.2    68  GLN68       0.2608
     91  OE1       32.8140    3.0880   19.8780 O.2    68  GLN68      -0.2717
     92  NE2       33.7520    2.1730   18.0640 N.am   68  GLN68      -0.0878
     93  N         40.9370    2.3400    7.8990 N.3   218  GLU218     -0.1231
     94  CA        40.9410    3.1710    9.0550 C.3   218  GLU218      0.1699
     95  C         39.9900    2.6670   10.1360 C.2   218  GLU218      0.2592
     96  O         40.0490    1.5690   10.7030 O.2   218  GLU218     -0.2718
     97  CB        40.5130    4.5650    8.5510 C.3   218  GLU218      0.0402
     98  CG        40.7640    5.8080    9.3430 C.3   218  GLU218      0.1161
     99  CD        42.1730    6.1050    9.7890 C.2   218  GLU218      0.3649
    100  OE1       43.0890    6.1910    8.9340 O.co2 218  GLU218     -0.2457
    101  OE2       42.3910    6.2710   11.0180 O.co2 218  GLU218     -0.2457
    102  N         39.0630    3.5770   10.3860 N.am  219  MET219     -0.1979
    103  CA        38.0100    3.4790   11.3490 C.3   219  MET219      0.1605
    104  C         37.0750    2.3610   10.9240 C.2   219  MET219      0.2287
    105  O         36.4330    1.7590   11.7830 O.2   219  MET219     -0.2864
    106  CB        37.2470    4.8070   11.4490 C.3   219  MET219      0.0413
    107  CG        36.9500    5.2170   12.9050 C.3   219  MET219      0.0598
    108  SD        37.3530    6.9610   13.1070 S.3   219  MET219     -0.1393
    109  CE        36.3600    7.6820   11.8000 C.3   219  MET219      0.0692
    110  N         38.2550   -1.1340   12.1000 N.3   222  GLU222     -0.1231
    111  CA        38.1500   -1.2040   13.5520 C.3   222  GLU222      0.1699
    112  C         36.7050   -1.4670   13.9290 C.2   222  GLU222      0.2592
    113  O         36.4020   -2.3690   14.7100 O.2   222  GLU222     -0.2718
    114  CB        38.6520    0.0940   14.1860 C.3   222  GLU222      0.0402
    115  CG        38.5620    0.0830   15.7070 C.3   222  GLU222      0.1161
    116  CD        39.0960    1.3340   16.3740 C.2   222  GLU222      0.3649
    117  OE1       40.3370    1.5260   16.4620 O.co2 222  GLU222     -0.2457
    118  OE2       38.2690    2.1400   16.8380 O.co2 222  GLU222     -0.2457
    119  N         35.8000   -0.6630   13.3500 N.am  223  ILE223     -0.1980
    120  CA        34.4250   -0.7490   13.8800 C.3   223  ILE223      0.1595
    121  C         33.7940   -2.0700   13.4790 C.2   223  ILE223      0.2287
    122  O         33.0550   -2.6990   14.2390 O.2   223  ILE223     -0.2864
    123  CB        33.5790    0.4590   13.4500 C.3   223  ILE223      0.0276
    124  CG1       34.0820    1.7660   14.0690 C.3   223  ILE223      0.0022
    125  CG2       32.1080    0.2590   13.7880 C.3   223  ILE223      0.0022
    126  CD1       33.2550    2.9850   13.7520 C.3   223  ILE223      0.0001
@<TRIPOS>BOND
     1    93    94    1
     2    97    94    1
     3    97    98    1
     4   100    99   ar
     5    94    95    1
     6    98    99    1
     7     1     2    1
     8    99   101   ar
     9    95   102   am
    10    95    96    2
    11   102   103    1
    12    15    13    1
    13    13    14    1
    14    13    10    1
    15   104   103    1
    16   104   105    2
    17     2     5    1
    18     2     3    1
    19     9    10    1
    20     9     3   am
    21     5     6    1
    22   103   106    1
    23   106   107    1
    24    31    30    1
    25    10    11    1
    26     3     4    2
    27   109   108    1
    28    11    12    2
    29   110   111    1
    30    30    29    1
    31     8     6    1
    32     6     7    1
    33   107   108    1
    34    29    28    1
    35   119   120    1
    36   119   112   am
    37   123   125    1
    38   123   120    1
    39   123   124    1
    40   121   120    1
    41   121   122    2
    42   111   112    1
    43   111   114    1
    44   126   124    1
    45   112   113    2
    46   114   115    1
    47    28    27    1
    48    27    24    1
    49    16    17    1
    50   115   116    1
    51    23    24    1
    52    23    18   am
    53    87    86    2
    54    24    25    1
    55    22    20    1
    56    20    17    1
    57    20    21    1
    58    17    18    1
    59   116   117   ar
    60   116   118   ar
    61    25    26    2
    62    79    78    2
    63    18    19    2
    64    86    85    1
    65    82    80    1
    66    85    88    1
    67    85    84    1
    68    78    84   am
    69    78    77    1
    70    88    89    1
    71    89    90    1
    72    92    90   am
    73    80    77    1
    74    80    81    1
    75    77    76    1
    76    90    91    2
    77    81    83    1
    78    32    33    1
    79    71    70    2
    80    36    33    1
    81    36    37    1
    82    38    37    1
    83    38    39    1
    84    33    34    1
    85    34    35    2
    86    70    69    1
    87    40    39    1
    88    62    61    2
    89    69    72    1
    90    69    68    1
    91    72    73    1
    92    74    73    1
    93    74    75    1
    94    61    68   am
    95    61    60    1
    96    51    49    1
    97    50    49    1
    98    60    63    1
    99    60    59    1
   100    63    64    1
   101    49    48    2
   102    67    65   am
   103    64    65    1
   104    48    47    1
   105    55    54    2
   106    65    66    2
   107    46    47    1
   108    46    45    1
   109    41    42    1
   110    58    56    1
   111    54    53    1
   112    42    45    1
   113    42    43    1
   114    53    56    1
   115    53    52    1
   116    56    57    1
   117    43    44    2
