@<TRIPOS>MOLECULE
tmp/3v4aA01.pdb
 187 176 0 0 0
SMALL
GASTEIGER

@<TRIPOS>ATOM
      1  N         32.0390    0.1060   -3.4620 N.3    31  LEU31      -0.1245
      2  CA        32.2380   -0.1680   -2.0180 C.3    31  LEU31       0.1561
      3  C         33.3390    0.7120   -1.4730 C.2    31  LEU31       0.2260
      4  O         33.3650    1.1380   -0.3120 O.2    31  LEU31      -0.2867
      5  CB        32.4970   -1.6560   -1.8480 C.3    31  LEU31       0.0270
      6  CG        31.3370   -2.5340   -1.3670 C.3    31  LEU31       0.0019
      7  CD1       30.9160   -2.1690    0.0540 C.3    31  LEU31       0.0001
      8  CD2       30.1400   -2.4370   -2.3040 C.3    31  LEU31       0.0001
      9  N         31.4530    3.8720   -0.7570 N.3    34  LEU34      -0.1231
     10  CA        30.5860    3.7450    0.4200 C.3    34  LEU34       0.1693
     11  C         31.4270    3.7620    1.6880 C.2    34  LEU34       0.2592
     12  O         31.0390    4.3360    2.7070 O.2    34  LEU34      -0.2718
     13  CB        29.7440    2.4710    0.3270 C.3    34  LEU34       0.0284
     14  CG        28.6560    2.4450   -0.7470 C.3    34  LEU34       0.0019
     15  CD1       28.1170    1.0330   -0.9040 C.3    34  LEU34       0.0001
     16  CD2       27.5180    3.4160   -0.4380 C.3    34  LEU34       0.0001
     17  N         32.6160    3.1510    1.6660 N.am   35  ASN35      -0.1974
     18  CA        33.4800    3.1930    2.8500 C.3    35  ASN35       0.1688
     19  C         33.9060    4.6250    3.1530 C.2    35  ASN35       0.2292
     20  O         33.8640    5.0490    4.3150 O.2    35  ASN35      -0.2864
     21  CB        34.7400    2.3310    2.6750 C.3    35  ASN35       0.1181
     22  CG        34.5200    0.8690    2.9750 C.2    35  ASN35       0.2629
     23  OD1       33.6590    0.5090    3.7750 O.2    35  ASN35      -0.2716
     24  ND2       35.3060   -0.0020    2.3400 N.am   35  ASN35      -0.0877
     25  N         32.4350    7.4250    2.2450 N.3    37  LEU37      -0.1231
     26  CA        31.2790    8.2000    2.6490 C.3    37  LEU37       0.1693
     27  C         30.8800    7.8880    4.0970 C.2    37  LEU37       0.2592
     28  O         30.5610    8.8030    4.8490 O.2    37  LEU37      -0.2718
     29  CB        30.0750    7.9230    1.7450 C.3    37  LEU37       0.0284
     30  CG        28.8310    8.7730    2.0190 C.3    37  LEU37       0.0019
     31  CD1       29.1240   10.2590    1.8740 C.3    37  LEU37       0.0001
     32  CD2       27.7070    8.3490    1.0810 C.3    37  LEU37       0.0001
     33  N         30.9020    6.6000    4.4010 N.am   38  GLY38      -0.1957
     34  CA        30.5540    6.0950    5.7240 C.3    38  GLY38       0.1869
     35  C         31.4870    6.7170    6.7510 C.2    38  GLY38       0.2309
     36  O         31.0780    7.0980    7.8490 O.2    38  GLY38      -0.2863
     37  N         30.7460   10.5970    7.0140 N.3    41  GLN41      -0.1245
     38  CA        29.5070   10.8560    7.7460 C.3    41  GLN41       0.1566
     39  C         29.6700   10.5290    9.2290 C.2    41  GLN41       0.2260
     40  O         29.0910   11.1690   10.1100 O.2    41  GLN41      -0.2867
     41  CB        28.3910   10.0520    7.0990 C.3    41  GLN41       0.0367
     42  CG        27.7240   10.5230    5.8220 C.3    41  GLN41       0.0905
     43  CD        26.7310   11.6120    6.1900 C.2    41  GLN41       0.2608
     44  OE1       26.6440   11.9120    7.3800 O.2    41  GLN41      -0.2717
     45  NE2       26.0370   12.1600    5.2120 N.am   41  GLN41      -0.0878
     46  N         25.3910    4.1730   14.5760 N.3    71  TRP71      -0.1227
     47  CA        25.7050    5.0070   13.4060 C.3    71  TRP71       0.1737
     48  C         25.1370    4.4420   12.1040 C.2    71  TRP71       0.2595
     49  O         24.6890    5.2440   11.2710 O.2    71  TRP71      -0.2718
     50  CB        27.2030    5.2670   13.2300 C.3    71  TRP71       0.0564
     51  CG        27.9750    4.1170   12.6950 C.ar   71  TRP71       0.0003
     52  CD1       28.0020    2.9190   13.3620 C.ar   71  TRP71       0.0946
     53  CD2       28.7870    3.9220   11.5370 C.ar   71  TRP71       0.0152
     54  NE1       28.7730    2.0060   12.6880 N.ar   71  TRP71      -0.2442
     55  CE2       29.2740    2.5910   11.5590 C.ar   71  TRP71       0.0810
     56  CE3       29.1990    4.6760   10.4540 C.ar   71  TRP71       0.0012
     57  CZ2       30.1050    2.0420   10.5780 C.ar   71  TRP71       0.0191
     58  CZ3       30.0210    4.1690    9.4620 C.ar   71  TRP71       0.0001
     59  CH2       30.4780    2.8400    9.5270 C.ar   71  TRP71       0.0015
     60  N         25.1340    3.1330   11.8750 N.am   72  MET72      -0.1979
     61  CA        24.6300    2.6410   10.5770 C.3    72  MET72       0.1605
     62  C         23.1410    2.9120   10.4350 C.2    72  MET72       0.2287
     63  O         22.6350    3.3140    9.3840 O.2    72  MET72      -0.2864
     64  CB        24.9740    1.1690   10.4060 C.3    72  MET72       0.0413
     65  CG        24.7340    0.6310    8.9980 C.3    72  MET72       0.0598
     66  SD        25.6260    1.5380    7.7150 S.3    72  MET72      -0.1393
     67  CE        27.2800    1.5070    8.4130 C.3    72  MET72       0.0692
     68  N         22.6000    6.5530    9.5900 N.3    75  MET75      -0.1230
     69  CA        22.9000    6.8410    8.1920 C.3    75  MET75       0.1702
     70  C         21.7870    6.3010    7.3010 C.2    75  MET75       0.2592
     71  O         21.3310    6.9890    6.3870 O.2    75  MET75      -0.2718
     72  CB        24.2400    6.2300    7.7650 C.3    75  MET75       0.0401
     73  CG        25.4640    6.9060    8.3480 C.3    75  MET75       0.0596
     74  SD        27.0020    6.5430    7.4780 S.3    75  MET75      -0.1393
     75  CE        28.1650    7.1950    8.6630 C.3    75  MET75       0.0692
     76  N         21.3530    5.0680    7.5720 N.am   76  VAL76      -0.1980
     77  CA        20.2540    4.5270    6.7640 C.3    76  VAL76       0.1595
     78  C         19.0210    5.4180    6.7670 C.2    76  VAL76       0.2287
     79  O         18.4510    5.7600    5.7260 O.2    76  VAL76      -0.2864
     80  CB        19.8590    3.1270    7.2690 C.3    76  VAL76       0.0276
     81  CG1       18.5180    2.7200    6.6580 C.3    76  VAL76       0.0022
     82  CG2       20.9700    2.1460    6.9610 C.3    76  VAL76       0.0022
     83  N         19.7640    8.7720    4.9790 N.3    79  MET79      -0.1245
     84  CA        19.8030    8.5680    3.5220 C.3    79  MET79       0.1570
     85  C         18.4120    8.3540    2.9470 C.2    79  MET79       0.2261
     86  O         18.0240    8.8670    1.8890 O.2    79  MET79      -0.2867
     87  CB        20.7330    7.3890    3.2330 C.3    79  MET79       0.0387
     88  CG        21.0740    7.1850    1.7690 C.3    79  MET79       0.0595
     89  SD        19.8310    6.1930    0.9250 S.3    79  MET79      -0.1393
     90  CE        20.1150    4.5960    1.6980 C.3    79  MET79       0.0692
     91  N         16.7840   11.8730    2.6730 N.3    82  ARG82      -0.1245
     92  CA        17.3510   12.5760    1.5350 C.3    82  ARG82       0.1563
     93  C         16.7860   12.0350    0.2140 C.2    82  ARG82       0.2260
     94  O         16.5010   12.8510   -0.6670 O.2    82  ARG82      -0.2867
     95  CB        18.8640   12.4340    1.4150 C.3    82  ARG82       0.0307
     96  CG        19.7810   12.9800    2.4720 C.3    82  ARG82       0.0489
     97  CD        21.2050   13.0430    1.9620 C.3    82  ARG82       0.2205
     98  NE        21.9920   11.8220    2.0250 N.pl3  82  ARG82      -0.0865
     99  CZ        22.3700   11.2250    3.1480 C.cat  82  ARG82       0.5346
    100  NH1       22.0120   11.7390    4.3190 N.pl3  82  ARG82       0.1354
    101  NH2       23.0960   10.1220    3.1120 N.pl3  82  ARG82       0.1354
    102  N         22.6520    8.5010   -1.5380 N.3    94  PHE94      -0.1241
    103  CA        23.7300    8.3280   -0.5760 C.3    94  PHE94       0.1605
    104  C         24.4380    9.6680   -0.3710 C.2    94  PHE94       0.2264
    105  O         24.6120   10.1360    0.7530 O.2    94  PHE94      -0.2867
    106  CB        24.7210    7.2480   -1.0400 C.3    94  PHE94       0.0534
    107  CG        24.2180    5.8320   -0.7720 C.ar   94  PHE94      -0.0203
    108  CD1       23.5900    5.1080   -1.7760 C.ar   94  PHE94      -0.0042
    109  CD2       24.3760    5.2440    0.4720 C.ar   94  PHE94      -0.0042
    110  CE1       23.1290    3.8250   -1.5330 C.ar   94  PHE94      -0.0003
    111  CE2       23.9060    3.9790    0.7370 C.ar   94  PHE94      -0.0003
    112  CZ        23.2700    3.2690   -0.2730 C.ar   94  PHE94      -0.0000
    113  N         24.4010   -5.4270   -3.1450 N.3   110  MET110     -0.1245
    114  CA        23.5160   -5.1980   -2.0110 C.3   110  MET110      0.1570
    115  C         22.0870   -4.9210   -2.4660 C.2   110  MET110      0.2261
    116  O         21.3920   -4.0900   -1.8780 O.2   110  MET110     -0.2867
    117  CB        24.0070   -4.0230   -1.1620 C.3   110  MET110      0.0387
    118  CG        25.5160   -3.9840   -0.9680 C.3   110  MET110      0.0595
    119  SD        25.9760   -2.7040    0.2280 S.3   110  MET110     -0.1393
    120  CE        25.5720   -3.5370    1.7520 C.3   110  MET110      0.0692
    121  N         15.8690   -0.2190    1.7580 N.3   117  MET117     -0.1196
    122  CA        16.1410    1.1890    2.0490 C.3   117  MET117      0.1786
    123  C         15.2660    2.0570    1.1510 C.2   117  MET117      0.2306
    124  O         14.7600    3.1130    1.5630 O.2   117  MET117     -0.2863
    125  CB        17.6300    1.5310    1.9190 C.2   117  MET117      0.0070
    126  CG        18.5400    0.8510    2.9140 C.2   117  MET117      0.0282
    127  SD        20.2490    1.3650    2.9750 S.3   117  MET117     -0.1125
    128  CE        21.0160    0.6360    1.5420 C.3   117  MET117      0.0742
    129  N         23.1590   -4.7610    6.4860 N.3   198  LEU198     -0.1231
    130  CA        24.3180   -4.0600    5.9530 C.3   198  LEU198      0.1693
    131  C         25.5860   -4.5050    6.6840 C.2   198  LEU198      0.2592
    132  O         26.5990   -4.7250    6.0200 O.2   198  LEU198     -0.2718
    133  CB        24.1650   -2.5450    6.0640 C.3   198  LEU198      0.0284
    134  CG        23.0790   -1.8980    5.1910 C.3   198  LEU198      0.0019
    135  CD1       22.9810   -0.4060    5.4740 C.3   198  LEU198      0.0001
    136  CD2       23.3310   -2.1240    3.7090 C.3   198  LEU198      0.0001
    137  N         25.4860   -4.6170    8.0050 N.am  199  HIS199     -0.1976
    138  CA        26.5540   -5.0730    8.8920 C.3   199  HIS199      0.1656
    139  C         26.9950   -6.4910    8.5020 C.2   199  HIS199      0.2291
    140  O         28.1720   -6.8040    8.3690 O.2   199  HIS199     -0.2864
    141  CB        26.1160   -5.0640   10.3610 C.3   199  HIS199      0.0771
    142  CG        26.0640   -3.7320   11.0380 C.ar  199  HIS199      0.0820
    143  ND1       26.9900   -2.7340   10.8210 N.ar  199  HIS199     -0.2267
    144  CD2       25.1880   -3.2260   11.9420 C.ar  199  HIS199      0.1154
    145  CE1       26.6900   -1.6820   11.5590 C.ar  199  HIS199      0.1986
    146  NE2       25.5920   -1.9530   12.2490 N.ar  199  HIS199     -0.2212
    147  N         26.5280   -8.2120    5.6210 N.3   201  PHE201     -0.1227
    148  CA        27.2040   -8.1420    4.3290 C.3   201  PHE201      0.1736
    149  C         28.6280   -7.6280    4.4390 C.2   201  PHE201      0.2596
    150  O         29.5830   -8.1030    3.8270 O.2   201  PHE201     -0.2718
    151  CB        26.4300   -7.2010    3.3950 C.3   201  PHE201      0.0547
    152  CG        27.0730   -6.9640    2.0390 C.ar  201  PHE201     -0.0202
    153  CD1       27.8810   -5.8730    1.7670 C.ar  201  PHE201     -0.0042
    154  CD2       26.8330   -7.8830    1.0200 C.ar  201  PHE201     -0.0042
    155  CE1       28.4420   -5.7010    0.5130 C.ar  201  PHE201     -0.0003
    156  CE2       27.3830   -7.7150   -0.2400 C.ar  201  PHE201     -0.0003
    157  CZ        28.1840   -6.6160   -0.4960 C.ar  201  PHE201     -0.0000
    158  N         28.8050   -6.5470    5.1940 N.am  202  THR202     -0.1953
    159  CA        30.1080   -5.8750    5.1760 C.3   202  THR202      0.1897
    160  C         31.1130   -6.6000    6.0520 C.2   202  THR202      0.2313
    161  O         32.3160   -6.6300    5.7740 O.2   202  THR202     -0.2863
    162  CB        29.8840   -4.4100    5.5990 C.3   202  THR202      0.1794
    163  OG1       28.9400   -3.8040    4.6890 O.3   202  THR202     -0.2208
    164  CG2       31.1600   -3.5950    5.5230 C.3   202  THR202      0.0378
    165  N         36.9820    2.0770    9.6200 N.3   220  MET220     -0.1245
    166  CA        36.0130    1.0330    9.2490 C.3   220  MET220      0.1570
    167  C         36.4720   -0.3420    9.7150 C.2   220  MET220      0.2261
    168  O         35.6760   -1.1220   10.2320 O.2   220  MET220     -0.2867
    169  CB        35.7430    0.9810    7.7400 C.3   220  MET220      0.0387
    170  CG        35.0980    2.2310    7.1650 C.3   220  MET220      0.0595
    171  SD        33.4060    2.4410    7.7590 S.3   220  MET220     -0.1393
    172  CE        33.7010    3.4480    9.2130 C.3   220  MET220      0.0692
    173  N         34.1000   -2.5290   12.2740 N.3   224  ILE224     -0.1245
    174  CA        33.4850   -3.7680   11.8170 C.3   224  ILE224      0.1561
    175  C         34.0400   -4.9770   12.5640 C.2   224  ILE224      0.2260
    176  O         33.3060   -5.9570   12.7050 O.2   224  ILE224     -0.2867
    177  CB        33.6920   -3.9560   10.2990 C.3   224  ILE224      0.0252
    178  CG1       32.9940   -2.8770    9.4600 C.3   224  ILE224      0.0019
    179  CG2       33.2880   -5.3550    9.8620 C.3   224  ILE224      0.0019
    180  CD1       33.5880   -2.7320    8.0710 C.3   224  ILE224      0.0001
    181  N         30.8680   -4.1360   15.5260 N.3   228  VAL228     -0.1245
    182  CA        29.8400   -4.8100   14.7340 C.3   228  VAL228      0.1561
    183  C         29.6200   -6.2580   15.1730 C.2   228  VAL228      0.2260
    184  O         28.4420   -6.6590   15.2670 O.2   228  VAL228     -0.2867
    185  CB        30.1640   -4.7310   13.2250 C.3   228  VAL228      0.0252
    186  CG1       29.2190   -5.6140   12.4250 C.3   228  VAL228      0.0019
    187  CG2       30.0730   -3.2810   12.7420 C.3   228  VAL228      0.0019
@<TRIPOS>BOND
     1     1     2    1
     2   113   114    1
     3   115   114    1
     4   115   116    2
     5     8     6    1
     6     2     5    1
     7     2     3    1
     8   114   117    1
     9     5     6    1
    10   108   110   ar
    11   108   107   ar
    12   102   103    1
    13   110   112   ar
    14     3     4    2
    15     6     7    1
    16   117   118    1
    17   106   107    1
    18   106   103    1
    19   118   119    1
    20    15    14    1
    21   107   109   ar
    22     9    10    1
    23    14    16    1
    24    14    13    1
    25    94    93    2
    26   103   104    1
    27   157   156   ar
    28   157   155   ar
    29   104   105    2
    30   112   111   ar
    31   156   154   ar
    32    93    92    1
    33   119   120    1
    34    13    10    1
    35    10    11    1
    36   109   111   ar
    37   155   153   ar
    38    89    90    1
    39    89    88    1
    40   154   152   ar
    41    32    30    1
    42   123   124    2
    43   123   122    1
    44    95    92    1
    45    95    96    1
    46    92    91    1
    47   128   127    1
    48    17    11   am
    49    17    18    1
    50    11    12    2
    51    29    30    1
    52    29    26    1
    53   121   122    1
    54   153   152   ar
    55    88    87    1
    56    31    30    1
    57    86    85    2
    58   125   122    1
    59   125   126    2
    60    97    98    1
    61    97    96    1
    62    98    99    2
    63   152   151    1
    64    25    26    1
    65    24    22   am
    66    26    27    1
    67    21    18    1
    68    21    22    1
    69    18    19    1
    70   126   127    1
    71    85    84    1
    72    22    23    2
    73   101    99    1
    74    99   100    1
    75    19    20    2
    76    87    84    1
    77   151   148    1
    78    84    83    1
    79   136   134    1
    80   150   149    2
    81    27    33   am
    82    27    28    2
    83   148   149    1
    84   148   147    1
    85    33    34    1
    86   149   158   am
    87   163   162    1
    88   159   158    1
    89   159   162    1
    90   159   160    1
    91   134   135    1
    92   134   133    1
    93    45    43   am
    94   164   162    1
    95    34    35    1
    96    79    78    2
    97   161   160    2
    98    42    43    1
    99    42    41    1
   100   130   133    1
   101   130   129    1
   102   130   131    1
   103   132   131    2
   104    43    44    2
   105    71    70    2
   106    81    80    1
   107   131   137   am
   108    35    36    2
   109    77    78    1
   110    77    80    1
   111    77    76    1
   112    82    80    1
   113    37    38    1
   114    41    38    1
   115   170   169    1
   116   170   171    1
   117    70    76   am
   118    70    69    1
   119    74    73    1
   120    74    75    1
   121    66    67    1
   122    66    65    1
   123   169   166    1
   124    38    39    1
   125   171   172    1
   126    72    69    1
   127    72    73    1
   128   137   138    1
   129   180   178    1
   130    69    68    1
   131   140   139    2
   132   139   138    1
   133   138   141    1
   134    65    64    1
   135    39    40    2
   136   166   165    1
   137   166   167    1
   138    63    62    2
   139   178   177    1
   140    58    59   ar
   141    58    56   ar
   142    59    57   ar
   143   167   168    2
   144   179   177    1
   145   177   174    1
   146   141   142    1
   147    64    61    1
   148    62    61    1
   149    56    53   ar
   150    61    60    1
   151    57    55   ar
   152   143   142   ar
   153   143   145   ar
   154   142   144   ar
   155    49    48    2
   156    53    55   ar
   157    53    51   ar
   158    55    54   ar
   159   145   146   ar
   160   174   173    1
   161   174   175    1
   162    60    48   am
   163   144   146   ar
   164    48    47    1
   165   186   185    1
   166   175   176    2
   167    54    52   ar
   168    51    50    1
   169    51    52   ar
   170   187   185    1
   171   185   182    1
   172    50    47    1
   173    47    46    1
   174   182   183    1
   175   182   181    1
   176   183   184    2
