@<TRIPOS>MOLECULE
tmp/3v4bA00.pdb
 132 123 0 0 0
SMALL
GASTEIGER

@<TRIPOS>ATOM
      1  N         15.5400  -27.1470   23.6360 N.3   120  TYR120     -0.1241
      2  CA        14.5440  -27.0380   24.7360 C.3   120  TYR120      0.1605
      3  C         13.7990  -28.3350   24.8910 C.2   120  TYR120      0.2264
      4  O         13.6790  -29.1340   23.9460 O.2   120  TYR120     -0.2867
      5  CB        13.5610  -25.8530   24.4850 C.3   120  TYR120      0.0534
      6  CG        12.5330  -26.0170   23.3570 C.ar  120  TYR120     -0.0201
      7  CD1       11.2830  -26.6050   23.6020 C.ar  120  TYR120     -0.0009
      8  CD2       12.8180  -25.5910   22.0570 C.ar  120  TYR120     -0.0009
      9  CE1       10.3100  -26.7270   22.5930 C.ar  120  TYR120      0.0417
     10  CE2       11.8710  -25.6920   21.0310 C.ar  120  TYR120      0.0417
     11  CZ        10.6080  -26.2760   21.3090 C.ar  120  TYR120      0.1957
     12  OH         9.6870  -26.3620   20.2790 O.3   120  TYR120     -0.2866
     13  N          9.7340  -25.5360   27.4490 N.3   147  ARG147     -0.1245
     14  CA         8.3570  -25.2490   26.9980 C.3   147  ARG147      0.1563
     15  C          7.4200  -25.6420   28.1030 C.2   147  ARG147      0.2260
     16  O          7.4870  -26.7670   28.6270 O.2   147  ARG147     -0.2867
     17  CB         8.0300  -26.0540   25.7490 C.3   147  ARG147      0.0307
     18  CG         6.6500  -25.6290   25.2070 C.3   147  ARG147      0.0489
     19  CD         6.2370  -26.4970   24.0910 C.3   147  ARG147      0.2205
     20  NE         5.8650  -27.8120   24.5960 N.pl3 147  ARG147     -0.0865
     21  CZ         5.2070  -28.7020   23.8680 C.cat 147  ARG147      0.5346
     22  NH1        4.9170  -28.4200   22.5990 N.pl3 147  ARG147      0.1354
     23  NH2        4.8330  -29.8630   24.4080 N.pl3 147  ARG147      0.1354
     24  N          3.4390  -23.2050   23.5730 N.3   192  ASP192     -0.1239
     25  CA         2.8180  -23.6090   22.3130 C.3   192  ASP192      0.1674
     26  C          1.2950  -23.4720   22.4540 C.2   192  ASP192      0.2266
     27  O          0.6490  -24.1750   23.2130 O.2   192  ASP192     -0.2867
     28  CB         3.2150  -25.0720   22.0350 C.3   192  ASP192      0.1410
     29  CG         2.8310  -25.5550   20.6730 C.2   192  ASP192      0.3668
     30  OD1        2.0370  -24.9480   19.9490 O.co2 192  ASP192     -0.2456
     31  OD2        3.4010  -26.6360   20.2690 O.co2 192  ASP192     -0.2456
     32  N         -0.7270  -24.0070   20.0010 N.3   194  HIS194     -0.1241
     33  CA        -1.2940  -25.1600   19.3100 C.3   194  HIS194      0.1621
     34  C         -2.5610  -24.8470   18.5360 C.2   194  HIS194      0.2264
     35  O         -3.5150  -25.6230   18.4810 O.2   194  HIS194     -0.2867
     36  CB        -1.4320  -26.3630   20.3140 C.3   194  HIS194      0.0745
     37  CG        -0.8750  -27.6400   19.7780 C.ar  194  HIS194      0.0817
     38  ND1       -1.6880  -28.5180   19.0880 N.ar  194  HIS194     -0.2268
     39  CD2        0.3660  -28.1610   19.7510 C.ar  194  HIS194      0.1154
     40  CE1       -0.9690  -29.5480   18.6710 C.ar  194  HIS194      0.1986
     41  NE2        0.2820  -29.3630   19.0740 N.ar  194  HIS194     -0.2212
     42  N          4.1700  -19.8720   20.3210 N.3   218  GLU218     -0.1245
     43  CA         4.1810  -20.7080   19.0950 C.3   218  GLU218      0.1567
     44  C          2.7970  -21.0640   18.5910 C.2   218  GLU218      0.2260
     45  O          1.8760  -21.3440   19.3870 O.2   218  GLU218     -0.2867
     46  CB         5.0070  -21.9770   19.4270 C.3   218  GLU218      0.0388
     47  CG         4.8190  -23.1640   18.4610 C.3   218  GLU218      0.1160
     48  CD         5.5300  -24.4080   18.9600 C.2   218  GLU218      0.3649
     49  OE1        6.3190  -24.3190   19.9280 O.co2 218  GLU218     -0.2457
     50  OE2        5.2790  -25.4850   18.3320 O.co2 218  GLU218     -0.2457
     51  N          5.7320  -25.7200   12.2720 N.3   244  GLU244     -0.1245
     52  CA         6.0010  -27.1710   12.2610 C.3   244  GLU244      0.1567
     53  C          5.1440  -27.8770   11.2380 C.2   244  GLU244      0.2260
     54  O          5.5730  -28.9550   10.7480 O.2   244  GLU244     -0.2867
     55  CB         5.8190  -27.7800   13.6520 C.3   244  GLU244      0.0388
     56  CG         4.3150  -27.8520   14.0700 C.3   244  GLU244      0.1160
     57  CD         4.1500  -28.2040   15.5250 C.2   244  GLU244      0.3649
     58  OE1        4.6850  -27.4600   16.3820 O.co2 244  GLU244     -0.2457
     59  OE2        3.4620  -29.1930   15.8620 O.co2 244  GLU244     -0.2457
     60  N          9.6620  -22.6990   12.2320 N.3   265  ARG265     -0.1245
     61  CA         9.7610  -24.0230   12.8850 C.3   265  ARG265      0.1563
     62  C          9.7230  -25.2040   11.9130 C.2   265  ARG265      0.2260
     63  O          9.8500  -26.3580   12.3610 O.2   265  ARG265     -0.2867
     64  CB         8.5320  -24.1630   13.7840 C.3   265  ARG265      0.0307
     65  CG         8.3480  -23.0400   14.8280 C.3   265  ARG265      0.0489
     66  CD         8.5740  -23.5070   16.1970 C.3   265  ARG265      0.2205
     67  NE         7.9120  -24.7470   16.5660 N.pl3 265  ARG265     -0.0865
     68  CZ         8.5370  -25.7380   17.2110 C.cat 265  ARG265      0.5346
     69  NH1        9.8500  -25.7740   17.3320 N.pl3 265  ARG265      0.1354
     70  NH2        7.8160  -26.7590   17.6150 N.pl3 265  ARG265      0.1354
     71  N         11.1080  -27.7260   14.7890 N.3   294  HIS294     -0.1241
     72  CA        10.3190  -28.7120   15.4880 C.3   294  HIS294      0.1621
     73  C         11.1370  -29.9850   15.6920 C.2   294  HIS294      0.2264
     74  O         12.0340  -30.2710   14.8730 O.2   294  HIS294     -0.2867
     75  CB         9.0380  -28.8950   14.6470 C.3   294  HIS294      0.0745
     76  CG         8.1090  -29.9940   15.0660 C.ar  294  HIS294      0.0817
     77  ND1        7.6830  -30.9420   14.1480 N.ar  294  HIS294     -0.2268
     78  CD2        7.4030  -30.2240   16.2040 C.ar  294  HIS294      0.1154
     79  CE1        6.7940  -31.7360   14.7240 C.ar  294  HIS294      0.1986
     80  NE2        6.5990  -31.3230   15.9690 N.ar  294  HIS294     -0.2212
     81  N          9.7010  -32.8460   17.8970 N.3   296  ALA296     -0.1245
     82  CA         8.8970  -33.8190   18.6580 C.3   296  ALA296      0.1562
     83  C          9.3410  -35.2570   18.3260 C.2   296  ALA296      0.2260
     84  O         10.1290  -35.4840   17.3580 O.2   296  ALA296     -0.2867
     85  CB         7.4310  -33.6130   18.3160 C.3   296  ALA296      0.0290
     86  N          7.9860  -37.7030   16.8760 N.3   298  ASP298     -0.1239
     87  CA         7.5580  -38.2450   15.5710 C.3   298  ASP298      0.1674
     88  C          8.5080  -37.9060   14.4230 C.2   298  ASP298      0.2266
     89  O          8.2610  -38.3400   13.2810 O.2   298  ASP298     -0.2867
     90  CB         6.0980  -37.8270   15.2380 C.3   298  ASP298      0.1410
     91  CG         5.8770  -36.3480   15.2730 C.2   298  ASP298      0.3668
     92  OD1        5.9080  -35.7280   16.3670 O.co2 298  ASP298     -0.2456
     93  OD2        5.6570  -35.7700   14.2010 O.co2 298  ASP298     -0.2456
     94  N         14.1960  -27.9010   19.0720 N.3   321  GLU321     -0.1245
     95  CA        13.3180  -28.6500   19.9810 C.3   321  GLU321      0.1567
     96  C         13.8980  -30.0400   20.1960 C.2   321  GLU321      0.2260
     97  O         14.3460  -30.6990   19.2300 O.2   321  GLU321     -0.2867
     98  CB        11.9230  -28.7160   19.3670 C.3   321  GLU321      0.0388
     99  CG        10.9530  -29.4630   20.2880 C.3   321  GLU321      0.1160
    100  CD         9.5180  -29.4150   19.7930 C.2   321  GLU321      0.3649
    101  OE1        9.2640  -29.1160   18.6290 O.co2 321  GLU321     -0.2457
    102  OE2        8.6310  -29.7380   20.6280 O.co2 321  GLU321     -0.2457
    103  N         12.3370  -33.3050   22.1260 N.3   323  MET323     -0.1245
    104  CA        11.4990  -34.1880   22.9350 C.3   323  MET323      0.1570
    105  C         12.1370  -35.5560   22.7640 C.2   323  MET323      0.2261
    106  O         12.1530  -36.1070   21.6500 O.2   323  MET323     -0.2867
    107  CB        10.0550  -34.1370   22.4230 C.3   323  MET323      0.0387
    108  CG         9.4950  -32.7200   22.3670 C.3   323  MET323      0.0595
    109  SD         9.5080  -31.9760   24.0280 S.3   323  MET323     -0.1393
    110  CE         9.0380  -30.2630   23.6860 C.3   323  MET323      0.0692
    111  N         -3.3040  -38.8360   15.3730 N.3   371  LEU371     -0.1245
    112  CA        -3.3140  -37.6510   16.2360 C.3   371  LEU371      0.1561
    113  C         -4.7590  -37.3640   16.6810 C.2   371  LEU371      0.2260
    114  O         -5.7430  -37.7310   16.0060 O.2   371  LEU371     -0.2867
    115  CB        -2.7470  -36.4660   15.4540 C.3   371  LEU371      0.0270
    116  CG        -1.2370  -36.5820   15.2250 C.3   371  LEU371      0.0019
    117  CD1       -0.7680  -35.4900   14.2600 C.3   371  LEU371      0.0001
    118  CD2       -0.4500  -36.4570   16.5640 C.3   371  LEU371      0.0001
    119  N         -6.7660  -28.8280   16.5220 N.3   384  TRP384     -0.1241
    120  CA        -6.1030  -29.5240   17.6260 C.3   384  TRP384      0.1605
    121  C         -4.7120  -28.9630   17.7440 C.2   384  TRP384      0.2264
    122  O         -4.0020  -28.7080   16.7600 O.2   384  TRP384     -0.2867
    123  CB        -6.0820  -31.0730   17.4510 C.3   384  TRP384      0.0550
    124  CG        -5.2380  -31.6890   18.5490 C.ar  384  TRP384      0.0003
    125  CD1       -5.6040  -31.8680   19.8620 C.ar  384  TRP384      0.0946
    126  CD2       -3.8930  -32.1660   18.4280 C.ar  384  TRP384      0.0152
    127  NE1       -4.5480  -32.4250   20.5660 N.ar  384  TRP384     -0.2442
    128  CE2       -3.4900  -32.6170   19.7080 C.ar  384  TRP384      0.0810
    129  CE3       -2.9880  -32.2670   17.3560 C.ar  384  TRP384      0.0012
    130  CZ2       -2.2100  -33.1840   19.9480 C.ar  384  TRP384      0.0191
    131  CZ3       -1.7030  -32.7990   17.6010 C.ar  384  TRP384      0.0001
    132  CH2       -1.3280  -33.2410   18.8850 C.ar  384  TRP384      0.0015
@<TRIPOS>BOND
     1    54    53    2
     2    53    52    1
     3    62    63    2
     4    62    61    1
     5    60    61    1
     6    52    51    1
     7    52    55    1
     8    61    64    1
     9    89    88    2
    10    55    56    1
    11    64    65    1
    12    56    57    1
    13    77    79   ar
    14    77    76   ar
    15    93    91   ar
    16   117   116    1
    17    88    87    1
    18    75    76    1
    19    75    72    1
    20    79    80   ar
    21    71    72    1
    22    65    66    1
    23    74    73    2
    24    76    78   ar
    25   116   115    1
    26   116   118    1
    27    90    91    1
    28    90    87    1
    29    91    92   ar
    30   111   112    1
    31   115   112    1
    32    72    73    1
    33    57    59   ar
    34    57    58   ar
    35    87    86    1
    36    80    78   ar
    37   114   113    2
    38    66    67    1
    39   112   113    1
    40   119   120    1
    41    67    68    2
    42   122   121    2
    43    68    69    1
    44    68    70    1
    45   129   131   ar
    46   129   126   ar
    47    84    83    2
    48   123   120    1
    49   123   124    1
    50   131   132   ar
    51   120   121    1
    52    81    82    1
    53    85    82    1
    54    83    82    1
    55    50    48   ar
    56   126   124   ar
    57   126   128   ar
    58    47    48    1
    59    47    46    1
    60    35    34    2
    61    34    33    1
    62   124   125   ar
    63    44    43    1
    64    44    45    2
    65   101   100   ar
    66    40    41   ar
    67    40    38   ar
    68   132   130   ar
    69    48    49   ar
    70    94    95    1
    71    41    39   ar
    72    38    37   ar
    73    43    46    1
    74    43    42    1
    75    97    96    2
    76    33    32    1
    77    33    36    1
    78    98    95    1
    79    98    99    1
    80   128   130   ar
    81   128   127   ar
    82    39    37   ar
    83    37    36    1
    84   100    99    1
    85   100   102   ar
    86   125   127   ar
    87    30    29   ar
    88    95    96    1
    89    31    29   ar
    90    12    11    1
    91    29    28    1
    92    10    11   ar
    93    10     8   ar
    94    11     9   ar
    95   106   105    2
    96    28    25    1
    97     8     6   ar
    98   103   104    1
    99    25    26    1
   100    25    24    1
   101   108   107    1
   102   108   109    1
   103   107   104    1
   104    26    27    2
   105     9     7   ar
   106    22    21    1
   107   105   104    1
   108     6     7   ar
   109     6     5    1
   110     1     2    1
   111   110   109    1
   112    21    23    1
   113    21    20    2
   114     4     3    2
   115    19    20    1
   116    19    18    1
   117     5     2    1
   118     2     3    1
   119    18    17    1
   120    17    14    1
   121    14    13    1
   122    14    15    1
   123    15    16    2
