@<TRIPOS>MOLECULE
tmp/3v4cA00.pdb
 112 106 0 0 0
SMALL
GASTEIGER

@<TRIPOS>ATOM
      1  N         44.0600   -2.7420    5.5700 N.3    95  ARG95      -0.1245
      2  CA        43.0730   -2.4550    6.5790 C.3    95  ARG95       0.1563
      3  C         41.6630   -2.3110    5.9910 C.2    95  ARG95       0.2260
      4  O         40.7360   -2.8670    6.4880 O.2    95  ARG95      -0.2867
      5  CB        43.4520   -1.2130    7.3550 C.3    95  ARG95       0.0307
      6  CG        42.3440   -0.6480    8.2270 C.3    95  ARG95       0.0489
      7  CD        41.8550   -1.5450    9.3120 C.3    95  ARG95       0.2205
      8  NE        40.7150   -0.9080    9.9360 N.pl3  95  ARG95      -0.0865
      9  CZ        40.8010    0.0300   10.8460 C.cat  95  ARG95       0.5346
     10  NH1       41.9570    0.3800   11.3160 N.pl3  95  ARG95       0.1354
     11  NH2       39.7340    0.6130   11.2980 N.pl3  95  ARG95       0.1354
     12  N         40.3430   -5.7360    4.9720 N.3    98  GLY98      -0.1210
     13  CA        39.9160   -6.5670    6.0910 C.3    98  GLY98       0.1956
     14  C         38.6530   -6.0080    6.7440 C.2    98  GLY98       0.2611
     15  O         37.7910   -6.7660    7.1100 O.2    98  GLY98      -0.2717
     16  N         38.5640   -4.6990    6.9100 N.am   99  GLU99      -0.1979
     17  CA        37.3760   -4.0880    7.5770 C.3    99  GLU99       0.1602
     18  C         36.1280   -4.2320    6.6710 C.2    99  GLU99       0.2287
     19  O         34.9510   -4.2360    7.1500 O.2    99  GLU99      -0.2864
     20  CB        37.6140   -2.6080    7.9260 C.3    99  GLU99       0.0415
     21  CG        36.4760   -2.0130    8.7530 C.3    99  GLU99       0.1163
     22  CD        36.7620   -0.5810    9.1470 C.2    99  GLU99       0.3649
     23  OE1       37.9700   -0.1990    9.2850 O.co2  99  GLU99      -0.2457
     24  OE2       35.7870    0.1870    9.3480 O.co2  99  GLU99      -0.2457
     25  N         35.5100   -6.9790    4.9880 N.3   101  GLY101     -0.1210
     26  CA        35.0920   -8.3370    5.3480 C.3   101  GLY101      0.1956
     27  C         34.3520   -8.3920    6.6920 C.2   101  GLY101      0.2611
     28  O         33.3730   -9.1280    6.8750 O.2   101  GLY101     -0.2717
     29  N         34.8100   -7.5710    7.6040 N.am  102  ARG102     -0.1979
     30  CA        34.1290   -7.4570    8.9060 C.3   102  ARG102      0.1597
     31  C         32.7050   -6.9150    8.6720 C.2   102  ARG102      0.2287
     32  O         31.7770   -7.4150    9.2410 O.2   102  ARG102     -0.2864
     33  CB        34.8700   -6.5330    9.7970 C.3   102  ARG102      0.0334
     34  CG        34.1990   -6.3710   11.2050 C.3   102  ARG102      0.0492
     35  CD        34.9260   -5.2560   11.9960 C.3   102  ARG102      0.2205
     36  NE        34.2520   -5.0200   13.2890 N.pl3 102  ARG102     -0.0865
     37  CZ        34.6610   -5.5470   14.4610 C.cat 102  ARG102      0.5346
     38  NH1       35.7590   -6.3470   14.5160 N.pl3 102  ARG102      0.1354
     39  NH2       34.0120   -5.2280   15.6030 N.pl3 102  ARG102      0.1354
     40  N         30.4840   -9.4640    6.8290 N.3   105  GLY105     -0.1210
     41  CA        30.1400  -10.6080    7.6600 C.3   105  GLY105      0.1956
     42  C         29.1380  -10.2130    8.7720 C.2   105  GLY105      0.2611
     43  O         28.2870  -10.9940    9.1650 O.2   105  GLY105     -0.2717
     44  N         29.2730   -8.9990    9.2530 N.am  106  GLN106     -0.1979
     45  CA        28.4110   -8.4630   10.3790 C.3   106  GLN106      0.1601
     46  C         26.9570   -8.3330    9.8300 C.2   106  GLN106      0.2287
     47  O         26.0410   -8.7370   10.4940 O.2   106  GLN106     -0.2864
     48  CB        28.9610   -7.1190   10.7950 C.3   106  GLN106      0.0394
     49  CG        28.1760   -6.3450   11.8360 C.3   106  GLN106      0.0908
     50  CD        29.0180   -5.2860   12.4490 C.2   106  GLN106      0.2608
     51  OE1       29.4330   -5.4290   13.6330 O.2   106  GLN106     -0.2717
     52  NE2       29.3550   -4.2410   11.6680 N.am  106  GLN106     -0.0878
     53  N         25.6270  -11.8790    9.6660 N.3   109  LEU109     -0.1245
     54  CA        25.3600  -12.4310   11.0180 C.3   109  LEU109      0.1561
     55  C         23.9740  -11.8990   11.4770 C.2   109  LEU109      0.2260
     56  O         23.1660  -12.6430   11.9690 O.2   109  LEU109     -0.2867
     57  CB        26.4460  -11.9310   11.9960 C.3   109  LEU109      0.0270
     58  CG        26.1740  -12.2850   13.4370 C.3   109  LEU109      0.0019
     59  CD1       26.1280  -13.8490   13.5670 C.3   109  LEU109      0.0001
     60  CD2       27.2350  -11.6300   14.3770 C.3   109  LEU109      0.0001
     61  N         36.6740    3.7700   12.1260 N.3   156  PHE156     -0.1241
     62  CA        36.3150    2.5180   11.5230 C.3   156  PHE156      0.1605
     63  C         35.3250    2.8510   10.4230 C.2   156  PHE156      0.2264
     64  O         34.1470    2.7390   10.6220 O.2   156  PHE156     -0.2867
     65  CB        35.6970    1.5770   12.5580 C.3   156  PHE156      0.0534
     66  CG        36.6970    0.6740   13.1690 C.ar  156  PHE156     -0.0203
     67  CD1       37.5660    1.1650   14.1240 C.ar  156  PHE156     -0.0042
     68  CD2       36.8270   -0.6430   12.7140 C.ar  156  PHE156     -0.0042
     69  CE1       38.5700    0.3560   14.6580 C.ar  156  PHE156     -0.0003
     70  CE2       37.7870   -1.4730   13.2290 C.ar  156  PHE156     -0.0003
     71  CZ        38.6720   -0.9810   14.2100 C.ar  156  PHE156     -0.0000
     72  N         42.1820    3.0890   17.7140 N.3   295  PHE295     -0.1241
     73  CA        41.1580    2.1250   18.1050 C.3   295  PHE295      0.1605
     74  C         40.5220    2.6520   19.3900 C.2   295  PHE295      0.2264
     75  O         41.2330    3.1740   20.2690 O.2   295  PHE295     -0.2867
     76  CB        41.7730    0.7540   18.3870 C.3   295  PHE295      0.0534
     77  CG        42.0360   -0.0710   17.1860 C.ar  295  PHE295     -0.0203
     78  CD1       42.8380    0.3980   16.1400 C.ar  295  PHE295     -0.0042
     79  CD2       41.5690   -1.3800   17.1250 C.ar  295  PHE295     -0.0042
     80  CE1       43.0740   -0.3920   15.0110 C.ar  295  PHE295     -0.0003
     81  CE2       41.8260   -2.2010   16.0070 C.ar  295  PHE295     -0.0003
     82  CZ        42.5880   -1.7050   14.9520 C.ar  295  PHE295     -0.0000
     83  N         37.8520   -6.6340   18.6230 N.3   447  VAL447     -0.1231
     84  CA        36.4630   -6.7520   19.0780 C.3   447  VAL447      0.1692
     85  C         35.7290   -7.7850   18.2300 C.2   447  VAL447      0.2592
     86  O         35.3950   -7.5110   17.0810 O.2   447  VAL447     -0.2718
     87  CB        35.7740   -5.3630   19.0630 C.3   447  VAL447      0.0266
     88  CG1       34.2940   -5.4470   19.5050 C.3   447  VAL447      0.0020
     89  CG2       36.5280   -4.3780   19.9290 C.3   447  VAL447      0.0020
     90  N         35.5520   -8.9960   18.7320 N.am  448  GLU448     -0.1966
     91  CA        34.9030  -10.0410   17.9250 C.3   448  GLU448      0.1733
     92  C         33.4150   -9.7000   17.7110 C.2   448  GLU448      0.2616
     93  O         32.7640   -9.2480   18.6290 O.2   448  GLU448     -0.2715
     94  CB        34.9960  -11.4300   18.5900 C.3   448  GLU448      0.0429
     95  CG        36.4730  -11.9300   18.8300 C.3   448  GLU448      0.1163
     96  CD        37.2590  -12.1560   17.5090 C.2   448  GLU448      0.3649
     97  OE1       36.6610  -12.3450   16.4180 O.co2 448  GLU448     -0.2457
     98  OE2       38.5080  -12.1740   17.5690 O.co2 448  GLU448     -0.2457
     99  N         32.9240   -9.8930   16.4930 N.am  449  VAL449     -0.1963
    100  CA        31.5090   -9.7020   16.1500 C.3   449  VAL449      0.1727
    101  C         30.7890  -10.9960   16.3280 C.2   449  VAL449      0.2616
    102  O         30.6120  -11.7820   15.3690 O.2   449  VAL449     -0.2715
    103  CB        31.3410   -9.1860   14.7250 C.3   449  VAL449      0.0290
    104  CG1       29.8050   -8.8700   14.4630 C.3   449  VAL449      0.0023
    105  CG2       32.2140   -7.8710   14.5250 C.3   449  VAL449      0.0023
    106  N         30.3890  -11.2600   17.5700 N.am  450  VAL450     -0.1977
    107  CA        29.8000  -12.5530   17.9470 C.3   450  VAL450      0.1596
    108  C         28.5580  -12.3260   18.8670 C.2   450  VAL450      0.2287
    109  O         28.3900  -11.2330   19.4070 O.2   450  VAL450     -0.2864
    110  CB        30.8470  -13.4760   18.6630 C.3   450  VAL450      0.0276
    111  CG1       32.0450  -13.8930   17.7130 C.3   450  VAL450      0.0022
    112  CG2       31.4240  -12.7540   19.8670 C.3   450  VAL450      0.0022
@<TRIPOS>BOND
     1    12    13    1
     2    25    26    1
     3    26    27    1
     4     1     2    1
     5     3     4    2
     6     3     2    1
     7    13    14    1
     8     2     5    1
     9    18    19    2
    10    18    17    1
    11    27    28    2
    12    27    29   am
    13    14    16   am
    14    14    15    2
    15    40    41    1
    16    16    17    1
    17     5     6    1
    18    17    20    1
    19    29    30    1
    20    41    42    1
    21    20    21    1
    22     6     7    1
    23    31    30    1
    24    31    32    2
    25    21    22    1
    26    42    43    2
    27    42    44   am
    28    30    33    1
    29    22    23   ar
    30    22    24   ar
    31    44    45    1
    32     7     8    1
    33    53    54    1
    34    33    34    1
    35    46    45    1
    36    46    47    2
    37     8     9    2
    38    45    48    1
    39    63    64    2
    40    63    62    1
    41    48    49    1
    42     9    11    1
    43     9    10    1
    44    54    55    1
    45    54    57    1
    46    34    35    1
    47    55    56    2
    48    62    61    1
    49    62    65    1
    50    52    50   am
    51    49    50    1
    52    57    58    1
    53    35    36    1
    54    50    51    2
    55    65    66    1
    56    68    66   ar
    57    68    70   ar
    58    66    67   ar
    59    70    71   ar
    60    36    37    2
    61    58    59    1
    62    58    60    1
    63    67    69   ar
    64    71    69   ar
    65    37    38    1
    66    37    39    1
    67   104   103    1
    68   105   103    1
    69   103   100    1
    70    82    80   ar
    71    82    81   ar
    72    80    78   ar
    73   102   101    2
    74    81    79   ar
    75    78    77   ar
    76   100   101    1
    77   100    99    1
    78   101   106   am
    79    97    96   ar
    80    99    92   am
    81    86    85    2
    82    79    77   ar
    83    77    76    1
    84    96    98   ar
    85    96    95    1
    86   106   107    1
    87    92    91    1
    88    92    93    2
    89   111   110    1
    90    72    73    1
    91    91    94    1
    92    91    90    1
    93   107   110    1
    94   107   108    1
    95    73    76    1
    96    73    74    1
    97    85    90   am
    98    85    84    1
    99    94    95    1
   100    83    84    1
   101   110   112    1
   102   108   109    2
   103    87    84    1
   104    87    88    1
   105    87    89    1
   106    74    75    2
