@<TRIPOS>MOLECULE
tmp/3v4eA02.pdb
 103 99 0 0 0
SMALL
GASTEIGER

@<TRIPOS>ATOM
      1  N         -7.0230   -6.3530   10.0610 N.3    90  MET90      -0.1245
      2  CA        -6.4710   -7.6120   10.5590 C.3    90  MET90       0.1570
      3  C         -6.9430   -7.7630   12.0110 C.2    90  MET90       0.2261
      4  O         -6.3840   -7.1700   12.9120 O.2    90  MET90      -0.2867
      5  CB        -4.9460   -7.5530   10.4460 C.3    90  MET90       0.0387
      6  CG        -4.2140   -8.7190   10.9910 C.3    90  MET90       0.0595
      7  SD        -2.4570   -8.3140   11.0840 S.3    90  MET90      -0.1393
      8  CE        -2.0930   -8.2190    9.3250 C.3    90  MET90       0.0692
      9  N         -3.7440   -3.1740   12.1720 N.3   110  TYR110     -0.1241
     10  CA        -3.0130   -4.3570   12.4710 C.3   110  TYR110      0.1605
     11  C         -3.0840   -4.7190   13.9290 C.2   110  TYR110      0.2264
     12  O         -2.5520   -3.9910   14.7360 O.2   110  TYR110     -0.2867
     13  CB        -1.5510   -4.1430   12.1340 C.3   110  TYR110      0.0534
     14  CG        -1.2790   -3.8130   10.6770 C.ar  110  TYR110     -0.0201
     15  CD1       -2.0780   -4.3350    9.6470 C.ar  110  TYR110     -0.0009
     16  CD2       -0.1960   -3.0440   10.3390 C.ar  110  TYR110     -0.0009
     17  CE1       -1.8040   -4.0610    8.3260 C.ar  110  TYR110      0.0417
     18  CE2        0.0610   -2.7140    9.0040 C.ar  110  TYR110      0.0417
     19  CZ        -0.7060   -3.2300    8.0160 C.ar  110  TYR110      0.1957
     20  OH        -0.3640   -2.9240    6.7250 O.3   110  TYR110     -0.2866
     21  N         -2.2240   -7.9220   15.1250 N.3   112  ALA112     -0.1231
     22  CA        -1.3820   -9.1450   15.3520 C.3   112  ALA112      0.1694
     23  C         -0.0020   -8.7560   15.7980 C.2   112  ALA112      0.2593
     24  O          0.6700   -8.0150   15.1420 O.2   112  ALA112     -0.2718
     25  CB        -1.2600  -10.0170   14.0920 C.3   112  ALA112      0.0304
     26  N          0.4140   -9.2600   16.9450 N.am  113  THR113     -0.1939
     27  CA         1.8190   -9.2510   17.2520 C.3   113  THR113      0.2028
     28  C          2.3240  -10.6840   17.2160 C.2   113  THR113      0.2642
     29  O          1.5710  -11.6090   17.5490 O.2   113  THR113     -0.2714
     30  CB         2.0770   -8.6450   18.6400 C.3   113  THR113      0.1808
     31  OG1        1.2300   -7.4870   18.8100 O.3   113  THR113     -0.2208
     32  CG2        3.5880   -8.2490   18.7680 C.3   113  THR113      0.0379
     33  N          3.5810  -10.8490   16.8220 N.am  114  HIS114     -0.1973
     34  CA         4.2590  -12.1240   16.9270 C.3   114  HIS114      0.1656
     35  C          5.2880  -12.0190   18.0270 C.2   114  HIS114      0.2291
     36  O          5.7180  -10.9450   18.3680 O.2   114  HIS114     -0.2864
     37  CB         4.9460  -12.4980   15.6350 C.3   114  HIS114      0.0771
     38  CG         4.0160  -12.7470   14.4690 C.ar  114  HIS114      0.0820
     39  ND1        3.7930  -13.9750   13.9670 N.ar  114  HIS114     -0.2267
     40  CD2        3.3130  -11.8520   13.6410 C.ar  114  HIS114      0.1154
     41  CE1        2.9600  -13.8800   12.8980 C.ar  114  HIS114      0.1986
     42  NE2        2.6710  -12.5790   12.7070 N.ar  114  HIS114     -0.2212
     43  N          8.9610  -11.6540   19.4410 N.3   116  LEU116     -0.1245
     44  CA        10.2070  -11.2010   18.8560 C.3   116  LEU116      0.1561
     45  C         11.1850  -12.3770   18.7780 C.2   116  LEU116      0.2260
     46  O         12.0020  -12.4500   17.8680 O.2   116  LEU116     -0.2867
     47  CB        10.7870  -10.0490   19.6490 C.3   116  LEU116      0.0270
     48  CG         9.9390   -8.7710   19.6840 C.3   116  LEU116      0.0019
     49  CD1       10.5640   -7.7600   20.6400 C.3   116  LEU116      0.0001
     50  CD2        9.7290   -8.1550   18.3160 C.3   116  LEU116      0.0001
     51  N         -1.2010    0.2730   14.6620 N.3   146  LEU146     -0.1231
     52  CA        -0.5710   -0.8980   15.2380 C.3   146  LEU146      0.1678
     53  C         -1.3830   -1.5120   16.4300 C.2   146  LEU146      0.2434
     54  O         -2.4440   -0.9740   16.8170 O.2   146  LEU146     -0.2733
     55  CB         0.8890   -0.5690   15.6210 C.3   146  LEU146      0.0284
     56  CG         1.7320    0.0280   14.4670 C.3   146  LEU146      0.0019
     57  CD1        3.1770   -0.3250   14.6510 C.3   146  LEU146      0.0001
     58  CD2        1.3310   -0.2910   13.0200 C.3   146  LEU146      0.0001
     59  N         -0.9390   -2.6850   16.9130 N.am  147  PRO147     -0.2729
     60  CA        -1.7660   -3.4010   17.8420 C.3   147  PRO147      0.1401
     61  C         -1.9370   -2.6440   19.1590 C.2   147  PRO147      0.2269
     62  O         -1.0460   -1.9590   19.5710 O.2   147  PRO147     -0.2865
     63  CB        -0.9880   -4.7090   18.0800 C.3   147  PRO147      0.0296
     64  CG        -0.3100   -4.9420   16.8180 C.3   147  PRO147      0.0237
     65  CD         0.1070   -3.5610   16.3450 C.3   147  PRO147      0.0939
     66  N          2.2040    6.2080   10.8160 N.3   162  VAL162     -0.1245
     67  CA         2.3110    4.9430   11.4930 C.3   162  VAL162      0.1561
     68  C          2.0010    5.1640   12.9670 C.2   162  VAL162      0.2260
     69  O          2.8140    5.7630   13.6960 O.2   162  VAL162     -0.2867
     70  CB         3.7440    4.3760   11.3810 C.3   162  VAL162      0.0252
     71  CG1        3.8320    3.0630   12.2240 C.3   162  VAL162      0.0019
     72  CG2        4.0600    4.1830    9.9030 C.3   162  VAL162      0.0019
     73  N          1.5600    4.3190   16.4790 N.3   164  THR164     -0.1203
     74  CA         2.1560    3.3570   17.4130 C.3   164  THR164      0.1994
     75  C          1.5940    3.5340   18.8030 C.2   164  THR164      0.2617
     76  O          1.8120    2.6470   19.6560 O.2   164  THR164     -0.2717
     77  CB         3.6820    3.5140   17.4640 C.3   164  THR164      0.1784
     78  OG1        4.0240    4.7640   18.0650 O.3   164  THR164     -0.2211
     79  CG2        4.2180    3.5400   16.0400 C.3   164  THR164      0.0376
     80  N          0.9600    4.6860   19.0670 N.am  165  LYS165     -0.1979
     81  CA         0.4340    4.9750   20.3900 C.3   165  LYS165      0.1596
     82  C         -0.9530    5.5320   20.2710 C.2   165  LYS165      0.2287
     83  O         -1.2970    6.0780   19.2210 O.2   165  LYS165     -0.2864
     84  CB         1.2780    6.0380   21.0980 C.3   165  LYS165      0.0298
     85  CG         2.5850    5.5370   21.6990 C.3   165  LYS165      0.0038
     86  CD         3.3220    6.6990   22.3870 C.3   165  LYS165      0.0206
     87  CE         4.8100    6.4300   22.5430 C.3   165  LYS165      0.1093
     88  NZ         5.5550    7.7080   22.7820 N.3   165  LYS165     -0.1314
     89  N          5.5040    9.3490   11.1290 N.3   176  ASN176     -0.1226
     90  CA         6.0240    8.0850   11.4870 C.3   176  ASN176      0.1770
     91  C          7.2000    8.2920   12.4940 C.2   176  ASN176      0.2439
     92  O          8.2860    8.6580   12.0490 O.2   176  ASN176     -0.2733
     93  CB         6.5610    7.3110   10.2570 C.3   176  ASN176      0.1168
     94  CG         7.1640    5.9540   10.6490 C.2   176  ASN176      0.2627
     95  OD1        7.3380    5.6780   11.8420 O.2   176  ASN176     -0.2716
     96  ND2        7.4480    5.1140    9.6790 N.am  176  ASN176     -0.0877
     97  N          6.9840    8.0670   13.8120 N.am  177  PRO177     -0.2729
     98  CA         5.7270    7.6620   14.4230 C.3   177  PRO177      0.1401
     99  C          4.7210    8.8100   14.4570 C.2   177  PRO177      0.2269
    100  O          5.0660   10.0060   14.3310 O.2   177  PRO177     -0.2865
    101  CB         6.1580    7.1430   15.8310 C.3   177  PRO177      0.0296
    102  CG         7.3640    7.9710   16.1470 C.3   177  PRO177      0.0237
    103  CD         8.0260    8.3500   14.8320 C.3   177  PRO177      0.0939
@<TRIPOS>BOND
     1    20    19    1
     2    19    17   ar
     3    19    18   ar
     4    17    15   ar
     5    18    16   ar
     6     8     7    1
     7    15    14   ar
     8    96    94   am
     9    72    70    1
    10     1     2    1
    11    93    94    1
    12    93    90    1
    13    16    14   ar
    14     5     2    1
    15     5     6    1
    16     2     3    1
    17    94    95    2
    18    14    13    1
    19    66    67    1
    20     6     7    1
    21    89    90    1
    22    70    67    1
    23    70    71    1
    24    90    91    1
    25    67    68    1
    26     3     4    2
    27    92    91    2
    28    13    10    1
    29     9    10    1
    30    10    11    1
    31    91    97   am
    32    42    41   ar
    33    42    40   ar
    34    41    39   ar
    35    68    69    2
    36    58    56    1
    37    40    38   ar
    38    97    98    1
    39    97   103    1
    40    11    12    2
    41    39    38   ar
    42    25    22    1
    43   100    99    2
    44    98    99    1
    45    98   101    1
    46    56    57    1
    47    56    55    1
    48    38    37    1
    49    51    52    1
    50   103   102    1
    51    21    22    1
    52    24    23    2
    53    52    55    1
    54    52    53    1
    55    22    23    1
    56    37    34    1
    57    23    26   am
    58   101   102    1
    59    79    77    1
    60    65    64    1
    61    65    59    1
    62    53    54    2
    63    53    59   am
    64    73    74    1
    65    64    63    1
    66    33    34    1
    67    33    28   am
    68    59    60    1
    69    34    35    1
    70    26    27    1
    71    28    27    1
    72    28    29    2
    73    27    30    1
    74    74    77    1
    75    74    75    1
    76    77    78    1
    77    60    63    1
    78    60    61    1
    79    46    45    2
    80    35    36    2
    81    50    48    1
    82    30    32    1
    83    30    31    1
    84    45    44    1
    85    75    80   am
    86    75    76    2
    87    44    43    1
    88    44    47    1
    89    80    81    1
    90    61    62    2
    91    83    82    2
    92    47    48    1
    93    48    49    1
    94    82    81    1
    95    81    84    1
    96    84    85    1
    97    85    86    1
    98    86    87    1
    99    87    88    1
