@<TRIPOS>MOLECULE
tmp/3v4eA03.pdb
 106 101 0 0 0
SMALL
GASTEIGER

@<TRIPOS>ATOM
      1  N        -11.8700    3.2590    1.8000 N.3    84  ASN84      -0.1240
      2  CA       -11.4220    3.3830    0.4170 C.3    84  ASN84       0.1653
      3  C        -10.5940    2.1400    0.0530 C.2    84  ASN84       0.2266
      4  O        -10.4890    1.1870    0.8260 O.2    84  ASN84      -0.2867
      5  CB       -10.7010    4.7230    0.1740 C.3    84  ASN84       0.1155
      6  CG       -10.8570    5.2220   -1.2660 C.2    84  ASN84       0.2627
      7  OD1      -10.9530    4.4340   -2.1950 O.2    84  ASN84      -0.2716
      8  ND2      -10.8270    6.4850   -1.4450 N.am   84  ASN84      -0.0877
      9  N         -9.1550    6.2880    4.5730 N.3   104  GLY104     -0.1210
     10  CA        -8.4410    6.4730    3.3400 C.3   104  GLY104      0.1940
     11  C         -7.9530    5.2140    2.6740 C.2   104  GLY104      0.2453
     12  O         -8.0240    4.1230    3.2090 O.2   104  GLY104     -0.2732
     13  N         -7.4620    5.3430    1.4230 N.am  105  PRO105     -0.2728
     14  CA        -6.9680    4.1400    0.7520 C.3   105  PRO105      0.1401
     15  C         -5.6430    3.5540    1.3040 C.2   105  PRO105      0.2269
     16  O         -4.8320    4.2800    1.8250 O.2   105  PRO105     -0.2865
     17  CB        -6.7130    4.6640   -0.6590 C.3   105  PRO105      0.0296
     18  CG        -6.2060    6.0530   -0.3850 C.3   105  PRO105      0.0237
     19  CD        -7.1430    6.5330    0.6620 C.3   105  PRO105      0.0939
     20  N        -11.1910   10.6570   10.7060 N.3   138  TRP138     -0.1241
     21  CA       -10.7090   10.6490    9.3270 C.3   138  TRP138      0.1605
     22  C         -9.2490   10.2380    9.3050 C.2   138  TRP138      0.2264
     23  O         -8.4160   10.7780   10.0010 O.2   138  TRP138     -0.2867
     24  CB       -10.9420   12.0350    8.6810 C.3   138  TRP138      0.0550
     25  CG       -10.3310   12.2400    7.3110 C.ar  138  TRP138      0.0003
     26  CD1      -10.2890   11.3500    6.2380 C.ar  138  TRP138      0.0946
     27  CD2       -9.6840   13.4440    6.8280 C.ar  138  TRP138      0.0152
     28  NE1       -9.6370   11.9230    5.1430 N.ar  138  TRP138     -0.2442
     29  CE2       -9.2390   13.1630    5.4490 C.ar  138  TRP138      0.0810
     30  CE3       -9.4490   14.6980    7.3690 C.ar  138  TRP138      0.0012
     31  CZ2       -8.5900   14.1070    4.6860 C.ar  138  TRP138      0.0191
     32  CZ3       -8.7620   15.6300    6.5820 C.ar  138  TRP138      0.0001
     33  CH2       -8.3520   15.3440    5.2840 C.ar  138  TRP138      0.0015
     34  N         -6.1480    9.6500    6.5980 N.3   140  GLY140     -0.1210
     35  CA        -5.6010    9.8100    5.2550 C.3   140  GLY140      0.1956
     36  C         -5.1110    8.4910    4.6520 C.2   140  GLY140      0.2612
     37  O         -5.1880    7.3830    5.2360 O.2   140  GLY140     -0.2717
     38  N         -4.6850    8.5160    3.4190 N.am  141  GLY141     -0.1956
     39  CA        -4.2960    7.2140    2.8400 C.3   141  GLY141      0.1869
     40  C         -2.9290    6.7810    3.3650 C.2   141  GLY141      0.2309
     41  O         -2.1980    7.5930    3.9440 O.2   141  GLY141     -0.2863
     42  N         -8.1290   13.2680   13.4960 N.3   156  VAL156     -0.1231
     43  CA        -7.7080   13.1560   12.0740 C.3   156  VAL156      0.1692
     44  C         -6.2810   12.6280   12.0490 C.2   156  VAL156      0.2592
     45  O         -5.4030   13.1280   12.7800 O.2   156  VAL156     -0.2718
     46  CB        -7.8530   14.4640   11.3300 C.3   156  VAL156      0.0266
     47  CG1       -7.2760   14.3180    9.9210 C.3   156  VAL156      0.0020
     48  CG2       -9.3660   14.9320   11.3120 C.3   156  VAL156      0.0020
     49  N         -6.0820   11.5460   11.2900 N.am  157  ILE157     -0.1966
     50  CA        -4.7470   10.9280   11.1700 C.3   157  ILE157      0.1727
     51  C         -4.2660   11.2360    9.7260 C.2   157  ILE157      0.2617
     52  O         -4.9290   10.8950    8.7690 O.2   157  ILE157     -0.2715
     53  CB        -4.7940    9.4290   11.4490 C.3   157  ILE157      0.0290
     54  CG1       -5.3680    9.1000   12.8590 C.3   157  ILE157      0.0022
     55  CG2       -3.3570    8.8060   11.3820 C.3   157  ILE157      0.0023
     56  CD1       -4.6390    9.7770   13.9740 C.3   157  ILE157      0.0001
     57  N         -3.1200   11.9070    9.5960 N.am  158  GLY158     -0.1940
     58  CA        -2.5520   12.2840    8.2960 C.3   158  GLY158      0.2014
     59  C         -2.0710   11.1120    7.4860 C.2   158  GLY158      0.2639
     60  O         -1.6550   10.1030    8.0410 O.2   158  GLY158     -0.2714
     61  N         -2.1050   11.2640    6.1570 N.am  159  ALA159     -0.1963
     62  CA        -1.6490   10.2830    5.1950 C.3   159  ALA159      0.1728
     63  C         -0.2110    9.8620    5.5970 C.2   159  ALA159      0.2616
     64  O          0.6090   10.7110    5.9990 O.2   159  ALA159     -0.2715
     65  CB        -1.5970   10.9040    3.7750 C.3   159  ALA159      0.0334
     66  N          0.0830    8.5730    5.4100 N.am  160  GLY160     -0.1955
     67  CA         1.3750    8.0190    5.6850 C.3   160  GLY160      0.1869
     68  C          1.7110    7.7290    7.1630 C.2   160  GLY160      0.2309
     69  O          2.8420    7.3460    7.4710 O.2   160  GLY160     -0.2863
     70  N         -5.3940   16.3890   15.6580 N.3   172  LEU172     -0.1245
     71  CA        -4.7380   16.1520   14.3910 C.3   172  LEU172      0.1561
     72  C         -3.3920   15.5500   14.7290 C.2   172  LEU172      0.2260
     73  O         -2.6150   16.1270   15.5210 O.2   172  LEU172     -0.2867
     74  CB        -4.5820   17.4160   13.5890 C.3   172  LEU172      0.0270
     75  CG        -3.7320   17.3900   12.3260 C.3   172  LEU172      0.0019
     76  CD1       -4.4630   16.5460   11.2930 C.3   172  LEU172      0.0001
     77  CD2       -3.4770   18.7760   11.7950 C.3   172  LEU172      0.0001
     78  N          0.0040   13.2760   12.8610 N.3   174  VAL174     -0.1231
     79  CA         0.6630   12.8500   11.6350 C.3   174  VAL174      0.1692
     80  C          2.0510   12.3210   11.9590 C.2   174  VAL174      0.2592
     81  O          2.6070   12.6020   13.0810 O.2   174  VAL174     -0.2718
     82  CB         0.8160   14.0370   10.6100 C.3   174  VAL174      0.0266
     83  CG1       -0.5200   14.7700   10.3930 C.3   174  VAL174      0.0020
     84  CG2        1.9120   15.0080   11.1180 C.3   174  VAL174      0.0020
     85  N          2.5800   11.5140   11.0400 N.am  175  GLY175     -0.1957
     86  CA         4.0010   11.1910   11.0070 C.3   175  GLY175      0.1869
     87  C          4.2300    9.7240   11.2300 C.2   175  GLY175      0.2309
     88  O          3.3160    8.9740   11.5630 O.2   175  GLY175     -0.2863
     89  N         -0.2420   16.9270   16.5060 N.3   181  VAL181     -0.1231
     90  CA         0.2250   18.2130   16.0240 C.3   181  VAL181      0.1692
     91  C         -0.5890   19.3140   16.6810 C.2   181  VAL181      0.2591
     92  O         -0.0470   20.3280   17.0310 O.2   181  VAL181     -0.2718
     93  CB         0.0260   18.3620   14.4670 C.3   181  VAL181      0.0266
     94  CG1        0.2100   19.8160   13.9770 C.3   181  VAL181      0.0020
     95  CG2        0.9500   17.4290   13.7190 C.3   181  VAL181      0.0020
     96  N         -1.9010   19.1470   16.7620 N.am  182  ARG182     -0.1980
     97  CA        -2.7410   20.1770   17.3520 C.3   182  ARG182      0.1597
     98  C         -4.1240   19.6710   17.6620 C.2   182  ARG182      0.2287
     99  O         -4.4930   18.5820   17.2200 O.2   182  ARG182     -0.2864
    100  CB        -2.8410   21.3960   16.4400 C.3   182  ARG182      0.0334
    101  CG        -3.6860   21.2620   15.1920 C.3   182  ARG182      0.0492
    102  CD        -4.0950   22.6760   14.7720 C.3   182  ARG182      0.2205
    103  NE        -4.6580   22.7450   13.4280 N.pl3 182  ARG182     -0.0865
    104  CZ        -3.9520   22.6730   12.2910 C.cat 182  ARG182      0.5346
    105  NH1       -2.6240   22.4820   12.2950 N.pl3 182  ARG182      0.1354
    106  NH2       -4.5870   22.7830   11.1280 N.pl3 182  ARG182      0.1354
@<TRIPOS>BOND
     1     7     6    2
     2     8     6   am
     3     6     5    1
     4    17    18    1
     5    17    14    1
     6    18    19    1
     7     3     2    1
     8     3     4    2
     9     5     2    1
    10     2     1    1
    11    19    13    1
    12    14    15    1
    13    14    13    1
    14    15    16    2
    15    13    11   am
    16    11    12    2
    17    11    10    1
    18    39    40    1
    19    39    38    1
    20    10     9    1
    21    40    41    2
    22    38    36   am
    23    65    62    1
    24    36    37    2
    25    36    35    1
    26    31    33   ar
    27    31    29   ar
    28    28    29   ar
    29    28    26   ar
    30    62    63    1
    31    62    61    1
    32    35    34    1
    33    33    32   ar
    34    66    63   am
    35    66    67    1
    36    29    27   ar
    37    63    64    2
    38    67    68    1
    39    61    59   am
    40    26    25   ar
    41    32    30   ar
    42    27    25   ar
    43    27    30   ar
    44    68    69    2
    45    25    24    1
    46    59    60    2
    47    59    58    1
    48    58    57    1
    49    24    21    1
    50    52    51    2
    51    22    21    1
    52    22    23    2
    53    21    20    1
    54    57    51   am
    55    51    50    1
    56    47    46    1
    57    83    82    1
    58    82    84    1
    59    82    79    1
    60    86    85    1
    61    86    87    1
    62    85    80   am
    63   106   104    1
    64    50    49    1
    65    50    53    1
    66    87    88    2
    67    49    44   am
    68    76    75    1
    69    48    46    1
    70    46    43    1
    71    55    53    1
    72    53    54    1
    73    79    80    1
    74    79    78    1
    75    77    75    1
    76    80    81    2
    77    44    43    1
    78    44    45    2
    79    43    42    1
    80   104   105    1
    81   104   103    2
    82    75    74    1
    83    54    56    1
    84   103   102    1
    85    74    71    1
    86    95    93    1
    87    94    93    1
    88    71    72    1
    89    71    70    1
    90    93    90    1
    91    72    73    2
    92   102   101    1
    93   101   100    1
    94    90    89    1
    95    90    91    1
    96   100    97    1
    97    91    96   am
    98    91    92    2
    99    96    97    1
   100    99    98    2
   101    97    98    1
