@<TRIPOS>MOLECULE
tmp/3v4eA01.pdb
 67 64 0 0 0
SMALL
GASTEIGER

@<TRIPOS>ATOM
      1  N        -12.7730   -2.1330   16.6790 N.3    96  THR96      -0.1218
      2  CA       -14.0230   -1.3920   16.9210 C.3    96  THR96       0.1862
      3  C        -13.9280   -0.0470   16.1640 C.2    96  THR96       0.2287
      4  O        -12.9770    0.7230   16.3110 O.2    96  THR96      -0.2866
      5  CB       -14.3080   -1.2180   18.4220 C.3    96  THR96       0.1770
      6  OG1      -14.2720   -2.5230   19.0400 O.3    96  THR96      -0.2211
      7  CG2      -15.7300   -0.6040   18.6670 C.3    96  THR96       0.0375
      8  N        -16.2540    3.3430   15.1160 N.3    98  GLY98      -0.1225
      9  CA       -17.4270    4.1400   15.4410 C.3    98  GLY98       0.1811
     10  C        -18.2450    4.5560   14.2570 C.2    98  GLY98       0.2280
     11  O        -18.1510    3.9880   13.1770 O.2    98  GLY98      -0.2866
     12  N         -9.3260    0.3770   18.6160 N.3   132  HIS132     -0.1226
     13  CA       -10.5630    1.1160   18.7580 C.3   132  HIS132      0.1752
     14  C        -10.4430    2.3960   17.9780 C.2   132  HIS132      0.2596
     15  O         -9.4860    3.1860   18.1920 O.2   132  HIS132     -0.2718
     16  CB       -10.7740    1.4600   20.1940 C.3   132  HIS132      0.0759
     17  CG       -11.0580    0.2840   21.0470 C.ar  132  HIS132      0.0818
     18  ND1      -10.0900   -0.4570   21.5950 N.ar  132  HIS132     -0.2268
     19  CD2      -12.2720   -0.2280   21.5200 C.ar  132  HIS132      0.1154
     20  CE1      -10.6720   -1.4090   22.3830 C.ar  132  HIS132      0.1986
     21  NE2      -11.9880   -1.2780   22.3070 N.ar  132  HIS132     -0.2212
     22  N        -11.3750    2.5800   17.0290 N.am  133  ILE133     -0.1966
     23  CA       -11.3790    3.7350   16.1800 C.3   133  ILE133      0.1727
     24  C        -12.5900    4.5420   16.5480 C.2   133  ILE133      0.2617
     25  O        -13.7420    4.0950   16.3500 O.2   133  ILE133     -0.2715
     26  CB       -11.4980    3.3700   14.6920 C.3   133  ILE133      0.0290
     27  CG1      -10.3490    2.4190   14.2440 C.3   133  ILE133      0.0022
     28  CG2      -11.6150    4.6600   13.8580 C.3   133  ILE133      0.0023
     29  CD1       -8.9420    2.9340   14.4440 C.3   133  ILE133      0.0001
     30  N        -12.3630    5.7510   17.0460 N.am  134  GLY134     -0.1940
     31  CA       -13.4580    6.6040   17.4850 C.3   134  GLY134      0.2014
     32  C        -14.4350    6.9690   16.4160 C.2   134  GLY134      0.2639
     33  O        -14.0950    7.0030   15.2480 O.2   134  GLY134     -0.2714
     34  N        -15.6530    7.2630   16.8090 N.am  135  SER135     -0.1949
     35  CA       -16.5920    7.9800   15.9200 C.3   135  SER135      0.1924
     36  C        -16.0240    9.3290   15.3890 C.2   135  SER135      0.2314
     37  O        -15.2120    9.9780   16.0520 O.2   135  SER135     -0.2863
     38  CB       -17.9450    8.2390   16.6400 C.3   135  SER135      0.2116
     39  OG       -18.5790    6.9890   16.9070 O.3   135  SER135     -0.2180
     40  N         -5.7240    2.9690   20.2880 N.3   150  THR150     -0.1203
     41  CA        -6.9840    3.6190   20.3070 C.3   150  THR150      0.1994
     42  C         -6.7870    5.0480   19.6890 C.2   150  THR150      0.2618
     43  O         -5.8340    5.7310   20.0360 O.2   150  THR150     -0.2717
     44  CB        -7.5080    3.6370   21.7500 C.3   150  THR150      0.1784
     45  OG1       -7.6980    2.2740   22.2140 O.3   150  THR150     -0.2211
     46  CG2       -8.8300    4.5260   21.8530 C.3   150  THR150      0.0376
     47  N         -7.6390    5.4040   18.7130 N.am  151  ILE151     -0.1965
     48  CA        -7.7500    6.7400   18.1510 C.3   151  ILE151      0.1727
     49  C         -9.0540    7.3510   18.7000 C.2   151  ILE151      0.2617
     50  O        -10.1320    6.8280   18.4840 O.2   151  ILE151     -0.2715
     51  CB        -7.6770    6.7250   16.5830 C.3   151  ILE151      0.0290
     52  CG1       -6.2700    6.2100   16.1170 C.3   151  ILE151      0.0022
     53  CG2       -7.8800    8.0980   15.9780 C.3   151  ILE151      0.0023
     54  CD1       -6.2600    4.7130   15.9030 C.3   151  ILE151      0.0001
     55  N         -8.9220    8.4260   19.4440 N.am  152  GLY152     -0.1940
     56  CA       -10.0870    9.0730   20.0590 C.3   152  GLY152      0.2014
     57  C        -11.0120    9.6960   19.0050 C.2   152  GLY152      0.2638
     58  O        -10.6050   10.0420   17.8660 O.2   152  GLY152     -0.2714
     59  N        -12.2640    9.8580   19.4300 N.am  153  GLU153     -0.1977
     60  CA       -13.3500   10.4550   18.6410 C.3   153  GLU153      0.1602
     61  C        -12.9930   11.8530   18.1600 C.2   153  GLU153      0.2287
     62  O        -12.3820   12.5960   18.9110 O.2   153  GLU153     -0.2864
     63  CB       -14.6270   10.5530   19.5120 C.3   153  GLU153      0.0415
     64  CG       -14.5270   11.7520   20.5060 C.3   153  GLU153      0.1163
     65  CD       -15.3210   11.7440   21.8140 C.2   153  GLU153      0.3649
     66  OE1      -16.4850   12.2420   21.7910 O.co2 153  GLU153     -0.2457
     67  OE2      -14.7410   11.3730   22.8920 O.co2 153  GLU153     -0.2457
@<TRIPOS>BOND
     1    11    10    2
     2    28    26    1
     3    27    29    1
     4    27    26    1
     5    10     9    1
     6    26    23    1
     7     8     9    1
     8    33    32    2
     9    36    35    1
    10    36    37    2
    11    54    52    1
    12    35    38    1
    13    35    34    1
    14    53    51    1
    15    52    51    1
    16     3     4    2
    17     3     2    1
    18    23    24    1
    19    23    22    1
    20    25    24    2
    21    32    34   am
    22    32    31    1
    23    24    30   am
    24    51    48    1
    25    38    39    1
    26     1     2    1
    27     2     5    1
    28    22    14   am
    29    30    31    1
    30    58    57    2
    31    14    15    2
    32    14    13    1
    33    48    49    1
    34    48    47    1
    35    61    60    1
    36    61    62    2
    37     5     7    1
    38     5     6    1
    39    50    49    2
    40    12    13    1
    41    60    59    1
    42    60    63    1
    43    49    55   am
    44    47    42   am
    45    13    16    1
    46    57    59   am
    47    57    56    1
    48    55    56    1
    49    63    64    1
    50    42    43    2
    51    42    41    1
    52    16    17    1
    53    40    41    1
    54    41    44    1
    55    64    65    1
    56    17    19   ar
    57    17    18   ar
    58    19    21   ar
    59    18    20   ar
    60    44    46    1
    61    44    45    1
    62    66    65   ar
    63    65    67   ar
    64    21    20   ar
