@<TRIPOS>MOLECULE
tmp/3v4lA00.pdb
 187 181 0 0 0
SMALL
GASTEIGER

@<TRIPOS>ATOM
      1  N          1.6650   49.6000   26.6020 N.3    24  LEU24      -0.1245
      2  CA         2.0330   50.9530   26.1640 C.3    24  LEU24       0.1561
      3  C          1.5660   52.0050   27.2060 C.2    24  LEU24       0.2260
      4  O          0.9730   51.6320   28.2140 O.2    24  LEU24      -0.2867
      5  CB         1.5200   51.2700   24.7340 C.3    24  LEU24       0.0270
      6  CG         1.6670   50.2350   23.5790 C.3    24  LEU24       0.0019
      7  CD1        1.4250   50.9060   22.2240 C.3    24  LEU24       0.0001
      8  CD2        3.0380   49.6070   23.5280 C.3    24  LEU24       0.0001
      9  N          1.5240   56.0220   26.2580 N.3    26  ALA26      -0.1231
     10  CA         1.1170   57.2330   25.5710 C.3    26  ALA26       0.1679
     11  C         -0.2740   57.1500   24.9830 C.2    26  ALA26       0.2434
     12  O         -0.8600   58.2290   24.8120 O.2    26  ALA26      -0.2733
     13  CB         2.1090   57.5510   24.4760 C.3    26  ALA26       0.0304
     14  N         -0.8360   55.9400   24.6230 N.am   27  PRO27      -0.2729
     15  CA        -2.1540   55.9320   23.9830 C.3    27  PRO27       0.1401
     16  C         -3.2440   56.6750   24.7430 C.2    27  PRO27       0.2269
     17  O         -3.9740   57.4450   24.1150 O.2    27  PRO27      -0.2865
     18  CB        -2.4380   54.4590   23.7530 C.3    27  PRO27       0.0296
     19  CG        -1.1080   53.8520   23.6120 C.3    27  PRO27       0.0237
     20  CD        -0.2790   54.5680   24.6300 C.3    27  PRO27       0.0939
     21  N         -2.5480   60.5450   24.3410 N.3    30  ASP30      -0.1239
     22  CA        -2.7760   60.9490   22.9480 C.3    30  ASP30       0.1674
     23  C         -4.2550   61.0070   22.6250 C.2    30  ASP30       0.2266
     24  O         -4.7110   61.9810   21.9910 O.2    30  ASP30      -0.2867
     25  CB        -2.0620   59.9970   21.9600 C.3    30  ASP30       0.1410
     26  CG        -0.5450   60.0810   21.8810 C.2    30  ASP30       0.3668
     27  OD1        0.0430   61.0230   22.4860 O.co2  30  ASP30      -0.2456
     28  OD2        0.0600   59.2300   21.1790 O.co2  30  ASP30      -0.2456
     29  N         -4.2280   54.3280   18.1900 N.3    78  ALA78      -0.1231
     30  CA        -2.9210   54.3490   18.8230 C.3    78  ALA78       0.1694
     31  C         -2.8020   53.0680   19.6570 C.2    78  ALA78       0.2593
     32  O         -3.5780   52.8440   20.5870 O.2    78  ALA78      -0.2718
     33  CB        -2.7720   55.5880   19.6860 C.3    78  ALA78       0.0304
     34  N         -1.8940   52.2030   19.2540 N.am   79  GLY79      -0.1942
     35  CA        -1.6780   50.9250   19.9130 C.3    79  GLY79       0.2014
     36  C         -0.7300   50.0870   19.0980 C.2    79  GLY79       0.2639
     37  O          0.1390   50.6440   18.4170 O.2    79  GLY79      -0.2714
     38  N         -0.9010   48.7510   19.1330 N.am   80  HIS80      -0.1959
     39  CA        -0.0710   47.8390   18.3470 C.3    80  HIS80       0.1787
     40  C         -0.6600   47.6110   16.9690 C.2    80  HIS80       0.2620
     41  O         -1.8540   47.3740   16.8350 O.2    80  HIS80      -0.2715
     42  CB         0.1860   46.4850   19.0470 C.3    80  HIS80       0.0785
     43  CG         1.1580   46.5290   20.2000 C.ar   80  HIS80       0.0821
     44  ND1        2.3550   47.2190   20.1180 N.ar   80  HIS80      -0.2267
     45  CD2        1.0880   45.9310   21.4160 C.ar   80  HIS80       0.1154
     46  CE1        2.9440   47.0620   21.2950 C.ar   80  HIS80       0.1986
     47  NE2        2.2180   46.2990   22.1090 N.ar   80  HIS80      -0.2212
     48  N          0.1900   47.6940   15.9670 N.am   81  GLY81      -0.1954
     49  CA        -0.1810   47.4700   14.5880 C.3    81  GLY81       0.1869
     50  C          0.8510   46.6620   13.8390 C.2    81  GLY81       0.2309
     51  O          2.0260   46.5940   14.2200 O.2    81  GLY81      -0.2863
     52  N         -1.6300   55.5810   14.2830 N.3   127  ASP127     -0.1225
     53  CA        -0.4900   55.8370   15.1570 C.3   127  ASP127      0.1805
     54  C         -0.0390   54.4850   15.7630 C.2   127  ASP127      0.2598
     55  O         -0.2080   54.2080   16.9600 O.2   127  ASP127     -0.2718
     56  CB        -0.8690   56.8830   16.2240 C.3   127  ASP127      0.1424
     57  CG         0.2900   57.6770   16.8110 C.2   127  ASP127      0.3668
     58  OD1        0.0410   58.8010   17.3340 O.co2 127  ASP127     -0.2456
     59  OD2        1.4350   57.1500   16.8210 O.co2 127  ASP127     -0.2456
     60  N          0.5010   53.6230   14.8900 N.am  128  MET128     -0.1965
     61  CA         0.9280   52.2530   15.2070 C.3   128  MET128      0.1736
     62  C          2.1260   51.8340   14.3380 C.2   128  MET128      0.2616
     63  O          2.3900   52.4490   13.2950 O.2   128  MET128     -0.2715
     64  CB        -0.2460   51.2710   14.9330 C.3   128  MET128      0.0427
     65  CG        -0.8570   51.4750   13.5390 C.3   128  MET128      0.0599
     66  SD        -2.0390   50.2490   13.0090 S.3   128  MET128     -0.1393
     67  CE        -1.1540   49.4920   11.6840 C.3   128  MET128      0.0692
     68  N          2.7940   50.7360   14.7390 N.am  129  CYS129     -0.1968
     69  CA         3.9130   50.1360   14.0180 C.3   129  CYS129      0.1712
     70  C          3.4280   49.5320   12.7190 C.2   129  CYS129      0.2296
     71  O          2.2510   49.1820   12.6110 O.2   129  CYS129     -0.2864
     72  CB         4.5980   49.0860   14.8820 C.3   129  CYS129      0.0983
     73  SG         5.8080   49.7620   16.0470 S.3   129  CYS129     -0.0798
     74  N          5.1940   46.7700   10.7370 N.3   131  LYS131     -0.1245
     75  CA         6.0930   45.6750   10.3420 C.3   131  LYS131      0.1561
     76  C          5.3330   44.3930    9.9880 C.2   131  LYS131      0.2260
     77  O          4.1060   44.3970   10.0030 O.2   131  LYS131     -0.2867
     78  CB         7.1800   45.4280   11.4170 C.3   131  LYS131      0.0271
     79  CG         7.7130   46.6830   12.1240 C.3   131  LYS131      0.0035
     80  CD         9.1900   46.5840   12.4670 C.3   131  LYS131      0.0206
     81  CE         9.4770   45.9850   13.8290 C.3   131  LYS131      0.1093
     82  NZ        10.9370   45.9820   14.1360 N.3   131  LYS131     -0.1314
     83  N          8.5220   51.5010   12.4150 N.3   162  GLU162     -0.1231
     84  CA         7.9470   51.5680   13.7500 C.3   162  GLU162      0.1699
     85  C          7.5160   52.9780   14.0890 C.2   162  GLU162      0.2592
     86  O          8.1740   53.9420   13.7110 O.2   162  GLU162     -0.2718
     87  CB         8.9830   51.1070   14.8090 C.3   162  GLU162      0.0402
     88  CG         9.5280   49.7020   14.6320 C.3   162  GLU162      0.1161
     89  CD        10.3500   49.1870   15.7930 C.2   162  GLU162      0.3649
     90  OE1       11.4200   49.7730   16.0730 O.co2 162  GLU162     -0.2457
     91  OE2        9.9410   48.1700   16.3980 O.co2 162  GLU162     -0.2457
     92  N          6.4270   53.0910   14.8450 N.am  163  ALA163     -0.1966
     93  CA         5.9480   54.3570   15.3980 C.3   163  ALA163      0.1728
     94  C          6.4030   54.3340   16.8550 C.2   163  ALA163      0.2616
     95  O          6.3110   53.2900   17.5260 O.2   163  ALA163     -0.2715
     96  CB         4.4360   54.4520   15.3130 C.3   163  ALA163      0.0334
     97  N          6.9530   55.4570   17.3090 N.am  164  PHE164     -0.1960
     98  CA         7.5090   55.5590   18.6430 C.3   164  PHE164      0.1771
     99  C          6.7310   56.4390   19.5650 C.2   164  PHE164      0.2619
    100  O          6.0940   57.3950   19.1170 O.2   164  PHE164     -0.2715
    101  CB         8.9750   56.0520   18.5730 C.3   164  PHE164      0.0574
    102  CG         9.8930   55.0580   17.8970 C.ar  164  PHE164     -0.0200
    103  CD1       10.4600   54.0110   18.6170 C.ar  164  PHE164     -0.0042
    104  CD2       10.1260   55.1220   16.5250 C.ar  164  PHE164     -0.0042
    105  CE1       11.2530   53.0600   17.9810 C.ar  164  PHE164     -0.0003
    106  CE2       10.9160   54.1680   15.8940 C.ar  164  PHE164     -0.0003
    107  CZ        11.4830   53.1490   16.6280 C.ar  164  PHE164     -0.0000
    108  N          6.8050   56.1200   20.8710 N.am  165  GLU165     -0.1963
    109  CA         6.2800   56.9380   21.9660 C.3   165  GLU165      0.1733
    110  C          7.3920   57.2030   22.9810 C.2   165  GLU165      0.2616
    111  O          8.1870   56.2980   23.2460 O.2   165  GLU165     -0.2715
    112  CB         5.0060   56.3660   22.6390 C.3   165  GLU165      0.0429
    113  CG         5.0360   54.9110   23.0820 C.3   165  GLU165      0.1163
    114  CD         3.7740   54.4520   23.7900 C.2   165  GLU165      0.3649
    115  OE1        2.8360   53.9960   23.0960 O.co2 165  GLU165     -0.2457
    116  OE2        3.7180   54.5500   25.0370 O.co2 165  GLU165     -0.2457
    117  N          7.4630   58.4430   23.5230 N.am  166  ILE166     -0.1963
    118  CA         8.4150   58.8500   24.5840 C.3   166  ILE166      0.1727
    119  C          7.7760   58.5340   25.9580 C.2   166  ILE166      0.2616
    120  O          6.7910   59.1640   26.3160 O.2   166  ILE166     -0.2715
    121  CB         8.9440   60.3340   24.4620 C.3   166  ILE166      0.0290
    122  CG1        7.8230   61.3930   24.4740 C.3   166  ILE166      0.0022
    123  CG2        9.8040   60.5290   23.2200 C.3   166  ILE166      0.0023
    124  CD1        8.1500   62.6720   25.2650 C.3   166  ILE166      0.0001
    125  N          8.2980   57.5290   26.6920 N.am  167  GLN167     -0.1963
    126  CA         7.7670   57.0560   27.9780 C.3   167  GLN167      0.1733
    127  C          8.5060   57.6850   29.1520 C.2   167  GLN167      0.2616
    128  O          9.1210   56.9890   29.9760 O.2   167  GLN167     -0.2715
    129  CB         7.7760   55.5170   28.0430 C.3   167  GLN167      0.0408
    130  CG         6.6170   54.8660   27.2890 C.3   167  GLN167      0.0908
    131  CD         6.6580   53.3530   27.2120 C.2   167  GLN167      0.2608
    132  OE1        5.9180   52.7450   26.4360 O.2   167  GLN167     -0.2717
    133  NE2        7.5020   52.6990   28.0130 N.am  167  GLN167     -0.0878
    134  N          8.4620   59.0290   29.1990 N.am  168  HIS168     -0.1959
    135  CA         9.0700   59.7910   30.2670 C.3   168  HIS168      0.1787
    136  C          8.1550   59.7140   31.4350 C.2   168  HIS168      0.2620
    137  O          6.9500   60.0090   31.3300 O.2   168  HIS168     -0.2715
    138  CB         9.4960   61.2230   29.8720 C.3   168  HIS168      0.0785
    139  CG         8.4020   62.1510   29.4280 C.ar  168  HIS168      0.0821
    140  ND1        8.3850   63.4800   29.8280 N.ar  168  HIS168     -0.2267
    141  CD2        7.3580   61.9380   28.5850 C.ar  168  HIS168      0.1154
    142  CE1        7.3250   64.0200   29.2400 C.ar  168  HIS168      0.1986
    143  NE2        6.6760   63.1320   28.4810 N.ar  168  HIS168     -0.2212
    144  N          8.7150   59.1490   32.5230 N.am  169  SER169     -0.1950
    145  CA         8.0440   58.8950   33.7950 C.3   169  SER169      0.1924
    146  C          7.4550   60.1510   34.3600 C.2   169  SER169      0.2314
    147  O          8.1190   60.9990   34.9770 O.2   169  SER169     -0.2863
    148  CB         8.9500   58.1980   34.7940 C.3   169  SER169      0.2116
    149  OG         8.1760   57.7540   35.8960 O.3   169  SER169     -0.2180
    150  N          3.1390   60.3310   22.5500 N.3   174  GLY174     -0.1210
    151  CA         3.4040   59.6760   21.2720 C.3   174  GLY174      0.1956
    152  C          4.0580   60.6700   20.3300 C.2   174  GLY174      0.2611
    153  O          3.7730   61.8750   20.4160 O.2   174  GLY174     -0.2717
    154  N          4.9430   60.1890   19.4260 N.am  175  ILE175     -0.1979
    155  CA         5.6620   61.0660   18.4940 C.3   175  ILE175      0.1595
    156  C          4.7530   61.6890   17.4330 C.2   175  ILE175      0.2287
    157  O          4.8430   62.9040   17.1930 O.2   175  ILE175     -0.2864
    158  CB         6.9430   60.4280   17.9290 C.3   175  ILE175      0.0276
    159  CG1        8.1560   60.7800   18.7940 C.3   175  ILE175      0.0022
    160  CG2        7.2140   60.8220   16.4740 C.3   175  ILE175      0.0022
    161  CD1        8.6470   59.6580   19.6240 C.3   175  ILE175      0.0001
    162  N         14.7290   62.5160   18.3300 N.3   206  LEU206     -0.1231
    163  CA        14.4930   61.1900   18.9240 C.3   206  LEU206      0.1693
    164  C         14.2030   60.0820   17.8790 C.2   206  LEU206      0.2592
    165  O         14.7010   58.9550   18.0020 O.2   206  LEU206     -0.2718
    166  CB        13.3250   61.2440   19.9280 C.3   206  LEU206      0.0284
    167  CG        13.3300   62.3380   20.9780 C.3   206  LEU206      0.0019
    168  CD1       11.9830   63.0170   21.0420 C.3   206  LEU206      0.0001
    169  CD2       13.6980   61.7860   22.3260 C.3   206  LEU206      0.0001
    170  N         13.4360   60.4160   16.8310 N.am  207  THR207     -0.1953
    171  CA        13.0530   59.4200   15.8300 C.3   207  THR207      0.1897
    172  C         13.7110   59.4100   14.4550 C.2   207  THR207      0.2313
    173  O         13.4920   58.4340   13.7260 O.2   207  THR207     -0.2863
    174  CB        11.5530   59.3850   15.6880 C.3   207  THR207      0.1794
    175  OG1       11.0800   60.7260   15.5450 O.3   207  THR207     -0.2208
    176  CG2       10.8990   58.6930   16.8570 C.3   207  THR207      0.0378
    177  N         14.0890   56.4260   11.8130 N.3   210  ARG210     -0.1245
    178  CA        13.4490   55.2430   12.3990 C.3   210  ARG210      0.1563
    179  C         11.9370   55.2970   12.1540 C.2   210  ARG210      0.2260
    180  O         11.3090   54.2480   11.8950 O.2   210  ARG210     -0.2867
    181  CB        13.7310   55.1530   13.8980 C.3   210  ARG210      0.0307
    182  CG        15.0830   54.6270   14.2390 C.3   210  ARG210      0.0489
    183  CD        15.5010   55.2000   15.5620 C.3   210  ARG210      0.2205
    184  NE        15.1860   54.2820   16.6540 N.pl3 210  ARG210     -0.0865
    185  CZ        14.9010   54.6720   17.8910 C.cat 210  ARG210      0.5346
    186  NH1       14.8670   55.9670   18.1970 N.pl3 210  ARG210      0.1354
    187  NH2       14.6360   53.7750   18.8280 N.pl3 210  ARG210      0.1354
@<TRIPOS>BOND
     1    76    77    2
     2    76    75    1
     3    75    74    1
     4    75    78    1
     5    78    79    1
     6    67    66    1
     7   177   178    1
     8   180   179    2
     9    79    80    1
    10   179   178    1
    11   178   181    1
    12    83    84    1
    13    80    81    1
    14    71    70    2
    15    70    69    1
    16    66    65    1
    17    63    62    2
    18    65    64    1
    19    86    85    2
    20   173   172    2
    21    84    85    1
    22    84    87    1
    23    81    82    1
    24    50    51    2
    25    50    49    1
    26   181   182    1
    27    69    68    1
    28    69    72    1
    29    85    92   am
    30   182   183    1
    31    52    53    1
    32    62    68   am
    33    62    61    1
    34   172   171    1
    35    49    48    1
    36    88    87    1
    37    88    89    1
    38    92    93    1
    39    72    73    1
    40    60    61    1
    41    60    54   am
    42    64    61    1
    43    53    54    1
    44    53    56    1
    45    96    93    1
    46    93    94    1
    47   175   174    1
    48   183   184    1
    49   174   171    1
    50   174   176    1
    51    54    55    2
    52    89    90   ar
    53    89    91   ar
    54   171   170    1
    55   106   104   ar
    56   106   107   ar
    57    48    40   am
    58    56    57    1
    59   160   158    1
    60   104   102   ar
    61   107   105   ar
    62   184   185    2
    63    57    59   ar
    64    57    58   ar
    65   170   164   am
    66    41    40    2
    67    94    97   am
    68    94    95    2
    69    40    39    1
    70   157   156    2
    71    97    98    1
    72   156   155    1
    73   164   165    2
    74   164   163    1
    75   185   186    1
    76   185   187    1
    77   102   101    1
    78   102   103   ar
    79   158   155    1
    80   158   159    1
    81   105   103   ar
    82    29    30    1
    83   162   163    1
    84    39    42    1
    85    39    38    1
    86    37    36    2
    87   155   154    1
    88   101    98    1
    89    98    99    1
    90   159   161    1
    91    30    31    1
    92    30    33    1
    93   163   166    1
    94    42    43    1
    95    36    38   am
    96    36    35    1
    97   100    99    2
    98    34    31   am
    99    34    35    1
   100   154   152   am
   101    99   108   am
   102    31    32    2
   103   166   167    1
   104    44    43   ar
   105    44    46   ar
   106    43    45   ar
   107   152   153    2
   108   152   151    1
   109   108   109    1
   110   167   168    1
   111   167   169    1
   112    28    26   ar
   113   151   150    1
   114    46    47   ar
   115    45    47   ar
   116    26    25    1
   117    26    27   ar
   118    25    22    1
   119   109   112    1
   120   109   110    1
   121    24    23    2
   122     7     6    1
   123    23    22    1
   124   112   113    1
   125    22    21    1
   126   110   111    2
   127   110   117   am
   128   113   114    1
   129   115   114   ar
   130   123   121    1
   131   117   118    1
   132     8     6    1
   133     6     5    1
   134    19    18    1
   135    19    20    1
   136    18    15    1
   137   114   116   ar
   138    15    14    1
   139    15    16    1
   140    17    16    2
   141   121   122    1
   142   121   118    1
   143   122   124    1
   144    13    10    1
   145   118   119    1
   146    14    20    1
   147    14    11   am
   148     5     2    1
   149    12    11    2
   150    11    10    1
   151    10     9    1
   152   119   120    2
   153   119   125   am
   154     2     1    1
   155     2     3    1
   156   132   131    2
   157   125   126    1
   158     3     4    2
   159   131   130    1
   160   131   133   am
   161   130   129    1
   162   126   129    1
   163   126   127    1
   164   143   141   ar
   165   143   142   ar
   166   141   139   ar
   167   127   134   am
   168   127   128    2
   169   134   135    1
   170   142   140   ar
   171   139   140   ar
   172   139   138    1
   173   138   135    1
   174   135   136    1
   175   137   136    2
   176   136   144   am
   177   144   145    1
   178   145   146    1
   179   145   148    1
   180   146   147    2
   181   148   149    1
