@<TRIPOS>MOLECULE
tmp/3v4rB00.pdb
 82 79 0 0 0
SMALL
GASTEIGER

@<TRIPOS>ATOM
      1  N        -38.6230   10.6060  -62.7690 N.3    38  ALA38      -0.1231
      2  CA       -37.9060   11.4780  -61.8240 C.3    38  ALA38       0.1694
      3  C        -36.9120   10.6340  -61.0030 C.2    38  ALA38       0.2593
      4  O        -37.1080    9.4230  -60.8780 O.2    38  ALA38      -0.2718
      5  CB       -38.8910   12.1820  -60.8940 C.3    38  ALA38       0.0304
      6  N        -35.8320   11.2440  -60.4850 N.am   39  THR39      -0.1939
      7  CA       -34.8590   10.4880  -59.6860 C.3    39  THR39       0.2028
      8  C        -35.4590   10.1980  -58.3160 C.2    39  THR39       0.2643
      9  O        -35.8480   11.1290  -57.6080 O.2    39  THR39      -0.2714
     10  CB       -33.4800   11.1790  -59.6180 C.3    39  THR39       0.1808
     11  OG1      -33.5930   12.4680  -58.9830 O.3    39  THR39      -0.2208
     12  CG2      -32.8040   11.2790  -60.9880 C.3    39  THR39       0.0379
     13  N        -35.5780    8.9140  -57.9870 N.am   40  GLY40      -0.1939
     14  CA       -36.1430    8.4560  -56.7220 C.3    40  GLY40       0.2014
     15  C        -37.4040    7.6300  -56.8670 C.2    40  GLY40       0.2640
     16  O        -37.9240    7.1250  -55.8710 O.2    40  GLY40      -0.2714
     17  N        -37.8880    7.4630  -58.1160 N.am   41  THR41      -0.1936
     18  CA       -39.1030    6.7070  -58.4620 C.3    41  THR41       0.2028
     19  C        -38.8920    5.2080  -58.8030 C.2    41  THR41       0.2643
     20  O        -39.8800    4.4920  -58.9810 O.2    41  THR41      -0.2714
     21  CB       -39.8760    7.4210  -59.5790 C.3    41  THR41       0.1808
     22  OG1      -39.1630    7.3110  -60.8120 O.3    41  THR41      -0.2208
     23  CG2      -40.1770    8.8890  -59.2530 C.3    41  THR41       0.0379
     24  N        -37.6370    4.7640  -58.9320 N.am   42  GLY42      -0.1939
     25  CA       -37.3040    3.3790  -59.2580 C.3    42  GLY42       0.2014
     26  C        -37.5320    3.0400  -60.7150 C.2    42  GLY42       0.2639
     27  O        -38.3550    2.1800  -61.0470 O.2    42  GLY42      -0.2714
     28  N        -36.7930    3.7370  -61.5870 N.am   43  LYS43      -0.1963
     29  CA       -36.8130    3.6020  -63.0460 C.3    43  LYS43       0.1728
     30  C        -36.3690    2.1920  -63.5210 C.2    43  LYS43       0.2617
     31  O        -37.0550    1.5970  -64.3620 O.2    43  LYS43      -0.2715
     32  CB       -35.9400    4.6880  -63.6790 C.3    43  LYS43       0.0311
     33  CG       -36.6580    6.0660  -63.4880 C.3    43  LYS43       0.0038
     34  CD       -35.7450    7.2300  -63.9420 C.3    43  LYS43       0.0206
     35  CE       -34.3610    7.0590  -63.4550 C.3    43  LYS43       0.1093
     36  NZ       -33.5530    8.3970  -63.4200 N.3    43  LYS43      -0.1314
     37  N        -35.2530    1.6510  -62.9550 N.am   44  THR44      -0.1937
     38  CA       -34.7080    0.3260  -63.2930 C.3    44  THR44       0.2028
     39  C        -35.7320   -0.7970  -63.0750 C.2    44  THR44       0.2642
     40  O        -35.8920   -1.6380  -63.9560 O.2    44  THR44      -0.2714
     41  CB       -33.3570    0.0960  -62.6110 C.3    44  THR44       0.1808
     42  OG1      -32.4290    1.0420  -63.1320 O.3    44  THR44      -0.2208
     43  CG2      -32.8000   -1.3170  -62.8320 C.3    44  THR44       0.0379
     44  N        -36.4340   -0.8120  -61.9280 N.am   45  PHE45      -0.1973
     45  CA       -37.4650   -1.8160  -61.6890 C.3    45  PHE45       0.1639
     46  C        -38.5990   -1.7320  -62.7350 C.2    45  PHE45       0.2290
     47  O        -39.0050   -2.7780  -63.2360 O.2    45  PHE45      -0.2864
     48  CB       -37.9970   -1.7310  -60.2560 C.3    45  PHE45       0.0560
     49  CG       -39.0590   -2.7550  -59.9110 C.ar   45  PHE45      -0.0200
     50  CD1      -38.8020   -4.1170  -60.0330 C.ar   45  PHE45      -0.0042
     51  CD2      -40.3040   -2.3560  -59.4320 C.ar   45  PHE45      -0.0042
     52  CE1      -39.7850   -5.0580  -59.7180 C.ar   45  PHE45      -0.0003
     53  CE2      -41.2810   -3.3000  -59.1010 C.ar   45  PHE45      -0.0003
     54  CZ       -41.0140   -4.6440  -59.2460 C.ar   45  PHE45      -0.0000
     55  N        -26.1370   -0.1130  -62.9320 N.3    71  LEU71      -0.1245
     56  CA       -27.2390   -0.7380  -63.6600 C.3    71  LEU71       0.1561
     57  C        -27.0730   -2.2500  -63.7560 C.2    71  LEU71       0.2260
     58  O        -28.0500   -2.9760  -63.5810 O.2    71  LEU71      -0.2867
     59  CB       -27.3710   -0.1360  -65.0680 C.3    71  LEU71       0.0270
     60  CG       -28.0110    1.2430  -65.1930 C.3    71  LEU71       0.0019
     61  CD1      -27.9190    1.7380  -66.6190 C.3    71  LEU71       0.0001
     62  CD2      -29.4680    1.2150  -64.7490 C.3    71  LEU71       0.0001
     63  N        -27.8810   -3.6820  -60.3160 N.3    74  GLU74      -0.1245
     64  CA       -29.3350   -3.5820  -60.2180 C.3    74  GLU74       0.1567
     65  C        -30.0460   -4.6750  -61.0480 C.2    74  GLU74       0.2260
     66  O        -30.9470   -5.3220  -60.5150 O.2    74  GLU74      -0.2867
     67  CB       -29.8070   -2.1790  -60.6280 C.3    74  GLU74       0.0388
     68  CG       -29.8020   -1.1790  -59.4670 C.3    74  GLU74       0.1160
     69  CD       -30.0380    0.2630  -59.8070 C.2    74  GLU74       0.3649
     70  OE1      -30.0690    0.5770  -61.0160 O.co2  74  GLU74      -0.2457
     71  OE2      -30.1890    1.0960  -58.9280 O.co2  74  GLU74      -0.2457
     72  N        -33.4550   14.6790  -51.9470 N.3   533  ARG533     -0.1245
     73  CA       -33.2890   13.5230  -51.0280 C.3   533  ARG533      0.1563
     74  C        -33.5350   13.9200  -49.5600 C.2   533  ARG533      0.2260
     75  O        -33.5430   13.0740  -48.6630 O.2   533  ARG533     -0.2867
     76  CB       -31.9350   12.8060  -51.2100 C.3   533  ARG533      0.0307
     77  CG       -32.0660   11.6020  -52.1160 C.3   533  ARG533      0.0489
     78  CD       -30.8480   10.7140  -52.1590 C.3   533  ARG533      0.2205
     79  NE       -31.0080    9.6720  -53.1780 N.pl3 533  ARG533     -0.0865
     80  CZ       -30.0210    8.9130  -53.6500 C.cat 533  ARG533      0.5346
     81  NH1      -28.7780    9.0700  -53.2040 N.pl3 533  ARG533      0.1354
     82  NH2      -30.2680    7.9940  -54.5770 N.pl3 533  ARG533      0.1354
@<TRIPOS>BOND
     1    61    60    1
     2    60    59    1
     3    60    62    1
     4    59    56    1
     5    31    30    2
     6    40    39    2
     7    34    33    1
     8    34    35    1
     9    57    56    1
    10    57    58    2
    11    32    33    1
    12    32    29    1
    13    56    55    1
    14    30    29    1
    15    30    37   am
    16    35    36    1
    17    38    39    1
    18    38    37    1
    19    38    41    1
    20    47    46    2
    21    42    41    1
    22    39    44   am
    23    29    28    1
    24    43    41    1
    25     1     2    1
    26    46    45    1
    27    44    45    1
    28     2     3    1
    29     2     5    1
    30    45    48    1
    31    28    26   am
    32    65    66    2
    33    65    64    1
    34    27    26    2
    35    70    69   ar
    36     3     4    2
    37     3     6   am
    38    12    10    1
    39    22    21    1
    40    26    25    1
    41    67    64    1
    42    67    68    1
    43     6     7    1
    44    63    64    1
    45    48    49    1
    46    50    49   ar
    47    50    52   ar
    48    49    51   ar
    49    69    68    1
    50    69    71   ar
    51    52    54   ar
    52     7    10    1
    53     7     8    1
    54    10    11    1
    55    21    23    1
    56    21    18    1
    57    51    53   ar
    58    25    24    1
    59    54    53   ar
    60    20    19    2
    61    24    19   am
    62    19    18    1
    63    18    17    1
    64     8    13   am
    65     8     9    2
    66    17    15   am
    67    13    14    1
    68    15    14    1
    69    15    16    2
    70    82    80    1
    71    80    81    1
    72    80    79    2
    73    79    78    1
    74    78    77    1
    75    77    76    1
    76    72    73    1
    77    76    73    1
    78    73    74    1
    79    74    75    2
