@<TRIPOS>MOLECULE
tmp/3v4sB00.pdb
 229 218 0 0 0
SMALL
GASTEIGER

@<TRIPOS>ATOM
      1  N         11.2910  -28.9240   37.6950 N.3   108  ARG108     -0.1245
      2  CA        12.7090  -28.5900   37.5450 C.3   108  ARG108      0.1563
      3  C         13.6000  -29.8190   37.5300 C.2   108  ARG108      0.2260
      4  O         14.6080  -29.8470   36.8180 O.2   108  ARG108     -0.2867
      5  CB        13.1850  -27.6450   38.6380 C.3   108  ARG108      0.0307
      6  CG        12.5590  -26.2670   38.6180 C.3   108  ARG108      0.0489
      7  CD        13.3340  -25.3540   39.5530 C.3   108  ARG108      0.2205
      8  NE        12.6680  -24.0670   39.7420 N.pl3 108  ARG108     -0.0865
      9  CZ        12.7920  -23.0320   38.9140 C.cat 108  ARG108      0.5346
     10  NH1       13.5740  -23.1230   37.8380 N.pl3 108  ARG108      0.1354
     11  NH2       12.1410  -21.9020   39.1670 N.pl3 108  ARG108      0.1354
     12  N         23.7190  -26.6890   35.7820 N.3   123  ALA123     -0.1245
     13  CA        24.3040  -26.5760   37.0990 C.3   123  ALA123      0.1562
     14  C         24.0890  -27.9160   37.8260 C.2   123  ALA123      0.2260
     15  O         23.0090  -28.5170   37.7150 O.2   123  ALA123     -0.2867
     16  CB        23.6790  -25.4260   37.8700 C.3   123  ALA123      0.0290
     17  N         21.8990  -22.6510   45.1930 N.3   146  VAL146     -0.1245
     18  CA        20.5750  -22.0810   45.1380 C.3   146  VAL146      0.1561
     19  C         19.5560  -23.1970   45.2610 C.2   146  VAL146      0.2260
     20  O         19.6190  -24.1770   44.5290 O.2   146  VAL146     -0.2867
     21  CB        20.3340  -21.2770   43.8350 C.3   146  VAL146      0.0252
     22  CG1       18.8930  -20.7920   43.7660 C.3   146  VAL146      0.0019
     23  CG2       21.2810  -20.0820   43.7730 C.3   146  VAL146      0.0019
     24  N         15.6420  -24.2670   44.8510 N.3   148  LYS148     -0.1245
     25  CA        14.4860  -23.8750   44.0320 C.3   148  LYS148      0.1561
     26  C         13.4070  -24.9340   44.1810 C.2   148  LYS148      0.2260
     27  O         13.7070  -26.1230   44.0730 O.2   148  LYS148     -0.2867
     28  CB        14.8730  -23.8430   42.5350 C.3   148  LYS148      0.0271
     29  CG        16.0710  -22.9780   42.1470 C.3   148  LYS148      0.0035
     30  CD        16.2440  -22.9570   40.6240 C.3   148  LYS148      0.0206
     31  CE        17.3260  -21.9480   40.2460 C.3   148  LYS148      0.1093
     32  NZ        17.6070  -21.9210   38.7830 N.3   148  LYS148     -0.1314
     33  N          7.3250  -22.2970   40.5800 N.3   153  GLY153     -0.1210
     34  CA         8.2240  -21.1460   40.7130 C.3   153  GLY153      0.1956
     35  C          8.1590  -20.2000   39.5190 C.2   153  GLY153      0.2612
     36  O          8.0940  -20.6400   38.3690 O.2   153  GLY153     -0.2717
     37  N          8.1550  -18.9000   39.8030 N.am  154  TYR154     -0.1962
     38  CA         8.2290  -17.8490   38.7790 C.3   154  TYR154      0.1771
     39  C          8.7140  -16.5950   39.4890 C.2   154  TYR154      0.2620
     40  O          8.4700  -16.4230   40.6920 O.2   154  TYR154     -0.2715
     41  CB         6.8670  -17.5930   38.0920 C.3   154  TYR154      0.0574
     42  CG         5.7950  -17.1140   39.0470 C.ar  154  TYR154     -0.0198
     43  CD1        5.0580  -18.0300   39.8100 C.ar  154  TYR154     -0.0009
     44  CD2        5.5300  -15.7500   39.2100 C.ar  154  TYR154     -0.0009
     45  CE1        4.0900  -17.6060   40.7090 C.ar  154  TYR154      0.0417
     46  CE2        4.5540  -15.3150   40.1060 C.ar  154  TYR154      0.0417
     47  CZ         3.8380  -16.2490   40.8480 C.ar  154  TYR154      0.1957
     48  OH         2.8750  -15.8410   41.7400 O.3   154  TYR154     -0.2866
     49  N          9.4080  -15.7300   38.7520 N.am  155  ASP155     -0.1957
     50  CA         9.9390  -14.4830   39.3140 C.3   155  ASP155      0.1840
     51  C         10.8100  -14.7050   40.5690 C.2   155  ASP155      0.2623
     52  O         10.8700  -13.8500   41.4570 O.2   155  ASP155     -0.2715
     53  CB         8.7940  -13.4930   39.5840 C.3   155  ASP155      0.1450
     54  CG         8.1760  -12.9420   38.2960 C.2   155  ASP155      0.3671
     55  OD1        8.7440  -13.1480   37.1960 O.co2 155  ASP155     -0.2456
     56  OD2        7.1210  -12.2950   38.3840 O.co2 155  ASP155     -0.2456
     57  N         11.4870  -15.8550   40.6170 N.am  156  GLY156     -0.1940
     58  CA        12.3170  -16.2420   41.7700 C.3   156  GLY156      0.2014
     59  C         11.5740  -16.5730   43.0600 C.2   156  GLY156      0.2638
     60  O         12.2010  -16.7220   44.1190 O.2   156  GLY156     -0.2714
     61  N         10.2470  -16.6810   42.9920 N.am  157  LYS157     -0.1977
     62  CA         9.4550  -17.1190   44.1500 C.3   157  LYS157      0.1596
     63  C          9.7100  -18.6030   44.3870 C.2   157  LYS157      0.2287
     64  O          9.7440  -19.3900   43.4360 O.2   157  LYS157     -0.2864
     65  CB         7.9620  -16.8690   43.9370 C.3   157  LYS157      0.0298
     66  CG         7.5610  -15.4040   43.9900 C.3   157  LYS157      0.0038
     67  CD         6.0660  -15.2630   43.7400 C.3   157  LYS157      0.0206
     68  CE         5.6680  -13.8260   43.4360 C.3   157  LYS157      0.1093
     69  NZ         5.9340  -12.8990   44.5740 N.3   157  LYS157     -0.1314
     70  N         12.6250  -19.5560   45.8910 N.3   159  GLN159     -0.1245
     71  CA        14.0730  -19.6740   45.7540 C.3   159  GLN159      0.1566
     72  C         14.8080  -19.0900   46.9350 C.2   159  GLN159      0.2260
     73  O         14.4030  -18.0740   47.4840 O.2   159  GLN159     -0.2867
     74  CB        14.5700  -18.9900   44.4890 C.3   159  GLN159      0.0367
     75  CG        14.2030  -19.7560   43.2420 C.3   159  GLN159      0.0905
     76  CD        15.0310  -19.3920   42.0260 C.2   159  GLN159      0.2608
     77  OE1       16.0710  -18.7040   42.1150 O.2   159  GLN159     -0.2717
     78  NE2       14.5760  -19.8670   40.8620 N.am  159  GLN159     -0.0878
     79  N         18.9620  -18.3020   47.8550 N.3   161  VAL161     -0.1245
     80  CA        20.3590  -18.3490   47.4690 C.3   161  VAL161      0.1561
     81  C         21.1830  -18.6000   48.7360 C.2   161  VAL161      0.2260
     82  O         21.0740  -17.8590   49.7160 O.2   161  VAL161     -0.2867
     83  CB        20.7820  -17.0470   46.7620 C.3   161  VAL161      0.0252
     84  CG1       22.2810  -17.0510   46.4880 C.3   161  VAL161      0.0019
     85  CG2       19.9930  -16.8790   45.4650 C.3   161  VAL161      0.0019
     86  N         20.9770  -26.6080   43.5770 N.3   183  GLU183     -0.1231
     87  CA        21.9380  -26.6060   42.4860 C.3   183  GLU183      0.1699
     88  C         23.0610  -25.6170   42.7470 C.2   183  GLU183      0.2592
     89  O         22.8710  -24.5950   43.4260 O.2   183  GLU183     -0.2718
     90  CB        21.2480  -26.3130   41.1460 C.3   183  GLU183      0.0402
     91  CG        20.6930  -24.9000   41.0330 C.3   183  GLU183      0.1161
     92  CD        20.0500  -24.6200   39.6740 C.2   183  GLU183      0.3649
     93  OE1       19.5080  -25.5520   39.0390 O.co2 183  GLU183     -0.2457
     94  OE2       20.0720  -23.4470   39.2730 O.co2 183  GLU183     -0.2457
     95  N         24.2370  -25.9340   42.2120 N.am  184  LYS184     -0.1966
     96  CA        25.3890  -25.0420   42.3200 C.3   184  LYS184      0.1728
     97  C         25.1110  -23.6750   41.7000 C.2   184  LYS184      0.2616
     98  O         24.4190  -23.5690   40.6750 O.2   184  LYS184     -0.2715
     99  CB        26.6100  -25.6720   41.6570 C.3   184  LYS184      0.0311
    100  CG        27.2130  -26.8000   42.4730 C.3   184  LYS184      0.0038
    101  CD        28.4700  -27.3540   41.8190 C.3   184  LYS184      0.0206
    102  CE        29.0460  -28.5140   42.6260 C.3   184  LYS184      0.1093
    103  NZ        30.1600  -29.1870   41.8930 N.3   184  LYS184     -0.1314
    104  N         25.6190  -22.6410   42.3560 N.am  185  TRP185     -0.1960
    105  CA        25.6720  -21.2990   41.8020 C.3   185  TRP185      0.1771
    106  C         26.5500  -21.2870   40.5720 C.2   185  TRP185      0.2619
    107  O         27.6150  -21.9160   40.5480 O.2   185  TRP185     -0.2715
    108  CB        26.2290  -20.3550   42.8420 C.3   185  TRP185      0.0590
    109  CG        26.3230  -18.9240   42.3890 C.ar  185  TRP185      0.0006
    110  CD1       27.4320  -18.2710   41.8580 C.ar  185  TRP185      0.0946
    111  CD2       25.2610  -17.9120   42.4210 C.ar  185  TRP185      0.0152
    112  NE1       27.1340  -16.9600   41.5650 N.ar  185  TRP185     -0.2442
    113  CE2       25.8480  -16.6810   41.8800 C.ar  185  TRP185      0.0810
    114  CE3       23.9350  -17.9040   42.8230 C.ar  185  TRP185      0.0012
    115  CZ2       25.1180  -15.5100   41.7640 C.ar  185  TRP185      0.0191
    116  CZ3       23.2070  -16.7190   42.6980 C.ar  185  TRP185      0.0001
    117  CH2       23.7860  -15.5510   42.1820 C.ar  185  TRP185      0.0015
    118  N         26.0940  -20.6070   39.5250 N.am  186  VAL186     -0.1977
    119  CA        26.8830  -20.4700   38.3060 C.3   186  VAL186      0.1596
    120  C         27.3580  -19.0190   38.2300 C.2   186  VAL186      0.2287
    121  O         26.5360  -18.0990   38.1920 O.2   186  VAL186     -0.2864
    122  CB        26.0920  -20.8810   37.0490 C.3   186  VAL186      0.0276
    123  CG1       26.9390  -20.6910   35.7980 C.3   186  VAL186      0.0022
    124  CG2       25.6320  -22.3260   37.1550 C.3   186  VAL186      0.0022
    125  N         28.1200  -16.8300   36.0900 N.3   188  PHE188     -0.1241
    126  CA        28.0500  -16.4040   34.6880 C.3   188  PHE188      0.1605
    127  C         28.4810  -14.9490   34.4440 C.2   188  PHE188      0.2264
    128  O         28.4510  -14.1140   35.3530 O.2   188  PHE188     -0.2867
    129  CB        26.6360  -16.6320   34.1360 C.3   188  PHE188      0.0534
    130  CG        25.5520  -15.8990   34.8920 C.ar  188  PHE188     -0.0203
    131  CD1       24.7440  -16.5740   35.8050 C.ar  188  PHE188     -0.0042
    132  CD2       25.3350  -14.5350   34.6950 C.ar  188  PHE188     -0.0042
    133  CE1       23.7360  -15.9090   36.4890 C.ar  188  PHE188     -0.0003
    134  CE2       24.3400  -13.8640   35.3860 C.ar  188  PHE188     -0.0003
    135  CZ        23.5330  -14.5570   36.2840 C.ar  188  PHE188     -0.0000
    136  N         23.5140  -13.5620   31.2340 N.3   191  GLU191     -0.1245
    137  CA        22.3950  -14.4710   30.9730 C.3   191  GLU191      0.1567
    138  C         21.8920  -14.2110   29.5670 C.2   191  GLU191      0.2260
    139  O         21.7500  -13.0610   29.1610 O.2   191  GLU191     -0.2867
    140  CB        21.2290  -14.1910   31.9130 C.3   191  GLU191      0.0388
    141  CG        21.5420  -14.3430   33.3790 C.3   191  GLU191      0.1160
    142  CD        20.2790  -14.3600   34.1980 C.2   191  GLU191      0.3649
    143  OE1       20.0800  -13.4050   34.9760 O.co2 191  GLU191     -0.2457
    144  OE2       19.4850  -15.3110   34.0390 O.co2 191  GLU191     -0.2457
    145  N         17.9730   -9.3200   34.7360 N.3   214  HIS214     -0.1241
    146  CA        16.9330   -9.5460   35.7250 C.3   214  HIS214      0.1621
    147  C         17.1910   -8.6540   36.9040 C.2   214  HIS214      0.2264
    148  O         18.3460   -8.3570   37.2130 O.2   214  HIS214     -0.2867
    149  CB        16.9520  -11.0070   36.1600 C.3   214  HIS214      0.0745
    150  CG        16.5160  -11.9680   35.0880 C.ar  214  HIS214      0.0817
    151  ND1       17.3870  -12.5940   34.2810 N.ar  214  HIS214     -0.2268
    152  CD2       15.2480  -12.3940   34.7030 C.ar  214  HIS214      0.1154
    153  CE1       16.7170  -13.4000   33.4330 C.ar  214  HIS214      0.1986
    154  NE2       15.4090  -13.2730   33.6900 N.ar  214  HIS214     -0.2212
    155  N         14.8580  -10.9140   40.5220 N.3   217  ASN217     -0.1240
    156  CA        14.4550  -12.1460   39.8030 C.3   217  ASN217      0.1653
    157  C         13.3360  -12.0030   38.7630 C.2   217  ASN217      0.2266
    158  O         12.7500  -13.0100   38.3360 O.2   217  ASN217     -0.2867
    159  CB        14.0900  -13.2620   40.7900 C.3   217  ASN217      0.1155
    160  CG        15.2740  -13.7140   41.6140 C.2   217  ASN217      0.2627
    161  OD1       15.1720  -13.8700   42.8370 O.2   217  ASN217     -0.2716
    162  ND2       16.4150  -13.9030   40.9550 N.am  217  ASN217     -0.0877
    163  N         16.5760  -20.4900   28.4540 N.3   256  GLU256     -0.1245
    164  CA        17.3790  -19.5630   29.2490 C.3   256  GLU256      0.1567
    165  C         18.7380  -20.1830   29.5620 C.2   256  GLU256      0.2260
    166  O         18.8170  -21.3580   29.9480 O.2   256  GLU256     -0.2867
    167  CB        16.7000  -19.2400   30.5780 C.3   256  GLU256      0.0388
    168  CG        15.3630  -18.5350   30.4790 C.3   256  GLU256      0.1160
    169  CD        14.8180  -18.1560   31.8500 C.2   256  GLU256      0.3649
    170  OE1       15.5310  -18.2820   32.8860 O.co2 256  GLU256     -0.2457
    171  OE2       13.6660  -17.7300   31.9110 O.co2 256  GLU256     -0.2457
    172  N         23.1120  -19.5190   30.9130 N.3   258  PHE258     -0.1241
    173  CA        24.1100  -18.7810   31.6560 C.3   258  PHE258      0.1605
    174  C         25.4020  -18.8600   30.8620 C.2   258  PHE258      0.2264
    175  O         25.8310  -19.9540   30.4990 O.2   258  PHE258     -0.2867
    176  CB        24.3290  -19.3830   33.0500 C.3   258  PHE258      0.0534
    177  CG        23.1400  -19.2700   33.9810 C.ar  258  PHE258     -0.0203
    178  CD1       22.8770  -20.2770   34.9040 C.ar  258  PHE258     -0.0042
    179  CD2       22.2960  -18.1590   33.9540 C.ar  258  PHE258     -0.0042
    180  CE1       21.7920  -20.1850   35.7760 C.ar  258  PHE258     -0.0003
    181  CE2       21.2100  -18.0650   34.8220 C.ar  258  PHE258     -0.0003
    182  CZ        20.9620  -19.0830   35.7350 C.ar  258  PHE258     -0.0000
    183  N         19.7040  -22.9940   32.0380 N.3   268  ASN268     -0.1225
    184  CA        19.0590  -22.6640   33.3130 C.3   268  ASN268      0.1785
    185  C         17.6660  -23.2750   33.3980 C.2   268  ASN268      0.2597
    186  O         17.3370  -23.9540   34.3890 O.2   268  ASN268     -0.2718
    187  CB        19.0120  -21.1450   33.5440 C.3   268  ASN268      0.1169
    188  CG        18.2240  -20.7560   34.7990 C.2   268  ASN268      0.2627
    189  OD1       18.4590  -21.2770   35.8840 O.2   268  ASN268     -0.2716
    190  ND2       17.3180  -19.8010   34.6550 N.am  268  ASN268     -0.0877
    191  N         16.8470  -23.0220   32.3720 N.am  269  GLU269     -0.1979
    192  CA        15.4940  -23.5610   32.3110 C.3   269  GLU269      0.1602
    193  C         14.8390  -23.3580   30.9550 C.2   269  GLU269      0.2287
    194  O         15.2810  -22.5460   30.1400 O.2   269  GLU269     -0.2864
    195  CB        14.6000  -22.9860   33.4340 C.3   269  GLU269      0.0415
    196  CG        14.2400  -21.5230   33.2750 C.3   269  GLU269      0.1163
    197  CD        13.2580  -21.0240   34.3300 C.2   269  GLU269      0.3649
    198  OE1       13.0300  -19.7860   34.3750 O.co2 269  GLU269     -0.2457
    199  OE2       12.6940  -21.8510   35.0970 O.co2 269  GLU269     -0.2457
    200  N          6.6310  -22.1780   25.4340 N.3   273  ARG273     -0.1245
    201  CA         5.6920  -21.1290   25.0540 C.3   273  ARG273      0.1563
    202  C          6.5000  -19.8750   24.6930 C.2   273  ARG273      0.2260
    203  O          7.6950  -19.7710   25.0630 O.2   273  ARG273     -0.2867
    204  CB         4.7630  -20.8090   26.2360 C.3   273  ARG273      0.0307
    205  CG         5.5310  -20.5510   27.5350 C.3   273  ARG273      0.0489
    206  CD         4.7560  -19.7990   28.6100 C.3   273  ARG273      0.2205
    207  NE         5.5500  -19.6840   29.8290 N.pl3 273  ARG273     -0.0865
    208  CZ         6.4520  -18.7320   30.0630 C.cat 273  ARG273      0.5346
    209  NH1        6.6910  -17.7740   29.1610 N.pl3 273  ARG273      0.1354
    210  NH2        7.1260  -18.7400   31.2010 N.pl3 273  ARG273      0.1354
    211  N          7.9660  -16.3390   25.3500 N.3   275  HIS275     -0.1241
    212  CA         8.6130  -15.9960   26.5950 C.3   275  HIS275      0.1621
    213  C          8.8330  -14.5160   26.5990 C.2   275  HIS275      0.2264
    214  O          9.0230  -13.9180   25.5380 O.2   275  HIS275     -0.2867
    215  CB         9.9560  -16.7090   26.6290 C.3   275  HIS275      0.0745
    216  CG        10.6560  -16.6660   27.9620 C.ar  275  HIS275      0.0817
    217  ND1       11.6440  -15.8020   28.2250 N.ar  275  HIS275     -0.2268
    218  CD2       10.5180  -17.4650   29.1010 C.ar  275  HIS275      0.1154
    219  CE1       12.0970  -16.0010   29.4800 C.ar  275  HIS275      0.1986
    220  NE2       11.4180  -17.0260   30.0080 N.ar  275  HIS275     -0.2212
    221  N          3.3200   -7.9140   35.5200 N.3   349  LYS349     -0.1245
    222  CA         3.7260   -7.4820   34.1770 C.3   349  LYS349      0.1561
    223  C          2.5160   -6.8820   33.4700 C.2   349  LYS349      0.2260
    224  O          1.5600   -7.5840   33.1830 O.2   349  LYS349     -0.2867
    225  CB         4.2980   -8.6610   33.3870 C.3   349  LYS349      0.0271
    226  CG         5.5950   -9.1980   33.9720 C.3   349  LYS349      0.0035
    227  CD         6.0750  -10.4650   33.2860 C.3   349  LYS349      0.0206
    228  CE         7.3670  -10.9680   33.9520 C.3   349  LYS349      0.1093
    229  NZ         7.9270  -12.1540   33.2450 N.3   349  LYS349     -0.1314
@<TRIPOS>BOND
     1   202   201    1
     2   202   203    2
     3   201   200    1
     4   201   204    1
     5   211   212    1
     6   214   213    2
     7   204   205    1
     8   212   213    1
     9   212   215    1
    10   215   216    1
    11   205   206    1
    12   216   217   ar
    13   216   218   ar
    14   217   219   ar
    15   163   164    1
    16   206   207    1
    17   218   220   ar
    18   209   208    1
    19   139   138    2
    20   164   165    1
    21   164   167    1
    22   219   220   ar
    23   165   166    2
    24   138   137    1
    25   207   208    2
    26   208   210    1
    27   194   193    2
    28   168   167    1
    29   168   169    1
    30   175   174    2
    31   174   173    1
    32   172   173    1
    33   193   192    1
    34   137   136    1
    35   137   140    1
    36   173   176    1
    37   169   171   ar
    38   169   170   ar
    39   140   141    1
    40   183   184    1
    41   192   191    1
    42   192   195    1
    43   191   185   am
    44   176   177    1
    45   224   223    2
    46   229   228    1
    47   196   195    1
    48   196   197    1
    49   227   228    1
    50   227   226    1
    51   184   185    1
    52   184   187    1
    53   141   142    1
    54   225   226    1
    55   225   222    1
    56   185   186    2
    57   153   154   ar
    58   153   151   ar
    59   223   222    1
    60   187   188    1
    61   154   152   ar
    62   179   177   ar
    63   179   181   ar
    64   177   178   ar
    65   144   142   ar
    66   129   126    1
    67   129   130    1
    68   222   221    1
    69   142   143   ar
    70   151   150   ar
    71   197   198   ar
    72   197   199   ar
    73   127   126    1
    74   127   128    2
    75   190   188   am
    76   126   125    1
    77   132   130   ar
    78   132   134   ar
    79   152   150   ar
    80   145   146    1
    81   188   189    2
    82   181   182   ar
    83   130   131   ar
    84   178   180   ar
    85   150   149    1
    86   134   135   ar
    87   146   149    1
    88   146   147    1
    89   182   180   ar
    90    12    13    1
    91   123   122    1
    92   131   133   ar
    93   135   133   ar
    94     4     3    2
    95   147   148    2
    96   122   124    1
    97   122   119    1
    98    13    14    1
    99    13    16    1
   100    55    54   ar
   101     3     2    1
   102     2     1    1
   103     2     5    1
   104    15    14    2
   105    10     9    1
   106    41    38    1
   107    41    42    1
   108   121   120    2
   109   120   119    1
   110    54    56   ar
   111    54    53    1
   112   119   118    1
   113   158   157    2
   114    36    35    2
   115     6     5    1
   116     6     7    1
   117    49    50    1
   118    49    39   am
   119   157   156    1
   120    38    39    1
   121    38    37    1
   122    32    31    1
   123     9    11    1
   124     9     8    2
   125    93    92   ar
   126    42    44   ar
   127    42    43   ar
   128    44    46   ar
   129    94    92   ar
   130    50    53    1
   131    50    51    1
   132    39    40    2
   133    35    37   am
   134    35    34    1
   135   118   106   am
   136     7     8    1
   137    92    91    1
   138   156   155    1
   139   156   159    1
   140    43    45   ar
   141    46    47   ar
   142    31    30    1
   143   107   106    2
   144    51    57   am
   145    51    52    2
   146   106   105    1
   147    33    34    1
   148    57    58    1
   149    30    29    1
   150    98    97    2
   151    45    47   ar
   152   159   160    1
   153    47    48    1
   154    78    76   am
   155   162   160   am
   156    91    90    1
   157    90    87    1
   158   112   110   ar
   159   112   113   ar
   160   160   161    2
   161    99    96    1
   162    99   100    1
   163    97    96    1
   164    97   104   am
   165   115   113   ar
   166   115   117   ar
   167    58    59    1
   168   105   104    1
   169   105   108    1
   170   101   100    1
   171   101   102    1
   172   110   109   ar
   173   113   111   ar
   174   103   102    1
   175    76    77    2
   176    76    75    1
   177    29    28    1
   178   117   116   ar
   179    95    96    1
   180    95    88   am
   181   109   111   ar
   182   109   108    1
   183   111   114   ar
   184    87    88    1
   185    87    86    1
   186    28    25    1
   187   116   114   ar
   188    88    89    2
   189    61    59   am
   190    61    62    1
   191    59    60    2
   192    75    74    1
   193    64    63    2
   194    68    67    1
   195    68    69    1
   196    67    66    1
   197    22    21    1
   198    23    21    1
   199    21    18    1
   200    65    66    1
   201    65    62    1
   202    25    26    1
   203    25    24    1
   204    27    26    2
   205    62    63    1
   206    74    71    1
   207    20    19    2
   208    18    17    1
   209    18    19    1
   210    85    83    1
   211    71    70    1
   212    71    72    1
   213    84    83    1
   214    83    80    1
   215    72    73    2
   216    80    79    1
   217    80    81    1
   218    81    82    2
