@<TRIPOS>MOLECULE
tmp/3v4uA00.pdb
 110 110 0 0 0
SMALL
GASTEIGER

@<TRIPOS>ATOM
      1  N         19.3160  -16.6020   30.0200 N.3    32  TYR32      -0.1227
      2  CA        20.2960  -15.6940   29.4160 C.3    32  TYR32       0.1736
      3  C         20.0790  -14.2590   29.8610 C.2    32  TYR32       0.2595
      4  O         18.9360  -13.7920   29.9360 O.2    32  TYR32      -0.2718
      5  CB        20.2030  -15.7300   27.8890 C.3    32  TYR32       0.0548
      6  CG        20.7350  -16.9930   27.2650 C.ar   32  TYR32      -0.0200
      7  CD1       22.0910  -17.1480   27.0140 C.ar   32  TYR32      -0.0009
      8  CD2       19.8800  -18.0350   26.9210 C.ar   32  TYR32      -0.0009
      9  CE1       22.5830  -18.3100   26.4410 C.ar   32  TYR32       0.0417
     10  CE2       20.3620  -19.1980   26.3480 C.ar   32  TYR32       0.0417
     11  CZ        21.7130  -19.3320   26.1110 C.ar   32  TYR32       0.1957
     12  OH        22.1930  -20.4910   25.5400 O.3    32  TYR32      -0.2866
     13  N         21.1740  -13.5670   30.1660 N.am   33  TYR33      -0.1976
     14  CA        21.1580  -12.1070   30.2250 C.3    33  TYR33       0.1639
     15  C         20.7160  -11.5810   28.8550 C.2    33  TYR33       0.2290
     16  O         20.9120  -12.2610   27.8470 O.2    33  TYR33      -0.2864
     17  CB        22.5510  -11.5730   30.5280 C.3    33  TYR33       0.0560
     18  CG        22.9470  -11.5400   31.9920 C.ar   33  TYR33      -0.0198
     19  CD1       23.4770  -10.3840   32.5630 C.ar   33  TYR33      -0.0009
     20  CD2       22.8130  -12.6650   32.8020 C.ar   33  TYR33      -0.0009
     21  CE1       23.8610  -10.3430   33.8960 C.ar   33  TYR33       0.0417
     22  CE2       23.1900  -12.6320   34.1470 C.ar   33  TYR33       0.0417
     23  CZ        23.7110  -11.4710   34.6850 C.ar   33  TYR33       0.1957
     24  OH        24.0930  -11.4290   36.0110 O.3    33  TYR33      -0.2866
     25  N         26.6130    0.6160   23.8640 N.3    47  TRP47      -0.1241
     26  CA        25.8860   -0.3130   24.7030 C.3    47  TRP47       0.1605
     27  C         24.8850    0.5180   25.5160 C.2    47  TRP47       0.2264
     28  O         25.2600    1.5140   26.1330 O.2    47  TRP47      -0.2867
     29  CB        26.9000   -1.0030   25.6030 C.3    47  TRP47       0.0550
     30  CG        26.4710   -2.2850   26.2790 C.ar   47  TRP47       0.0003
     31  CD1       25.5830   -2.4260   27.3030 C.ar   47  TRP47       0.0946
     32  CD2       27.0040   -3.5860   26.0200 C.ar   47  TRP47       0.0152
     33  NE1       25.5060   -3.7520   27.6790 N.ar   47  TRP47      -0.2442
     34  CE2       26.3700   -4.4810   26.9030 C.ar   47  TRP47       0.0810
     35  CE3       27.9510   -4.0810   25.1220 C.ar   47  TRP47       0.0012
     36  CZ2       26.6460   -5.8530   26.8980 C.ar   47  TRP47       0.0191
     37  CZ3       28.2300   -5.4420   25.1210 C.ar   47  TRP47       0.0001
     38  CH2       27.5860   -6.3060   26.0070 C.ar   47  TRP47       0.0015
     39  N         21.6200   -3.6500   29.9350 N.3    50  ASN50      -0.1240
     40  CA        21.4480   -5.0970   30.0010 C.3    50  ASN50       0.1653
     41  C         20.7690   -5.5190   31.2820 C.2    50  ASN50       0.2266
     42  O         20.6290   -4.7330   32.2250 O.2    50  ASN50      -0.2867
     43  CB        22.7370   -5.9090   29.8080 C.3    50  ASN50       0.1155
     44  CG        23.8560   -5.4810   30.7380 C.2    50  ASN50       0.2627
     45  OD1       24.7350   -4.7250   30.3460 O.2    50  ASN50      -0.2716
     46  ND2       23.8390   -5.9790   31.9770 N.am   50  ASN50      -0.0877
     47  N         19.1460  -12.6320   34.5680 N.3    53  TYR53      -0.1241
     48  CA        18.1920  -13.7020   34.2980 C.3    53  TYR53       0.1605
     49  C         16.7390  -13.3700   34.6560 C.2    53  TYR53       0.2264
     50  O         15.8120  -13.6870   33.9000 O.2    53  TYR53      -0.2867
     51  CB        18.6380  -14.9750   35.0300 C.3    53  TYR53       0.0534
     52  CG        19.9900  -15.5000   34.5780 C.ar   53  TYR53      -0.0201
     53  CD1       20.1660  -15.9800   33.2890 C.ar   53  TYR53      -0.0009
     54  CD2       21.0820  -15.5260   35.4430 C.ar   53  TYR53      -0.0009
     55  CE1       21.3980  -16.4620   32.8620 C.ar   53  TYR53       0.0417
     56  CE2       22.3200  -16.0100   35.0260 C.ar   53  TYR53       0.0417
     57  CZ        22.4650  -16.4770   33.7320 C.ar   53  TYR53       0.1957
     58  OH        23.6730  -16.9620   33.2850 O.3    53  TYR53      -0.2866
     59  N         18.6790   -7.3150   38.4150 N.3    57  SER57      -0.1202
     60  CA        19.8580   -6.4810   38.2960 C.3    57  SER57       0.2020
     61  C         20.0310   -6.0110   36.8560 C.2    57  SER57       0.2619
     62  O         20.0240   -6.8210   35.9270 O.2    57  SER57      -0.2717
     63  CB        21.0960   -7.2630   38.7260 C.3    57  SER57       0.2103
     64  OG        22.2480   -6.4450   38.6880 O.3    57  SER57      -0.2182
     65  N         20.1940   -4.7030   36.6930 N.am   58  THR58      -0.1938
     66  CA        20.3060   -4.0950   35.3680 C.3    58  THR58       0.2028
     67  C         21.5200   -3.1790   35.2940 C.2    58  THR58       0.2642
     68  O         22.0280   -2.7070   36.3180 O.2    58  THR58      -0.2714
     69  CB        19.0510   -3.2820   35.0400 C.3    58  THR58       0.1808
     70  OG1       18.7430   -2.4130   36.1370 O.3    58  THR58      -0.2208
     71  CG2       17.8500   -4.1920   34.7810 C.3    58  THR58       0.0379
     72  N         22.0000   -2.9370   34.0730 N.am   59  TYR59      -0.1973
     73  CA        23.0470   -1.9510   33.8280 C.3    59  TYR59       0.1639
     74  C         22.5280   -1.0000   32.7590 C.2    59  TYR59       0.2290
     75  O         21.8160   -1.4250   31.8460 O.2    59  TYR59      -0.2864
     76  CB        24.3560   -2.5990   33.3110 C.3    59  TYR59       0.0560
     77  CG        25.2400   -1.5970   32.6250 C.ar   59  TYR59      -0.0198
     78  CD1       26.0800   -0.7750   33.3610 C.ar   59  TYR59      -0.0009
     79  CD2       25.2160   -1.4450   31.2300 C.ar   59  TYR59      -0.0009
     80  CE1       26.8690    0.1600   32.7490 C.ar   59  TYR59       0.0417
     81  CE2       26.0040   -0.5020   30.6010 C.ar   59  TYR59       0.0417
     82  CZ        26.8420    0.2950   31.3670 C.ar   59  TYR59       0.1957
     83  OH        27.6260    1.2550   30.7790 O.3    59  TYR59      -0.2866
     84  N         23.1090  -11.9510   25.6550 N.3    99  LEU99      -0.1231
     85  CA        24.4150  -11.7610   26.2830 C.3    99  LEU99       0.1693
     86  C         24.8810  -13.0100   27.0220 C.2    99  LEU99       0.2593
     87  O         24.2130  -13.4660   27.9550 O.2    99  LEU99      -0.2718
     88  CB        24.3500  -10.5670   27.2400 C.3    99  LEU99       0.0284
     89  CG        25.5050  -10.2080   28.1860 C.3    99  LEU99       0.0019
     90  CD1       26.8010   -9.8900   27.4120 C.3    99  LEU99       0.0001
     91  CD2       25.1060   -9.0360   29.0610 C.3    99  LEU99       0.0001
     92  N         26.0370  -13.5270   26.6060 N.am  100  THR100     -0.1939
     93  CA        26.6880  -14.6610   27.2610 C.3   100  THR100      0.2028
     94  C         28.1550  -14.3320   27.5200 C.2   100  THR100      0.2642
     95  O         28.8890  -13.9870   26.5850 O.2   100  THR100     -0.2714
     96  CB        26.6290  -15.9040   26.3620 C.3   100  THR100      0.1808
     97  OG1       25.2640  -16.2060   26.0740 O.3   100  THR100     -0.2208
     98  CG2       27.2550  -17.0980   27.0530 C.3   100  THR100      0.0379
     99  N         28.5700  -14.4300   28.7800 N.am  101  ASN101     -0.1957
    100  CA        29.9730  -14.2190   29.1610 C.3   101  ASN101      0.1819
    101  C         30.6330  -12.9840   28.5350 C.2   101  ASN101      0.2621
    102  O         31.7710  -13.0460   28.0790 O.2   101  ASN101     -0.2715
    103  CB        30.8030  -15.4740   28.8590 C.3   101  ASN101      0.1195
    104  CG        30.2840  -16.7070   29.5860 C.2   101  ASN101      0.2630
    105  OD1       29.8090  -16.6240   30.7240 O.2   101  ASN101     -0.2716
    106  ND2       30.3820  -17.8580   28.9350 N.am  101  ASN101     -0.0877
    107  N         29.9120  -11.8690   28.5160 N.am  102  GLY102     -0.1954
    108  CA        30.4530  -10.5930   28.0550 C.3   102  GLY102      0.1869
    109  C         30.2770  -10.3300   26.5760 C.2   102  GLY102      0.2309
    110  O         30.5430   -9.2170   26.0800 O.2   102  GLY102     -0.2863
@<TRIPOS>BOND
     1    25    26    1
     2    26    27    1
     3    26    29    1
     4    37    35   ar
     5    37    38   ar
     6    35    32   ar
     7    27    28    2
     8    12    11    1
     9    29    30    1
    10    84    85    1
    11    38    36   ar
    12    32    30   ar
    13    32    34   ar
    14    97    96    1
    15   110   109    2
    16    11    10   ar
    17    11     9   ar
    18    30    31   ar
    19    85    86    1
    20    85    88    1
    21    10     8   ar
    22    96    98    1
    23    96    93    1
    24     9     7   ar
    25   109   108    1
    26    95    94    2
    27    92    86   am
    28    92    93    1
    29    36    34   ar
    30    34    33   ar
    31     8     6   ar
    32     7     6   ar
    33    86    87    2
    34    88    89    1
    35    93    94    1
    36     6     5    1
    37    31    33   ar
    38    90    89    1
    39    94    99   am
    40    16    15    2
    41     5     2    1
    42   108   107    1
    43   102   101    2
    44    89    91    1
    45   107   101   am
    46   101   100    1
    47    99   100    1
    48    15    14    1
    49   103   100    1
    50   103   104    1
    51   106   104   am
    52     2     3    1
    53     2     1    1
    54   104   105    2
    55    43    40    1
    56    43    44    1
    57     3     4    2
    58     3    13   am
    59    39    40    1
    60    40    41    1
    61    13    14    1
    62    14    17    1
    63    45    44    2
    64    17    18    1
    65    81    79   ar
    66    81    82   ar
    67    44    46   am
    68    83    82    1
    69    79    77   ar
    70    41    42    2
    71    82    80   ar
    72    75    74    2
    73    18    19   ar
    74    18    20   ar
    75    19    21   ar
    76    77    76    1
    77    77    78   ar
    78    80    78   ar
    79    74    73    1
    80    20    22   ar
    81    55    53   ar
    82    55    57   ar
    83    58    57    1
    84    53    52   ar
    85    76    73    1
    86    57    56   ar
    87    73    72    1
    88    21    23   ar
    89    50    49    2
    90    72    67   am
    91    22    23   ar
    92    48    47    1
    93    48    49    1
    94    48    51    1
    95    52    51    1
    96    52    54   ar
    97    23    24    1
    98    71    69    1
    99    56    54   ar
   100    69    66    1
   101    69    70    1
   102    67    66    1
   103    67    68    2
   104    66    65    1
   105    62    61    2
   106    65    61   am
   107    61    60    1
   108    60    59    1
   109    60    63    1
   110    64    63    1
