@<TRIPOS>MOLECULE
tmp/3v4xA00.pdb
 162 154 0 0 0
SMALL
GASTEIGER

@<TRIPOS>ATOM
      1  N         40.9270    2.3910   27.2380 N.3    41  ILE41      -0.1245
      2  CA        40.3770    1.9220   25.9740 C.3    41  ILE41       0.1561
      3  C         40.8600    0.4980   25.7180 C.2    41  ILE41       0.2260
      4  O         40.1160   -0.3390   25.2070 O.2    41  ILE41      -0.2867
      5  CB        40.8070    2.8280   24.8050 C.3    41  ILE41       0.0252
      6  CG1       40.3610    4.2700   25.0570 C.3    41  ILE41       0.0019
      7  CG2       40.2340    2.3130   23.4900 C.3    41  ILE41       0.0019
      8  CD1       38.9350    4.5560   24.6400 C.3    41  ILE41       0.0001
      9  N         33.6900   -3.3660    4.8320 N.3    83  GLU83      -0.1245
     10  CA        32.9610   -2.1050    4.7760 C.3    83  GLU83       0.1567
     11  C         33.9020   -0.9920    4.3150 C.2    83  GLU83       0.2260
     12  O         33.6830    0.1790    4.6120 O.2    83  GLU83      -0.2867
     13  CB        32.3340   -1.7590    6.1320 C.3    83  GLU83       0.0388
     14  CG        33.3180   -1.6800    7.2840 C.3    83  GLU83       0.1160
     15  CD        32.6650   -1.2040    8.5660 C.2    83  GLU83       0.3649
     16  OE1       32.4660    0.0220    8.7110 O.co2  83  GLU83      -0.2457
     17  OE2       32.3470   -2.0500    9.4270 O.co2  83  GLU83      -0.2457
     18  N         28.5780   -3.8260    7.7810 N.3   114  ALA114     -0.1231
     19  CA        29.4980   -3.3870    8.8210 C.3   114  ALA114      0.1694
     20  C         30.5080   -4.4870    9.1610 C.2   114  ALA114      0.2592
     21  O         31.1180   -5.0680    8.2630 O.2   114  ALA114     -0.2718
     22  CB        28.7210   -2.9330   10.0660 C.3   114  ALA114      0.0304
     23  N         30.6920   -4.7650   10.4470 N.am  115  CYS115     -0.1970
     24  CA        31.7080   -5.7230   10.8790 C.3   115  CYS115      0.1712
     25  C         31.1910   -7.1610   10.9120 C.2   115  CYS115      0.2296
     26  O         31.8260   -8.0400   11.4930 O.2   115  CYS115     -0.2864
     27  CB        32.2380   -5.3380   12.2610 C.3   115  CYS115      0.0983
     28  SG        32.6910   -3.5960   12.4290 S.3   115  CYS115     -0.0798
     29  N         38.8200    6.6390   11.9370 N.3   147  TYR147     -0.1241
     30  CA        37.7560    7.5050   12.4370 C.3   147  TYR147      0.1605
     31  C         38.0700    8.9750   12.2020 C.2   147  TYR147      0.2264
     32  O         37.1650    9.7790   11.9710 O.2   147  TYR147     -0.2867
     33  CB        37.5190    7.2600   13.9310 C.3   147  TYR147      0.0534
     34  CG        36.8410    5.9440   14.2310 C.ar  147  TYR147     -0.0201
     35  CD1       35.4590    5.8600   14.3260 C.ar  147  TYR147     -0.0009
     36  CD2       37.5830    4.7860   14.4140 C.ar  147  TYR147     -0.0009
     37  CE1       34.8350    4.6590   14.6000 C.ar  147  TYR147      0.0417
     38  CE2       36.9700    3.5820   14.6860 C.ar  147  TYR147      0.0417
     39  CZ        35.5970    3.5240   14.7780 C.ar  147  TYR147      0.1957
     40  OH        34.9830    2.3220   15.0450 O.3   147  TYR147     -0.2866
     41  N         37.2500   10.7120   18.8350 N.3   152  GLY152     -0.1210
     42  CA        37.1080    9.8330   19.9800 C.3   152  GLY152      0.1956
     43  C         37.5230    8.4140   19.6430 C.2   152  GLY152      0.2612
     44  O         38.0760    7.6990   20.4800 O.2   152  GLY152     -0.2717
     45  N         37.2670    8.0090   18.4020 N.am  153  GLY153     -0.1956
     46  CA        37.5250    6.6470   17.9770 C.3   153  GLY153      0.1869
     47  C         38.9490    6.3900   17.5170 C.2   153  GLY153      0.2309
     48  O         39.3260    5.2430   17.2680 O.2   153  GLY153     -0.2863
     49  N         41.1340    3.4820   18.6980 N.3   156  THR156     -0.1218
     50  CA        40.6190    2.1460   18.4180 C.3   156  THR156      0.1862
     51  C         40.9180    1.7010   16.9840 C.2   156  THR156      0.2287
     52  O         40.6740    0.5500   16.6150 O.2   156  THR156     -0.2866
     53  CB        39.1000    2.0910   18.6420 C.3   156  THR156      0.1770
     54  OG1       38.4250    2.7300   17.5550 O.3   156  THR156     -0.2211
     55  CG2       38.7280    2.7750   19.9530 C.3   156  THR156      0.0375
     56  N         26.1740    3.3380   13.9380 N.3   189  PHE189     -0.1241
     57  CA        27.3840    3.5660   13.1610 C.3   189  PHE189      0.1605
     58  C         27.0370    3.2640   11.7130 C.2   189  PHE189      0.2264
     59  O         26.4880    2.2060   11.4130 O.2   189  PHE189     -0.2867
     60  CB        28.5060    2.6520   13.6640 C.3   189  PHE189      0.0534
     61  CG        29.7400    2.6360   12.7930 C.ar  189  PHE189     -0.0203
     62  CD1       30.9250    3.1960   13.2400 C.ar  189  PHE189     -0.0042
     63  CD2       29.7220    2.0350   11.5410 C.ar  189  PHE189     -0.0042
     64  CE1       32.0670    3.1720   12.4510 C.ar  189  PHE189     -0.0003
     65  CE2       30.8640    2.0120   10.7440 C.ar  189  PHE189     -0.0003
     66  CZ        32.0340    2.5780   11.2020 C.ar  189  PHE189     -0.0000
     67  N         29.0510    8.1820   13.6030 N.3   200  VAL200     -0.1245
     68  CA        28.9620    7.3000   14.7550 C.3   200  VAL200      0.1561
     69  C         28.3790    7.9720   15.9890 C.2   200  VAL200      0.2260
     70  O         28.7570    9.0810   16.3610 O.2   200  VAL200     -0.2867
     71  CB        30.3390    6.6850   15.0990 C.3   200  VAL200      0.0252
     72  CG1       31.4100    7.7550   15.1620 C.3   200  VAL200      0.0019
     73  CG2       30.2640    5.9060   16.4040 C.3   200  VAL200      0.0019
     74  N         28.6150    7.0340   19.5140 N.3   202  GLY202     -0.1225
     75  CA        29.3450    6.1400   20.4000 C.3   202  GLY202      0.1811
     76  C         28.4730    5.4780   21.4480 C.2   202  GLY202      0.2280
     77  O         28.4620    4.2530   21.5730 O.2   202  GLY202     -0.2866
     78  N         25.9880    3.0310   20.0320 N.3   205  SER205     -0.1202
     79  CA        26.6910    1.8670   19.5110 C.3   205  SER205      0.2020
     80  C         27.0460    0.9130   20.6380 C.2   205  SER205      0.2618
     81  O         26.7530   -0.2840   20.5630 O.2   205  SER205     -0.2717
     82  CB        27.9520    2.2920   18.7560 C.3   205  SER205      0.2103
     83  OG        28.6090    1.1700   18.1910 O.3   205  SER205     -0.2182
     84  N         27.6650    1.4440   21.6880 N.am  206  ASN206     -0.1974
     85  CA        28.0480    0.6300   22.8320 C.3   206  ASN206      0.1688
     86  C         26.8210   -0.0070   23.4830 C.2   206  ASN206      0.2292
     87  O         26.8430   -1.1860   23.8350 O.2   206  ASN206     -0.2864
     88  CB        28.8410    1.4610   23.8550 C.3   206  ASN206      0.1181
     89  CG        30.2100    1.8870   23.3330 C.2   206  ASN206      0.2629
     90  OD1       30.8570    1.1590   22.5760 O.2   206  ASN206     -0.2716
     91  ND2       30.6540    3.0750   23.7360 N.am  206  ASN206     -0.0877
     92  N         33.5220  -10.1950   18.5770 N.3   237  HIS237     -0.1241
     93  CA        33.7990   -8.9760   17.8540 C.3   237  HIS237      0.1621
     94  C         33.8310   -7.8920   18.9070 C.2   237  HIS237      0.2264
     95  O         33.0590   -7.9340   19.8660 O.2   237  HIS237     -0.2867
     96  CB        32.7220   -8.6220   16.8440 C.3   237  HIS237      0.0745
     97  CG        32.8180   -7.2070   16.3720 C.ar  237  HIS237      0.0817
     98  ND1       33.6950   -6.8170   15.3820 N.ar  237  HIS237     -0.2268
     99  CD2       32.1990   -6.0790   16.7910 C.ar  237  HIS237      0.1154
    100  CE1       33.5870   -5.5120   15.1910 C.ar  237  HIS237      0.1986
    101  NE2       32.6860   -5.0440   16.0350 N.ar  237  HIS237     -0.2212
    102  N         34.5370   -3.4090   19.3670 N.3   239  PRO239     -0.2102
    103  CA        34.9060   -2.0830   18.8670 C.3   239  PRO239      0.1504
    104  C         36.2610   -1.6730   19.4450 C.2   239  PRO239      0.2575
    105  O         37.0490   -1.0010   18.7790 O.2   239  PRO239     -0.2718
    106  CB        33.7830   -1.1890   19.3900 C.3   239  PRO239      0.0282
    107  CG        33.3060   -1.8650   20.6200 C.3   239  PRO239      0.0208
    108  CD        33.4630   -3.3410   20.3740 C.3   239  PRO239      0.0893
    109  N         36.5070   -2.0880   20.6860 N.am  240  TYR240     -0.1977
    110  CA        37.8220   -1.9920   21.3220 C.3   240  TYR240      0.1639
    111  C         37.8360   -2.9070   22.5490 C.2   240  TYR240      0.2290
    112  O         36.7760   -3.2620   23.0680 O.2   240  TYR240     -0.2864
    113  CB        38.1750   -0.5450   21.6890 C.3   240  TYR240      0.0560
    114  CG        37.1190    0.2120   22.4670 C.ar  240  TYR240     -0.0198
    115  CD1       37.2660    0.4460   23.8290 C.ar  240  TYR240     -0.0009
    116  CD2       35.9910    0.7120   21.8370 C.ar  240  TYR240     -0.0009
    117  CE1       36.3140    1.1470   24.5420 C.ar  240  TYR240      0.0417
    118  CE2       35.0290    1.4130   22.5430 C.ar  240  TYR240      0.0417
    119  CZ        35.2000    1.6300   23.8970 C.ar  240  TYR240      0.1957
    120  OH        34.2470    2.3270   24.6070 O.3   240  TYR240     -0.2866
    121  N         41.2340   -2.2070   15.6770 N.3   279  ASN279     -0.1240
    122  CA        40.0160   -2.7900   15.1210 C.3   279  ASN279      0.1653
    123  C         40.1530   -3.1080   13.6410 C.2   279  ASN279      0.2266
    124  O         40.5430   -2.2560   12.8430 O.2   279  ASN279     -0.2867
    125  CB        38.8260   -1.8470   15.3240 C.3   279  ASN279      0.1155
    126  CG        37.4850   -2.5470   15.1480 C.2   279  ASN279      0.2627
    127  OD1       37.4190   -3.6930   14.7010 O.2   279  ASN279     -0.2716
    128  ND2       36.4060   -1.8520   15.4930 N.am  279  ASN279     -0.0877
    129  N         37.4780   -4.1960   12.0510 N.3   281  TYR281     -0.1241
    130  CA        36.0600   -4.2870   11.7080 C.3   281  TYR281      0.1605
    131  C         35.6400   -5.7400   11.4590 C.2   281  TYR281      0.2264
    132  O         35.5200   -6.5160   12.4080 O.2   281  TYR281     -0.2867
    133  CB        35.7380   -3.4050   10.5000 C.3   281  TYR281      0.0534
    134  CG        35.7280   -1.9150   10.7930 C.ar  281  TYR281     -0.0201
    135  CD1       35.6860   -1.4360   12.0980 C.ar  281  TYR281     -0.0009
    136  CD2       35.7630   -0.9860    9.7590 C.ar  281  TYR281     -0.0009
    137  CE1       35.6710   -0.0800   12.3640 C.ar  281  TYR281      0.0417
    138  CE2       35.7520    0.3760   10.0180 C.ar  281  TYR281      0.0417
    139  CZ        35.7040    0.8200   11.3240 C.ar  281  TYR281      0.1957
    140  OH        35.6950    2.1660   11.5930 O.3   281  TYR281     -0.2866
    141  N         29.1320   -9.1480   15.4780 N.3   310  TYR310     -0.1227
    142  CA        28.2970   -7.9530   15.4910 C.3   310  TYR310      0.1736
    143  C         28.5430   -7.0850   14.2620 C.2   310  TYR310      0.2596
    144  O         29.6590   -7.0050   13.7540 O.2   310  TYR310     -0.2718
    145  CB        28.5580   -7.1440   16.7640 C.3   310  TYR310      0.0548
    146  CG        27.7550   -5.8620   16.8750 C.ar  310  TYR310     -0.0200
    147  CD1       26.4550   -5.8720   17.3650 C.ar  310  TYR310     -0.0009
    148  CD2       28.3050   -4.6400   16.5070 C.ar  310  TYR310     -0.0009
    149  CE1       25.7200   -4.7010   17.4730 C.ar  310  TYR310      0.0417
    150  CE2       27.5750   -3.4610   16.6140 C.ar  310  TYR310      0.0417
    151  CZ        26.2820   -3.5020   17.0970 C.ar  310  TYR310      0.1957
    152  OH        25.5460   -2.3430   17.2130 O.3   310  TYR310     -0.2866
    153  N         27.4840   -6.4390   13.7930 N.am  311  GLY311     -0.1942
    154  CA        27.5740   -5.4770   12.7060 C.3   311  GLY311      0.2014
    155  C         26.7060   -4.2760   13.0540 C.2   311  GLY311      0.2639
    156  O         25.5270   -4.4490   13.3620 O.2   311  GLY311     -0.2714
    157  N         27.2670   -3.0690   13.0410 N.am  312  SER312     -0.1949
    158  CA        26.4630   -1.8700   13.2780 C.3   312  SER312      0.1924
    159  C         25.3650   -1.8130   12.2260 C.2   312  SER312      0.2314
    160  O         25.5780   -2.2330   11.0920 O.2   312  SER312     -0.2863
    161  CB        27.3210   -0.6100   13.1940 C.3   312  SER312      0.2116
    162  OG        28.2580   -0.5610   14.2520 O.3   312  SER312     -0.2180
@<TRIPOS>BOND
     1    11    12    2
     2    11    10    1
     3    10     9    1
     4    10    13    1
     5    13    14    1
     6    14    15    1
     7    18    19    1
     8    21    20    2
     9    15    16   ar
    10    15    17   ar
    11    19    20    1
    12    19    22    1
    13    20    23   am
    14   136   138   ar
    15   136   134   ar
    16   138   139   ar
    17    23    24    1
    18   133   134    1
    19   133   130    1
    20    65    66   ar
    21    65    63   ar
    22   134   135   ar
    23    24    25    1
    24    24    27    1
    25    25    26    2
    26   160   159    2
    27    66    64   ar
    28   139   140    1
    29   139   137   ar
    30    59    58    2
    31   131   130    1
    32   131   132    2
    33    63    61   ar
    34   130   129    1
    35    58    57    1
    36    29    30    1
    37    32    31    2
    38   135   137   ar
    39    31    30    1
    40   159   158    1
    41    27    28    1
    42    30    33    1
    43    64    62   ar
    44   154   155    1
    45   154   153    1
    46    61    62   ar
    47    61    60    1
    48   124   123    2
    49   157   155   am
    50   157   158    1
    51   155   156    2
    52    57    60    1
    53    57    56    1
    54   161   158    1
    55   161   162    1
    56    67    68    1
    57   123   122    1
    58   144   143    2
    59   153   143   am
    60    33    34    1
    61    34    35   ar
    62    34    36   ar
    63   143   142    1
    64    35    37   ar
    65    36    38   ar
    66    37    39   ar
    67    38    39   ar
    68   127   126    2
    69    68    71    1
    70    68    69    1
    71    39    40    1
    72    71    72    1
    73    71    73    1
    74   122   125    1
    75   122   121    1
    76   126   125    1
    77   126   128   am
    78   100    98   ar
    79   100   101   ar
    80    98    97   ar
    81   141   142    1
    82   142   145    1
    83    69    70    2
    84   101    99   ar
    85    97    99   ar
    86    97    96    1
    87   148   150   ar
    88   148   146   ar
    89   150   151   ar
    90    52    51    2
    91   145   146    1
    92    96    93    1
    93   146   147   ar
    94    51    50    1
    95   151   152    1
    96   151   149   ar
    97    48    47    2
    98   147   149   ar
    99    47    46    1
   100    54    53    1
   101    93    92    1
   102    93    94    1
   103    46    45    1
   104    83    82    1
   105    45    43   am
   106    50    53    1
   107    50    49    1
   108    53    55    1
   109    82    79    1
   110   105   104    2
   111    41    42    1
   112   103   102    1
   113   103   106    1
   114   103   104    1
   115    94    95    2
   116   102   108    1
   117   106   107    1
   118   104   109   am
   119    79    78    1
   120    79    80    1
   121    74    75    1
   122    43    42    1
   123    43    44    2
   124   108   107    1
   125    75    76    1
   126    81    80    2
   127    80    84   am
   128   109   110    1
   129   110   113    1
   130   110   111    1
   131    76    77    2
   132    84    85    1
   133   113   114    1
   134   116   114   ar
   135   116   118   ar
   136   114   115   ar
   137   118   119   ar
   138   111   112    2
   139    90    89    2
   140    85    86    1
   141    85    88    1
   142    89    91   am
   143    89    88    1
   144    86    87    2
   145     7     5    1
   146   115   117   ar
   147   119   117   ar
   148   119   120    1
   149     8     6    1
   150     5     6    1
   151     5     2    1
   152     4     3    2
   153     3     2    1
   154     2     1    1
