@<TRIPOS>MOLECULE
tmp/3v50A02.pdb
 88 81 0 0 0
SMALL
GASTEIGER

@<TRIPOS>ATOM
      1  N         -9.3080   -0.6670    0.6490 N.3   192  ALA192     -0.1245
      2  CA        -7.8900   -0.8150    0.2910 C.3   192  ALA192      0.1562
      3  C         -7.0470    0.4350    0.5260 C.2   192  ALA192      0.2260
      4  O         -5.8210    0.3220    0.6920 O.2   192  ALA192     -0.2867
      5  CB        -7.7410   -1.2810   -1.1610 C.3   192  ALA192      0.0290
      6  N         -4.5810    0.5680    3.5690 N.3   195  LEU195     -0.1231
      7  CA        -3.5260   -0.4320    3.3580 C.3   195  LEU195      0.1693
      8  C         -2.5210    0.0710    2.3190 C.2   195  LEU195      0.2591
      9  O         -1.3120    0.0230    2.5460 O.2   195  LEU195     -0.2718
     10  CB        -4.1160   -1.7740    2.9060 C.3   195  LEU195      0.0284
     11  CG        -3.1110   -2.8840    2.5410 C.3   195  LEU195      0.0019
     12  CD1       -2.2010   -3.2560    3.7100 C.3   195  LEU195      0.0001
     13  CD2       -3.8320   -4.1110    2.0180 C.3   195  LEU195      0.0001
     14  N         -3.0220    0.5540    1.1810 N.am  196  ILE196     -0.1980
     15  CA        -2.1500    1.0910    0.1330 C.3   196  ILE196      0.1595
     16  C         -1.2900    2.2440    0.6600 C.2   196  ILE196      0.2287
     17  O         -0.0890    2.2900    0.3870 O.2   196  ILE196     -0.2864
     18  CB        -2.9500    1.5320   -1.1290 C.3   196  ILE196      0.0276
     19  CG1       -3.5610    0.3160   -1.8370 C.3   196  ILE196      0.0022
     20  CG2       -2.0380    2.3020   -2.1070 C.3   196  ILE196      0.0022
     21  CD1       -4.6840    0.6800   -2.8300 C.3   196  ILE196      0.0001
     22  N          1.8690    1.3430    2.5620 N.3   199  VAL199     -0.1245
     23  CA         3.0170    0.8520    1.7790 C.3   199  VAL199      0.1561
     24  C          3.5090    1.8250    0.6950 C.2   199  VAL199      0.2260
     25  O          4.4690    1.5330   -0.0290 O.2   199  VAL199     -0.2867
     26  CB         2.7850   -0.5700    1.1730 C.3   199  VAL199      0.0252
     27  CG1        2.6700   -1.6110    2.3000 C.3   199  VAL199      0.0019
     28  CG2        1.5620   -0.6150    0.2440 C.3   199  VAL199      0.0019
     29  N        -11.2740   -0.8350   -5.5410 N.3   210  THR210     -0.1218
     30  CA       -10.8010   -2.1640   -5.9070 C.3   210  THR210      0.1862
     31  C        -11.9480   -3.1420   -6.1810 C.2   210  THR210      0.2287
     32  O        -13.1100   -2.8550   -5.9040 O.2   210  THR210     -0.2866
     33  CB        -9.8790   -2.7650   -4.8270 C.3   210  THR210      0.1770
     34  OG1      -10.6020   -2.8250   -3.5970 O.3   210  THR210     -0.2211
     35  CG2       -8.6090   -1.9040   -4.6420 C.3   210  THR210      0.0375
     36  N         -9.2430   -9.7910  -10.2850 N.3   218  ARG218     -0.1231
     37  CA        -8.8140   -8.8200   -9.2860 C.3   218  ARG218      0.1694
     38  C         -8.5700   -7.5250  -10.0250 C.2   218  ARG218      0.2593
     39  O         -8.1220   -7.5310  -11.1680 O.2   218  ARG218     -0.2718
     40  CB        -7.5210   -9.2720   -8.5990 C.3   218  ARG218      0.0321
     41  CG        -7.1540   -8.5060   -7.3360 C.3   218  ARG218      0.0489
     42  CD        -8.0610   -8.8910   -6.1740 C.3   218  ARG218      0.2205
     43  NE        -7.6290   -8.2860   -4.9100 N.pl3 218  ARG218     -0.0865
     44  CZ        -8.2910   -7.3380   -4.2380 C.cat 218  ARG218      0.5346
     45  NH1       -7.7870   -6.8800   -3.0970 N.pl3 218  ARG218      0.1354
     46  NH2       -9.4480   -6.8470   -4.6810 N.pl3 218  ARG218      0.1354
     47  N         -8.8450   -6.3980   -9.3910 N.am  219  GLY219     -0.1942
     48  CA        -8.6150   -5.1440  -10.1180 C.3   219  GLY219      0.2014
     49  C         -8.6180   -3.9200   -9.2480 C.2   219  GLY219      0.2638
     50  O         -9.0570   -3.9450   -8.0820 O.2   219  GLY219     -0.2714
     51  N         -8.1750   -2.8260   -9.8490 N.am  220  ILE220     -0.1977
     52  CA        -8.1440   -1.5450   -9.1660 C.3   220  ILE220      0.1596
     53  C         -8.2030   -0.4140  -10.1770 C.2   220  ILE220      0.2287
     54  O         -7.5320   -0.4610  -11.2200 O.2   220  ILE220     -0.2864
     55  CB        -6.8820   -1.3920   -8.2570 C.3   220  ILE220      0.0276
     56  CG1       -6.9210   -0.0630   -7.4850 C.3   220  ILE220      0.0022
     57  CG2       -5.5660   -1.5900   -9.0630 C.3   220  ILE220      0.0022
     58  CD1       -5.7970    0.0640   -6.4520 C.3   220  ILE220      0.0001
     59  N         -2.6530   -9.8570   -5.1290 N.3   249  ASN249     -0.1225
     60  CA        -2.4320   -8.5350   -4.5180 C.3   249  ASN249      0.1785
     61  C         -0.9790   -8.0910   -4.6410 C.2   249  ASN249      0.2597
     62  O         -0.7010   -6.9320   -4.9580 O.2   249  ASN249     -0.2718
     63  CB        -2.8240   -8.5340   -3.0410 C.3   249  ASN249      0.1169
     64  CG        -4.3140   -8.6580   -2.8210 C.2   249  ASN249      0.2627
     65  OD1       -5.1180   -8.4940   -3.7450 O.2   249  ASN249     -0.2716
     66  ND2       -4.6920   -8.9480   -1.5830 N.am  249  ASN249     -0.0877
     67  N         -0.0530   -9.0070   -4.3620 N.am  250  GLN250     -0.1979
     68  CA         1.3710   -8.6840   -4.4380 C.3   250  GLN250      0.1601
     69  C          1.8180   -8.3050   -5.8470 C.2   250  GLN250      0.2287
     70  O          2.6610   -7.4270   -6.0170 O.2   250  GLN250     -0.2864
     71  CB         2.2120   -9.8580   -3.9340 C.3   250  GLN250      0.0394
     72  CG         2.2520   -9.9870   -2.4200 C.3   250  GLN250      0.0908
     73  CD         2.5390  -11.4110   -1.9530 C.2   250  GLN250      0.2608
     74  OE1        2.1380  -11.8010   -0.8590 O.2   250  GLN250     -0.2717
     75  NE2        3.2280  -12.1940   -2.7860 N.am  250  GLN250     -0.0878
     76  N         -0.0940   -6.9830   -8.2790 N.3   252  ILE252     -0.1231
     77  CA        -0.5920   -5.6450   -8.5830 C.3   252  ILE252      0.1692
     78  C          0.2640   -4.5870   -7.8770 C.2   252  ILE252      0.2591
     79  O          0.6360   -3.5740   -8.4830 O.2   252  ILE252     -0.2718
     80  CB        -2.0810   -5.4960   -8.2240 C.3   252  ILE252      0.0266
     81  CG1       -2.9080   -6.3980   -9.1430 C.3   252  ILE252      0.0019
     82  CG2       -2.5460   -4.0220   -8.3480 C.3   252  ILE252      0.0020
     83  CD1       -4.4000   -6.4530   -8.7890 C.3   252  ILE252      0.0001
     84  N          0.5840   -4.8380   -6.6090 N.am  253  ALA253     -0.1980
     85  CA         1.4200   -3.9020   -5.8550 C.3   253  ALA253      0.1597
     86  C          2.7740   -3.7590   -6.5440 C.2   253  ALA253      0.2287
     87  O          3.3240   -2.6590   -6.6050 O.2   253  ALA253     -0.2864
     88  CB         1.6070   -4.3940   -4.4120 C.3   253  ALA253      0.0319
@<TRIPOS>BOND
     1    54    53    2
     2    39    38    2
     3    36    37    1
     4    53    52    1
     5    48    47    1
     6    48    49    1
     7    38    47   am
     8    38    37    1
     9    51    49   am
    10    51    52    1
    11    37    40    1
    12    49    50    2
    13    52    55    1
    14    81    83    1
    15    81    80    1
    16    57    55    1
    17    40    41    1
    18    77    76    1
    19    77    80    1
    20    77    78    1
    21    79    78    2
    22    82    80    1
    23    55    56    1
    24    78    84   am
    25    56    58    1
    26    41    42    1
    27    84    85    1
    28    87    86    2
    29    86    85    1
    30    31    30    1
    31    31    32    2
    32    42    43    1
    33    70    69    2
    34    30    29    1
    35    30    33    1
    36    85    88    1
    37    69    68    1
    38    59    60    1
    39    62    61    2
    40    43    44    2
    41    33    35    1
    42    33    34    1
    43    46    44    1
    44    61    60    1
    45    61    67   am
    46    60    63    1
    47    68    67    1
    48    68    71    1
    49    44    45    1
    50    71    72    1
    51    65    64    2
    52    63    64    1
    53    21    19    1
    54    64    66   am
    55    75    73   am
    56    72    73    1
    57    20    18    1
    58    73    74    2
    59    19    18    1
    60     5     2    1
    61    18    15    1
    62    25    24    2
    63    15    16    1
    64    15    14    1
    65    28    26    1
    66     2     3    1
    67     2     1    1
    68    17    16    2
    69     3     4    2
    70    24    23    1
    71    26    23    1
    72    26    27    1
    73    14     8   am
    74    23    22    1
    75    13    11    1
    76     8     9    2
    77     8     7    1
    78    11    10    1
    79    11    12    1
    80    10     7    1
    81     7     6    1
