@<TRIPOS>MOLECULE
tmp/3v50A00.pdb
 115 107 0 0 0
SMALL
GASTEIGER

@<TRIPOS>ATOM
      1  N        -15.9400   -6.2530  -11.9150 N.3    44  MET44      -0.1230
      2  CA       -16.1420   -6.5320  -10.5000 C.3    44  MET44       0.1702
      3  C        -16.6510   -5.2560   -9.7890 C.2    44  MET44       0.2593
      4  O        -17.3710   -4.4500  -10.3970 O.2    44  MET44      -0.2718
      5  CB       -14.8550   -7.0810   -9.8650 C.3    44  MET44       0.0401
      6  CG       -14.2420   -8.2700  -10.6150 C.3    44  MET44       0.0596
      7  SD       -12.4580   -8.3790  -10.3300 S.3    44  MET44      -0.1393
      8  CE       -11.9360   -6.8180  -11.0680 C.3    44  MET44       0.0692
      9  N        -16.2790   -5.0720   -8.5210 N.am   45  SER45      -0.1952
     10  CA       -16.7530   -3.9400   -7.7340 C.3    45  SER45       0.1924
     11  C        -16.2480   -2.5800   -8.2390 C.2    45  SER45       0.2314
     12  O        -16.7270   -1.5320   -7.7770 O.2    45  SER45      -0.2863
     13  CB       -16.3980   -4.1230   -6.2610 C.3    45  SER45       0.2116
     14  OG       -17.0290   -5.2870   -5.7130 O.3    45  SER45      -0.2180
     15  N        -18.6840    0.2940   -9.3120 N.3    48  LYS48      -0.1245
     16  CA       -19.3950    1.1640   -8.3520 C.3    48  LYS48       0.1561
     17  C        -19.0370    2.6340   -8.5230 C.2    48  LYS48       0.2260
     18  O        -19.8600    3.5010   -8.2310 O.2    48  LYS48      -0.2867
     19  CB       -19.1830    0.6740   -6.9130 C.3    48  LYS48       0.0271
     20  CG       -19.8250   -0.6900   -6.6450 C.3    48  LYS48       0.0035
     21  CD       -19.4490   -1.2090   -5.2740 C.3    48  LYS48       0.0206
     22  CE       -20.0130   -2.6310   -5.0500 C.3    48  LYS48       0.1093
     23  NZ       -19.7230   -3.1670   -3.6760 N.3    48  LYS48      -0.1314
     24  N        -25.2560  -10.4390   -0.3820 N.3    79  ASP79      -0.1225
     25  CA       -24.0270  -10.7500    0.3200 C.3    79  ASP79       0.1805
     26  C        -23.0940   -9.5430    0.4350 C.2    79  ASP79       0.2597
     27  O        -22.7760   -8.8970   -0.5550 O.2    79  ASP79      -0.2718
     28  CB       -23.3340  -11.9010   -0.4230 C.3    79  ASP79       0.1424
     29  CG       -22.1210  -12.4430    0.3090 C.2    79  ASP79       0.3668
     30  OD1      -21.2830  -13.0730   -0.3700 O.co2  79  ASP79      -0.2456
     31  OD2      -21.9900  -12.2480    1.5290 O.co2  79  ASP79      -0.2456
     32  N        -22.6780   -9.2680    1.6680 N.am   80  TYR80      -0.1976
     33  CA       -21.7360   -8.2050    2.0420 C.3    80  TYR80       0.1639
     34  C        -22.3870   -6.8280    2.0780 C.2    80  TYR80       0.2290
     35  O        -22.3690   -6.0750    1.0950 O.2    80  TYR80      -0.2864
     36  CB       -20.4090   -8.2080    1.2560 C.3    80  TYR80       0.0560
     37  CG       -19.3510   -7.4670    2.0250 C.ar   80  TYR80      -0.0198
     38  CD1      -18.7460   -8.0600    3.1320 C.ar   80  TYR80      -0.0009
     39  CD2      -18.9830   -6.1620    1.6870 C.ar   80  TYR80      -0.0009
     40  CE1      -17.7880   -7.3890    3.8850 C.ar   80  TYR80       0.0417
     41  CE2      -18.0060   -5.4700    2.4500 C.ar   80  TYR80       0.0417
     42  CZ       -17.4240   -6.1000    3.5430 C.ar   80  TYR80       0.1957
     43  OH       -16.4680   -5.4560    4.3120 O.3    80  TYR80      -0.2866
     44  N        -17.3870   -0.8730    0.2140 N.3   105  GLY105     -0.1225
     45  CA       -17.6680   -2.0530   -0.6090 C.3   105  GLY105      0.1811
     46  C        -19.0350   -2.6840   -0.3700 C.2   105  GLY105      0.2280
     47  O        -19.2470   -3.8580   -0.6680 O.2   105  GLY105     -0.2866
     48  N        -22.4290   -4.0960   -0.9720 N.3   107  ASN107     -0.1240
     49  CA       -23.0870   -4.5980   -2.1740 C.3   107  ASN107      0.1653
     50  C        -24.5690   -4.2610   -2.2810 C.2   107  ASN107      0.2266
     51  O        -25.0720   -4.0450   -3.3940 O.2   107  ASN107     -0.2867
     52  CB       -22.8900   -6.0970   -2.3360 C.3   107  ASN107      0.1155
     53  CG       -21.4910   -6.4530   -2.7860 C.2   107  ASN107      0.2627
     54  OD1      -20.8500   -5.6860   -3.5010 O.2   107  ASN107     -0.2716
     55  ND2      -21.0130   -7.6100   -2.3620 N.am  107  ASN107     -0.0877
     56  N        -25.3450   -7.0530   -8.2000 N.3   141  GLU141     -0.1231
     57  CA       -24.5860   -7.7240   -7.1410 C.3   141  GLU141      0.1699
     58  C        -25.4450   -8.8920   -6.6370 C.2   141  GLU141      0.2592
     59  O        -26.6560   -8.7380   -6.4830 O.2   141  GLU141     -0.2718
     60  CB       -24.2330   -6.7550   -6.0050 C.3   141  GLU141      0.0402
     61  CG       -23.1260   -5.7390   -6.3640 C.3   141  GLU141      0.1161
     62  CD       -21.7340   -6.3560   -6.5020 C.2   141  GLU141      0.3649
     63  OE1      -20.7930   -5.6220   -6.8770 O.co2 141  GLU141     -0.2457
     64  OE2      -21.5630   -7.5660   -6.2270 O.co2 141  GLU141     -0.2457
     65  N        -24.8530  -10.0630   -6.3880 N.am  142  THR142     -0.1953
     66  CA       -23.4100  -10.3100   -6.4420 C.3   142  THR142      0.1897
     67  C        -22.9610  -11.1480   -7.6520 C.2   142  THR142      0.2313
     68  O        -21.7810  -11.4740   -7.7870 O.2   142  THR142     -0.2863
     69  CB       -22.9430  -11.0140   -5.1410 C.3   142  THR142      0.1794
     70  OG1      -23.6930  -12.2240   -4.9720 O.3   142  THR142     -0.2208
     71  CG2      -23.1630  -10.1080   -3.9160 C.3   142  THR142      0.0378
     72  N        -19.6280  -10.5460  -10.6540 N.3   145  ASN145     -0.1240
     73  CA       -18.1870  -10.8440  -10.6680 C.3   145  ASN145      0.1653
     74  C        -17.8680  -12.3380  -10.8390 C.2   145  ASN145      0.2266
     75  O        -16.7820  -12.8070  -10.4470 O.2   145  ASN145     -0.2867
     76  CB       -17.5020  -10.2730   -9.4240 C.3   145  ASN145      0.1155
     77  CG       -17.9250  -10.9810   -8.1680 C.2   145  ASN145      0.2627
     78  OD1      -18.9700  -11.6320   -8.1420 O.2   145  ASN145     -0.2716
     79  ND2      -17.1170  -10.8650   -7.1110 N.am  145  ASN145     -0.0877
     80  N        -11.6620    0.1110    2.0780 N.3   191  VAL191     -0.1245
     81  CA       -11.3670   -1.2910    1.7870 C.3   191  VAL191      0.1561
     82  C         -9.8770   -1.4960    1.5150 C.2   191  VAL191      0.2260
     83  O         -9.2470   -2.3860    2.0870 O.2   191  VAL191     -0.2867
     84  CB       -12.2260   -1.8260    0.6130 C.3   191  VAL191      0.0252
     85  CG1      -11.7660   -3.2220    0.2030 C.3   191  VAL191      0.0019
     86  CG2      -13.7040   -1.8330    1.0220 C.3   191  VAL191      0.0019
     87  N        -10.7460    2.5270   -6.1430 N.3   209  LYS209     -0.1231
     88  CA       -11.7710    1.5150   -5.8760 C.3   209  LYS209      0.1693
     89  C        -11.2200    0.1920   -6.3940 C.2   209  LYS209      0.2593
     90  O        -10.7680    0.1160   -7.5440 O.2   209  LYS209     -0.2718
     91  CB       -13.0870    1.8270   -6.5990 C.3   209  LYS209      0.0285
     92  CG       -14.1760    0.7470   -6.3750 C.3   209  LYS209      0.0035
     93  CD       -14.8250    0.9000   -4.9910 C.3   209  LYS209      0.0206
     94  CE       -15.5320   -0.4000   -4.5390 C.3   209  LYS209      0.1093
     95  NZ       -14.5630   -1.4030   -3.9790 N.3   209  LYS209     -0.1314
     96  N        -11.2740   -0.8350   -5.5410 N.am  210  THR210     -0.1939
     97  CA       -10.8010   -2.1640   -5.9070 C.3   210  THR210      0.2028
     98  C        -11.9480   -3.1420   -6.1810 C.2   210  THR210      0.2643
     99  O        -13.1100   -2.8550   -5.9040 O.2   210  THR210     -0.2714
    100  CB        -9.8790   -2.7650   -4.8270 C.3   210  THR210      0.1808
    101  OG1      -10.6020   -2.8250   -3.5970 O.3   210  THR210     -0.2208
    102  CG2       -8.6090   -1.9040   -4.6420 C.3   210  THR210      0.0379
    103  N        -11.6140   -4.2860   -6.7790 N.am  211  GLY211     -0.1939
    104  CA       -12.5960   -5.3380   -7.0450 C.3   211  GLY211      0.2014
    105  C        -11.9290   -6.7000   -7.0250 C.2   211  GLY211      0.2639
    106  O        -10.7070   -6.8130   -7.1860 O.2   211  GLY211     -0.2714
    107  N        -12.7390   -7.7330   -6.8060 N.am  212  ALA212     -0.1963
    108  CA       -12.2630   -9.1150   -6.8100 C.3   212  ALA212      0.1728
    109  C        -13.3710   -9.9660   -7.4160 C.2   212  ALA212      0.2616
    110  O        -14.5530   -9.6200   -7.3370 O.2   212  ALA212     -0.2715
    111  CB       -11.9240   -9.5930   -5.3980 C.3   212  ALA212      0.0334
    112  N        -12.9830  -11.0680   -8.0410 N.am  213  GLY213     -0.1955
    113  CA       -13.9590  -11.9720   -8.6440 C.3   213  GLY213      0.1869
    114  C        -13.4630  -13.4020   -8.6820 C.2   213  GLY213      0.2309
    115  O        -12.4120  -13.7390   -8.1100 O.2   213  GLY213     -0.2863
@<TRIPOS>BOND
     1     1     2    1
     2     8     7    1
     3    74    73    1
     4    74    75    2
     5    73    72    1
     6    73    76    1
     7     6     7    1
     8     6     5    1
     9     2     5    1
    10     2     3    1
    11     4     3    2
    12     3     9   am
    13    76    77    1
    14    15    16    1
    15   114   113    1
    16   114   115    2
    17   113   112    1
    18    17    16    1
    19    17    18    2
    20     9    10    1
    21    16    19    1
    22    11    12    2
    23    11    10    1
    24    56    57    1
    25    77    78    2
    26    77    79   am
    27   112   109   am
    28    68    67    2
    29    10    13    1
    30    67    66    1
    31    90    89    2
    32   109   110    2
    33   109   108    1
    34   106   105    2
    35    57    58    1
    36    57    60    1
    37   104   105    1
    38   104   103    1
    39   105   107   am
    40    19    20    1
    41    63    62   ar
    42   108   107    1
    43   108   111    1
    44   103    98   am
    45    20    21    1
    46    58    59    2
    47    58    65   am
    48    91    92    1
    49    91    88    1
    50    62    61    1
    51    62    64   ar
    52    66    65    1
    53    66    69    1
    54    89    88    1
    55    89    96   am
    56    92    93    1
    57    61    60    1
    58    13    14    1
    59    98    97    1
    60    98    99    2
    61    87    88    1
    62    97    96    1
    63    97   100    1
    64    21    22    1
    65    69    70    1
    66    69    71    1
    67    22    23    1
    68    93    94    1
    69   100   102    1
    70   100   101    1
    71    94    95    1
    72    54    53    2
    73    51    50    2
    74    53    55   am
    75    53    52    1
    76    52    49    1
    77    50    49    1
    78    49    48    1
    79    47    46    2
    80    45    46    1
    81    45    44    1
    82    27    26    2
    83    28    29    1
    84    28    25    1
    85    24    25    1
    86    30    29   ar
    87    85    84    1
    88    29    31   ar
    89    25    26    1
    90    26    32   am
    91    84    86    1
    92    84    81    1
    93    35    34    2
    94    36    37    1
    95    36    33    1
    96    82    81    1
    97    82    83    2
    98    32    33    1
    99    39    37   ar
   100    39    41   ar
   101    81    80    1
   102    37    38   ar
   103    33    34    1
   104    41    42   ar
   105    38    40   ar
   106    42    40   ar
   107    42    43    1
