@<TRIPOS>MOLECULE
tmp/3v5dA00.pdb
 162 155 0 0 0
SMALL
GASTEIGER

@<TRIPOS>ATOM
      1  N        -14.0110   -9.5230   20.6460 N.3    72  GLN72      -0.1231
      2  CA       -15.3820   -9.9930   20.5130 C.3    72  GLN72       0.1698
      3  C        -16.1130   -9.3020   19.3940 C.2    72  GLN72       0.2592
      4  O        -16.8590   -9.9650   18.6700 O.2    72  GLN72      -0.2718
      5  CB       -16.1230   -9.9000   21.8480 C.3    72  GLN72       0.0381
      6  CG       -15.5160  -10.8140   22.9270 C.3    72  GLN72       0.0905
      7  CD       -15.2470  -12.2250   22.4440 C.2    72  GLN72       0.2608
      8  OE1      -16.1560  -12.9670   22.0600 O.2    72  GLN72      -0.2717
      9  NE2      -13.9820  -12.6090   22.4250 N.am   72  GLN72      -0.0878
     10  N        -15.8820   -7.9880   19.2100 N.am   73  THR73      -0.1953
     11  CA       -16.5040   -7.2480   18.1030 C.3    73  THR73       0.1897
     12  C        -16.0470   -7.8660   16.7650 C.2    73  THR73       0.2313
     13  O        -16.8980   -8.2290   15.9600 O.2    73  THR73      -0.2863
     14  CB       -16.2070   -5.7400   18.1820 C.3    73  THR73       0.1794
     15  OG1      -16.2140   -5.3040   19.5430 O.3    73  THR73      -0.2208
     16  CG2      -17.2000   -4.9300   17.3940 C.3    73  THR73       0.0378
     17  N        -17.4530  -11.3410   15.8710 N.3    76  VAL76      -0.1231
     18  CA       -18.8090  -11.1780   15.3310 C.3    76  VAL76       0.1692
     19  C        -18.6850  -10.6440   13.9020 C.2    76  VAL76       0.2592
     20  O        -19.2770  -11.2190   12.9920 O.2    76  VAL76      -0.2718
     21  CB       -19.6820  -10.2660   16.2490 C.3    76  VAL76       0.0266
     22  CG1      -21.0360   -9.9630   15.6170 C.3    76  VAL76       0.0020
     23  CG2      -19.8700  -10.8920   17.6300 C.3    76  VAL76       0.0020
     24  N        -17.8690   -9.5810   13.7130 N.am   77  ASP77      -0.1974
     25  CA       -17.5610   -8.9350   12.4280 C.3    77  ASP77       0.1709
     26  C        -17.2210   -9.8950   11.2860 C.2    77  ASP77       0.2293
     27  O        -17.6400   -9.6550   10.1510 O.2    77  ASP77      -0.2864
     28  CB       -16.4470   -7.8870   12.6030 C.3    77  ASP77       0.1436
     29  CG       -16.8740   -6.5570   13.1950 C.2    77  ASP77       0.3671
     30  OD1      -18.0830   -6.3100   13.2920 O.co2  77  ASP77      -0.2456
     31  OD2      -15.9960   -5.7460   13.5060 O.co2  77  ASP77      -0.2456
     32  N        -20.4310  -11.4530   10.0600 N.3    80  THR80      -0.1203
     33  CA       -21.1580  -10.4120    9.3300 C.3    80  THR80       0.1994
     34  C        -20.6420  -10.2590    7.8920 C.2    80  THR80       0.2617
     35  O        -21.4470  -10.2220    6.9630 O.2    80  THR80      -0.2717
     36  CB       -21.1240   -9.0780   10.1170 C.3    80  THR80       0.1784
     37  OG1      -21.4490   -9.3110   11.4910 O.3    80  THR80      -0.2211
     38  CG2      -22.0840   -8.0470    9.5490 C.3    80  THR80       0.0376
     39  N        -19.3080  -10.1660    7.7180 N.am   81  LEU81      -0.1979
     40  CA       -18.6510   -9.9920    6.4150 C.3    81  LEU81       0.1596
     41  C        -18.8010  -11.1830    5.4910 C.2    81  LEU81       0.2287
     42  O        -19.0770  -10.9890    4.3140 O.2    81  LEU81      -0.2864
     43  CB       -17.1740   -9.6210    6.5900 C.3    81  LEU81       0.0297
     44  CG       -16.9230   -8.1830    7.0010 C.3    81  LEU81       0.0022
     45  CD1      -15.7100   -8.0750    7.8610 C.3    81  LEU81       0.0001
     46  CD2      -16.7320   -7.3100    5.8110 C.3    81  LEU81       0.0001
     47  N        -22.1390  -10.7530    4.1570 N.3    84  TYR84      -0.1241
     48  CA       -22.1390   -9.6300    3.2020 C.3    84  TYR84       0.1605
     49  C        -21.5930  -10.0140    1.8240 C.2    84  TYR84       0.2264
     50  O        -22.0520   -9.4720    0.8230 O.2    84  TYR84      -0.2867
     51  CB       -21.2920   -8.4540    3.7240 C.3    84  TYR84       0.0534
     52  CG       -21.8780   -7.5900    4.8260 C.ar   84  TYR84      -0.0201
     53  CD1      -23.2510   -7.5660    5.0720 C.ar   84  TYR84      -0.0009
     54  CD2      -21.0650   -6.7570    5.5910 C.ar   84  TYR84      -0.0009
     55  CE1      -23.7920   -6.7580    6.0720 C.ar   84  TYR84       0.0417
     56  CE2      -21.5990   -5.9250    6.5730 C.ar   84  TYR84       0.0417
     57  CZ       -22.9640   -5.9270    6.8090 C.ar   84  TYR84       0.1957
     58  OH       -23.4860   -5.1340    7.7990 O.3    84  TYR84      -0.2866
     59  N         -9.7690   -9.9040    8.7840 N.3    95  VAL95      -0.1245
     60  CA       -10.2790   -8.5630    9.0630 C.3    95  VAL95       0.1561
     61  C         -9.1250   -7.8390    9.7350 C.2    95  VAL95       0.2260
     62  O         -8.5350   -8.3780   10.6760 O.2    95  VAL95      -0.2867
     63  CB       -11.5490   -8.5310    9.9550 C.3    95  VAL95       0.0252
     64  CG1      -11.9750   -7.0920   10.2760 C.3    95  VAL95       0.0019
     65  CG2      -12.6880   -9.2950    9.3110 C.3    95  VAL95       0.0019
     66  N         -7.9160   -3.8890   11.3140 N.3    97  ARG97      -0.1245
     67  CA        -8.3320   -2.5740   11.7680 C.3    97  ARG97       0.1563
     68  C         -7.1350   -1.7970   12.2560 C.2    97  ARG97       0.2260
     69  O         -6.2850   -2.3200   12.9790 O.2    97  ARG97      -0.2867
     70  CB        -9.4070   -2.6470   12.8590 C.3    97  ARG97       0.0307
     71  CG       -10.1710   -1.3350   13.0380 C.3    97  ARG97       0.0489
     72  CD       -10.6090   -1.0310   14.4690 C.3    97  ARG97       0.2205
     73  NE       -11.2360   -2.1570   15.1750 N.pl3  97  ARG97      -0.0865
     74  CZ       -11.8590   -2.0460   16.3440 C.cat  97  ARG97       0.5346
     75  NH1      -12.0070   -0.8580   16.9150 N.pl3  97  ARG97       0.1354
     76  NH2      -12.3590   -3.1180   16.9410 N.pl3  97  ARG97       0.1354
     77  N        -10.7020   -0.0770    8.1220 N.3   116  TYR116     -0.1241
     78  CA       -10.8530   -1.5240    8.0730 C.3   116  TYR116      0.1605
     79  C        -10.4560   -2.1010    6.7240 C.2   116  TYR116      0.2264
     80  O        -10.5870   -1.4450    5.6890 O.2   116  TYR116     -0.2867
     81  CB       -12.3140   -1.9240    8.3470 C.3   116  TYR116      0.0534
     82  CG       -12.7920   -1.7160    9.7640 C.ar  116  TYR116     -0.0201
     83  CD1      -13.1590   -0.4540   10.2180 C.ar  116  TYR116     -0.0009
     84  CD2      -12.9620   -2.7950   10.6270 C.ar  116  TYR116     -0.0009
     85  CE1      -13.6580   -0.2640   11.5060 C.ar  116  TYR116      0.0417
     86  CE2      -13.4670   -2.6190   11.9170 C.ar  116  TYR116      0.0417
     87  CZ       -13.8250   -1.3520   12.3490 C.ar  116  TYR116      0.1957
     88  OH       -14.3110   -1.1590   13.6210 O.3   116  TYR116     -0.2866
     89  N        -11.9770   -1.8700    3.1920 N.3   123  TYR123     -0.1227
     90  CA       -13.4100   -2.1220    3.3830 C.3   123  TYR123      0.1736
     91  C        -14.0980   -0.7870    3.6070 C.2   123  TYR123      0.2595
     92  O        -14.8380   -0.3320    2.7390 O.2   123  TYR123     -0.2718
     93  CB       -13.6830   -3.1110    4.5400 C.3   123  TYR123      0.0548
     94  CG       -15.1580   -3.4000    4.7420 C.ar  123  TYR123     -0.0200
     95  CD1      -15.8420   -4.2630    3.8930 C.ar  123  TYR123     -0.0009
     96  CD2      -15.8750   -2.7920    5.7700 C.ar  123  TYR123     -0.0009
     97  CE1      -17.2070   -4.4940    4.0430 C.ar  123  TYR123      0.0417
     98  CE2      -17.2420   -3.0270    5.9360 C.ar  123  TYR123      0.0417
     99  CZ       -17.8900   -3.9200    5.1000 C.ar  123  TYR123      0.1957
    100  OH       -19.2210   -4.1830    5.2620 O.3   123  TYR123     -0.2866
    101  N        -13.8440   -0.1580    4.7720 N.am  124  ILE124     -0.1980
    102  CA       -14.3760    1.1610    5.1440 C.3   124  ILE124      0.1595
    103  C        -13.2650    1.9800    5.8240 C.2   124  ILE124      0.2287
    104  O        -12.3780    1.3920    6.4490 O.2   124  ILE124     -0.2864
    105  CB       -15.6780    1.0510    6.0060 C.3   124  ILE124      0.0276
    106  CG1      -16.4670    2.3910    6.0300 C.3   124  ILE124      0.0022
    107  CG2      -15.4120    0.4840    7.4180 C.3   124  ILE124      0.0022
    108  CD1      -17.9140    2.2950    6.5110 C.3   124  ILE124      0.0001
    109  N        -22.5800   -1.1550    6.0880 N.3   143  THR143     -0.1218
    110  CA       -21.8160   -0.6730    7.2420 C.3   143  THR143      0.1862
    111  C        -21.8210    0.8710    7.2970 C.2   143  THR143      0.2287
    112  O        -22.0550    1.4490    8.3660 O.2   143  THR143     -0.2866
    113  CB       -20.3940   -1.2680    7.2050 C.3   143  THR143      0.1770
    114  OG1      -20.4810   -2.6820    7.3740 O.3   143  THR143     -0.2211
    115  CG2      -19.4810   -0.6820    8.2620 C.3   143  THR143      0.0375
    116  N        -25.2740    2.0980    8.2560 N.3   146  LYS146     -0.1231
    117  CA       -25.4500    1.6790    9.6610 C.3   146  LYS146      0.1693
    118  C        -24.7130    2.6440   10.6180 C.2   146  LYS146      0.2592
    119  O        -25.2560    3.0010   11.6700 O.2   146  LYS146     -0.2718
    120  CB       -24.8620    0.2720    9.8400 C.3   146  LYS146      0.0285
    121  CG       -25.5490   -0.6280   10.8550 C.3   146  LYS146      0.0035
    122  CD       -24.8840   -2.0160   10.8930 C.3   146  LYS146      0.0206
    123  CE       -25.2130   -2.9200    9.7200 C.3   146  LYS146      0.1093
    124  NZ       -26.5810   -3.5050    9.8130 N.3   146  LYS146     -0.1314
    125  N        -23.4800    3.0580   10.2510 N.am  147  TRP147     -0.1976
    126  CA       -22.6880    3.9770   11.0650 C.3   147  TRP147      0.1640
    127  C        -23.0880    5.4420   10.9170 C.2   147  TRP147      0.2290
    128  O        -22.9890    6.1860   11.8950 O.2   147  TRP147     -0.2864
    129  CB       -21.1800    3.7670   10.8770 C.3   147  TRP147      0.0576
    130  CG       -20.6630    2.4340   11.3580 C.ar  147  TRP147      0.0006
    131  CD1      -21.3500    1.4720   12.0510 C.ar  147  TRP147      0.0946
    132  CD2      -19.3360    1.9320   11.1860 C.ar  147  TRP147      0.0152
    133  NE1      -20.5380    0.3900   12.2870 N.ar  147  TRP147     -0.2442
    134  CE2      -19.2950    0.6450   11.7690 C.ar  147  TRP147      0.0810
    135  CE3      -18.1850    2.4260   10.5500 C.ar  147  TRP147      0.0012
    136  CZ2      -18.1390   -0.1370   11.7650 C.ar  147  TRP147      0.0191
    137  CZ3      -17.0370    1.6560   10.5590 C.ar  147  TRP147      0.0001
    138  CH2      -17.0150    0.3980   11.1730 C.ar  147  TRP147      0.0015
    139  N        -21.8030    7.2220   14.4500 N.3   152  VAL152     -0.1245
    140  CA       -20.5870    6.5720   14.9500 C.3   152  VAL152      0.1561
    141  C        -19.3440    7.4740   14.8500 C.2   152  VAL152      0.2260
    142  O        -18.5640    7.5320   15.8060 O.2   152  VAL152     -0.2867
    143  CB       -20.3760    5.1740   14.3050 C.3   152  VAL152      0.0252
    144  CG1      -19.0490    4.5390   14.7330 C.3   152  VAL152      0.0019
    145  CG2      -21.5350    4.2410   14.6320 C.3   152  VAL152      0.0019
    146  N        -18.4570    9.9200   17.8280 N.3   155  GLN155     -0.1231
    147  CA       -17.8340    9.1930   18.9380 C.3   155  GLN155      0.1698
    148  C        -16.3670    8.8700   18.6170 C.2   155  GLN155      0.2592
    149  O        -15.5300    8.8330   19.5220 O.2   155  GLN155     -0.2718
    150  CB       -18.6060    7.8950   19.2100 C.3   155  GLN155      0.0381
    151  CG       -19.9960    8.0970   19.7830 C.3   155  GLN155      0.0905
    152  CD       -20.7640    6.8110   19.7470 C.2   155  GLN155      0.2608
    153  OE1      -21.3760    6.4560   18.7360 O.2   155  GLN155     -0.2717
    154  NE2      -20.7390    6.0820   20.8510 N.am  155  GLN155     -0.0878
    155  N        -16.0580    8.6390   17.3270 N.am  156  LEU156     -0.1980
    156  CA       -14.6980    8.3440   16.8860 C.3   156  LEU156      0.1596
    157  C        -13.7950    9.5700   16.8620 C.2   156  LEU156      0.2287
    158  O        -12.6230    9.4660   17.2000 O.2   156  LEU156     -0.2864
    159  CB       -14.7010    7.6070   15.5500 C.3   156  LEU156      0.0297
    160  CG       -14.9650    6.1160   15.6610 C.3   156  LEU156      0.0022
    161  CD1      -15.2390    5.5160   14.3200 C.3   156  LEU156      0.0001
    162  CD2      -13.8000    5.4040   16.3140 C.3   156  LEU156      0.0001
@<TRIPOS>BOND
     1    50    49    2
     2    49    48    1
     3    92    91    2
     4    89    90    1
     5    48    51    1
     6    48    47    1
     7    90    91    1
     8    90    93    1
     9    91   101   am
    10    51    52    1
    11    95    97   ar
    12    95    94   ar
    13    97    99   ar
    14    42    41    2
    15    93    94    1
    16    94    96   ar
    17   101   102    1
    18    52    53   ar
    19    52    54   ar
    20    53    55   ar
    21    99   100    1
    22    99    98   ar
    23   102   103    1
    24   102   105    1
    25    41    40    1
    26    54    56   ar
    27    80    79    2
    28    96    98   ar
    29    46    44    1
    30   103   104    2
    31   105   106    1
    32   105   107    1
    33   106   108    1
    34    55    57   ar
    35   109   110    1
    36    40    43    1
    37    40    39    1
    38    56    57   ar
    39    43    44    1
    40    79    78    1
    41    57    58    1
    42    35    34    2
    43    44    45    1
    44   113   110    1
    45   113   114    1
    46   113   115    1
    47   110   111    1
    48   111   112    2
    49    39    34   am
    50    34    33    1
    51    78    77    1
    52    78    81    1
    53   116   117    1
    54    81    82    1
    55    59    60    1
    56    60    61    1
    57    60    63    1
    58    65    63    1
    59    33    32    1
    60    33    36    1
    61    38    36    1
    62   117   120    1
    63   117   118    1
    64   123   124    1
    65   123   122    1
    66    61    62    2
    67    82    83   ar
    68    82    84   ar
    69   120   121    1
    70    63    64    1
    71    36    37    1
    72    27    26    2
    73    83    85   ar
    74   125   118   am
    75   125   126    1
    76   135   137   ar
    77   135   132   ar
    78   137   138   ar
    79   118   119    2
    80    84    86   ar
    81   121   122    1
    82   129   126    1
    83   129   130    1
    84   127   126    1
    85   127   128    2
    86   138   136   ar
    87   132   130   ar
    88   132   134   ar
    89    26    25    1
    90    66    67    1
    91   130   131   ar
    92    85    87   ar
    93   136   134   ar
    94    67    68    1
    95    67    70    1
    96   134   133   ar
    97    86    87   ar
    98   131   133   ar
    99    68    69    2
   100    87    88    1
   101    25    28    1
   102    25    24    1
   103    28    29    1
   104    70    71    1
   105    20    19    2
   106    71    72    1
   107    29    30   ar
   108    29    31   ar
   109    24    19   am
   110    19    18    1
   111   143   145    1
   112   143   144    1
   113   143   140    1
   114   161   160    1
   115   139   140    1
   116    72    73    1
   117   141   140    1
   118   141   142    2
   119    73    74    2
   120    18    17    1
   121    18    21    1
   122   159   160    1
   123   159   156    1
   124    22    21    1
   125   160   162    1
   126    13    12    2
   127    21    23    1
   128    74    75    1
   129    74    76    1
   130    12    11    1
   131   157   156    1
   132   157   158    2
   133   156   155    1
   134   155   148   am
   135    16    14    1
   136   146   147    1
   137    11    14    1
   138    11    10    1
   139    14    15    1
   140   148   147    1
   141   148   149    2
   142     4     3    2
   143   153   152    2
   144   147   150    1
   145   150   151    1
   146    10     3   am
   147     3     2    1
   148   152   151    1
   149   152   154   am
   150     2     1    1
   151     2     5    1
   152     5     6    1
   153     8     7    2
   154     9     7   am
   155     7     6    1
