@<TRIPOS>MOLECULE
tmp/3v5gA03.pdb
 94 90 0 0 0
SMALL
GASTEIGER

@<TRIPOS>ATOM
      1  N        -16.4100    7.3350    2.9380 N.3    54  LEU54      -0.1245
      2  CA       -15.8490    7.9690    1.7530 C.3    54  LEU54       0.1561
      3  C        -14.9900    7.0690    0.8820 C.2    54  LEU54       0.2260
      4  O        -15.1710    7.0040   -0.3350 O.2    54  LEU54      -0.2867
      5  CB       -14.9930    9.1690    2.1690 C.3    54  LEU54       0.0270
      6  CG       -15.6550   10.4840    2.5740 C.3    54  LEU54       0.0019
      7  CD1      -14.7190   11.2770    3.4700 C.3    54  LEU54       0.0001
      8  CD2      -16.0060   11.2770    1.3200 C.3    54  LEU54       0.0001
      9  N         -8.9530    2.0820    2.0660 N.3    57  LEU57      -0.1245
     10  CA        -7.5270    2.1140    1.7590 C.3    57  LEU57       0.1561
     11  C         -6.7020    0.9680    2.3340 C.2    57  LEU57       0.2260
     12  O         -6.8720    0.5930    3.4880 O.2    57  LEU57      -0.2867
     13  CB        -6.9400    3.4280    2.2900 C.3    57  LEU57       0.0270
     14  CG        -5.4150    3.5700    2.3430 C.3    57  LEU57       0.0019
     15  CD1       -4.8890    3.8480    0.9390 C.3    57  LEU57       0.0001
     16  CD2       -5.0230    4.7020    3.2890 C.3    57  LEU57       0.0001
     17  N         -8.4390    0.3880    5.8040 N.3    64  ASN64      -0.1240
     18  CA        -9.2790    1.3240    6.5390 C.3    64  ASN64       0.1653
     19  C        -10.4600    1.8320    5.7340 C.2    64  ASN64       0.2266
     20  O        -10.2960    2.2810    4.6020 O.2    64  ASN64      -0.2867
     21  CB        -8.4760    2.5670    6.9580 C.3    64  ASN64       0.1155
     22  CG        -7.4160    2.2790    8.0000 C.2    64  ASN64       0.2627
     23  OD1       -6.6450    3.1720    8.3650 O.2    64  ASN64      -0.2716
     24  ND2       -7.3660    1.0500    8.4850 N.am   64  ASN64      -0.0877
     25  N        -12.6760    4.7370    5.5850 N.3    66  GLU66      -0.1231
     26  CA       -12.6460    6.1050    6.0950 C.3    66  GLU66       0.1699
     27  C        -13.9790    6.8220    5.9810 C.2    66  GLU66       0.2592
     28  O        -14.7250    6.6100    5.0260 O.2    66  GLU66      -0.2718
     29  CB       -11.5700    6.8940    5.3460 C.3    66  GLU66       0.0402
     30  CG       -10.2320    6.1750    5.3110 C.3    66  GLU66       0.1161
     31  CD        -9.3040    6.7060    4.2370 C.2    66  GLU66       0.3649
     32  OE1       -9.8020    7.3130    3.2640 O.co2  66  GLU66      -0.2457
     33  OE2       -8.0790    6.4990    4.3570 O.co2  66  GLU66      -0.2457
     34  N        -14.2590    7.6830    6.9580 N.am   67  PHE67      -0.1962
     35  CA       -15.5040    8.4420    6.9920 C.3    67  PHE67       0.1771
     36  C        -15.2800    9.9430    6.9460 C.2    67  PHE67       0.2620
     37  O        -14.2070   10.4380    7.2860 O.2    67  PHE67      -0.2715
     38  CB       -16.2980    8.1090    8.2630 C.3    67  PHE67       0.0574
     39  CG       -16.8260    6.7100    8.2910 C.ar   67  PHE67      -0.0200
     40  CD1      -15.9790    5.6380    8.5510 C.ar   67  PHE67      -0.0042
     41  CD2      -18.1600    6.4540    7.9940 C.ar   67  PHE67      -0.0042
     42  CE1      -16.4510    4.3330    8.5080 C.ar   67  PHE67      -0.0003
     43  CE2      -18.6430    5.1500    7.9470 C.ar   67  PHE67      -0.0003
     44  CZ       -17.7870    4.0880    8.2030 C.ar   67  PHE67      -0.0000
     45  N        -16.3060   10.6620    6.5050 N.am   68  ASP68      -0.1957
     46  CA       -16.2600   12.1150    6.4620 C.3    68  ASP68       0.1840
     47  C        -16.6350   12.5370    7.8820 C.2    68  ASP68       0.2622
     48  O        -17.7820   12.3730    8.2980 O.2    68  ASP68      -0.2715
     49  CB       -17.2890   12.6400    5.4550 C.3    68  ASP68       0.1450
     50  CG       -17.4500   14.1490    5.5060 C.2    68  ASP68       0.3671
     51  OD1      -18.2360   14.6850    4.6950 O.co2  68  ASP68      -0.2456
     52  OD2      -16.8040   14.7980    6.3530 O.co2  68  ASP68      -0.2456
     53  N        -15.6620   13.0610    8.6240 N.am   69  ASP69      -0.1957
     54  CA       -15.8750   13.4880   10.0050 C.3    69  ASP69       0.1840
     55  C        -15.8530   15.0090   10.1530 C.2    69  ASP69       0.2622
     56  O        -15.5440   15.5300   11.2260 O.2    69  ASP69      -0.2715
     57  CB       -14.8010   12.8730   10.9110 C.3    69  ASP69       0.1450
     58  CG       -13.4030   13.3830   10.5960 C.2    69  ASP69       0.3671
     59  OD1      -12.4460   12.9670   11.2850 O.co2  69  ASP69      -0.2456
     60  OD2      -13.2570   14.2030    9.6620 O.co2  69  ASP69      -0.2456
     61  N        -16.1840   15.7170    9.0780 N.am   70  SER70      -0.1950
     62  CA       -16.1790   17.1770    9.1060 C.3    70  SER70       0.1924
     63  C        -17.4350   17.7440    9.7570 C.2    70  SER70       0.2314
     64  O        -17.4880   18.9290   10.0980 O.2    70  SER70      -0.2863
     65  CB       -16.0440   17.7290    7.6860 C.3    70  SER70       0.2116
     66  OG       -17.1780   17.4110    6.9020 O.3    70  SER70      -0.2180
     67  N        -14.0750    8.2160   12.6700 N.3    88  ILE88      -0.1231
     68  CA       -13.2060    8.6460   11.5830 C.3    88  ILE88       0.1692
     69  C        -12.8550    7.4890   10.6370 C.2    88  ILE88       0.2591
     70  O        -12.7040    7.6930    9.4360 O.2    88  ILE88      -0.2718
     71  CB       -11.9130    9.3240   12.1350 C.3    88  ILE88       0.0266
     72  CG1      -11.0080    9.7440   10.9770 C.3    88  ILE88       0.0019
     73  CG2      -11.1790    8.3880   13.0800 C.3    88  ILE88       0.0020
     74  CD1       -9.8820   10.6850   11.3750 C.3    88  ILE88       0.0001
     75  N        -12.7530    6.2730   11.1680 N.am   89  GLN89      -0.1979
     76  CA       -12.4280    5.1120   10.3370 C.3    89  GLN89       0.1601
     77  C        -12.5820    3.8180   11.1190 C.2    89  GLN89       0.2287
     78  O        -12.6580    3.8330   12.3470 O.2    89  GLN89      -0.2864
     79  CB       -10.9700    5.1960    9.8480 C.3    89  GLN89       0.0394
     80  CG        -9.9320    5.2590   10.9870 C.3    89  GLN89       0.0908
     81  CD        -9.1450    3.9670   11.1910 C.2    89  GLN89       0.2608
     82  OE1       -9.6670    2.8650   11.0190 O.2    89  GLN89      -0.2717
     83  NE2       -7.8830    4.1050   11.5870 N.am   89  GLN89      -0.0878
     84  N         -8.6230   14.8340   14.6740 N.3   127  PHE127     -0.1241
     85  CA        -7.8430   13.6640   15.0440 C.3   127  PHE127      0.1605
     86  C         -6.4060   13.9830   15.4410 C.2   127  PHE127      0.2264
     87  O         -5.8960   13.4470   16.4290 O.2   127  PHE127     -0.2867
     88  CB        -7.8600   12.6570   13.8910 C.3   127  PHE127      0.0534
     89  CG        -7.2090   11.3490   14.2200 C.ar  127  PHE127     -0.0203
     90  CD1       -5.8480   11.1590   14.0120 C.ar  127  PHE127     -0.0042
     91  CD2       -7.9570   10.3080   14.7630 C.ar  127  PHE127     -0.0042
     92  CE1       -5.2380    9.9520   14.3390 C.ar  127  PHE127     -0.0003
     93  CE2       -7.3580    9.0970   15.0950 C.ar  127  PHE127     -0.0003
     94  CZ        -5.9960    8.9190   14.8820 C.ar  127  PHE127     -0.0000
@<TRIPOS>BOND
     1     4     3    2
     2     3     2    1
     3    15    14    1
     4     8     6    1
     5     2     5    1
     6     2     1    1
     7    10     9    1
     8    10    13    1
     9    10    11    1
    10     5     6    1
    11    13    14    1
    12    11    12    2
    13    14    16    1
    14     6     7    1
    15    32    31   ar
    16    31    33   ar
    17    31    30    1
    18    20    19    2
    19    51    50   ar
    20    28    27    2
    21    30    29    1
    22    29    26    1
    23    49    50    1
    24    49    46    1
    25    50    52   ar
    26    25    26    1
    27    19    18    1
    28    17    18    1
    29    27    26    1
    30    27    34   am
    31    46    45    1
    32    46    47    1
    33    45    36   am
    34    18    21    1
    35    66    65    1
    36    36    35    1
    37    36    37    2
    38    34    35    1
    39    21    22    1
    40    35    38    1
    41    65    62    1
    42    47    48    2
    43    47    53   am
    44    43    41   ar
    45    43    44   ar
    46    41    39   ar
    47    22    23    2
    48    22    24   am
    49    44    42   ar
    50    38    39    1
    51    39    40   ar
    52    42    40   ar
    53    53    54    1
    54    61    62    1
    55    61    55   am
    56    62    63    1
    57    70    69    2
    58    60    58   ar
    59    63    64    2
    60    79    76    1
    61    79    80    1
    62    54    55    1
    63    54    57    1
    64    55    56    2
    65    76    77    1
    66    76    75    1
    67    58    57    1
    68    58    59   ar
    69    69    75   am
    70    69    68    1
    71    72    74    1
    72    72    71    1
    73    80    81    1
    74    82    81    2
    75    77    78    2
    76    81    83   am
    77    68    71    1
    78    68    67    1
    79    71    73    1
    80    88    89    1
    81    88    85    1
    82    90    89   ar
    83    90    92   ar
    84    89    91   ar
    85    92    94   ar
    86    84    85    1
    87    91    93   ar
    88    94    93   ar
    89    85    86    1
    90    86    87    2
