@<TRIPOS>MOLECULE
tmp/3v5gA01.pdb
 136 135 0 0 0
SMALL
GASTEIGER

@<TRIPOS>ATOM
      1  N          8.2350   -0.5190   10.1850 N.3     2  TRP2       -0.1241
      2  CA         7.5970   -1.4550   11.1030 C.3     2  TRP2        0.1605
      3  C          6.5400   -2.2880   10.3890 C.2     2  TRP2        0.2264
      4  O          5.9450   -1.8510    9.4020 O.2     2  TRP2       -0.2867
      5  CB         6.9540   -0.7220   12.2900 C.3     2  TRP2        0.0550
      6  CG         5.7080    0.0490   11.9530 C.ar    2  TRP2        0.0003
      7  CD1        5.6280    1.3620   11.5990 C.ar    2  TRP2        0.0946
      8  CD2        4.3660   -0.4540   11.9430 C.ar    2  TRP2        0.0152
      9  NE1        4.3180    1.7120   11.3720 N.ar    2  TRP2       -0.2442
     10  CE2        3.5220    0.6150   11.5770 C.ar    2  TRP2        0.0810
     11  CE3        3.7920   -1.7050   12.2110 C.ar    2  TRP2        0.0012
     12  CZ2        2.1340    0.4740   11.4670 C.ar    2  TRP2        0.0191
     13  CZ3        2.4120   -1.8450   12.1030 C.ar    2  TRP2        0.0001
     14  CH2        1.6010   -0.7600   11.7350 C.ar    2  TRP2        0.0015
     15  N         -3.3800    0.3070    3.6770 N.3    59  ASN59      -0.1240
     16  CA        -2.2350    1.1100    4.1110 C.3    59  ASN59       0.1653
     17  C         -0.9810    0.2870    4.3770 C.2    59  ASN59       0.2266
     18  O         -0.0220    0.7770    4.9770 O.2    59  ASN59      -0.2867
     19  CB        -2.5790    1.9300    5.3650 C.3    59  ASN59       0.1155
     20  CG        -3.0100    1.0680    6.5280 C.2    59  ASN59       0.2627
     21  OD1       -2.5910   -0.0780    6.6520 O.2    59  ASN59      -0.2716
     22  ND2       -3.8440    1.6230    7.3970 N.am   59  ASN59      -0.0877
     23  N        -12.7530    6.2730   11.1680 N.3    89  GLN89      -0.1245
     24  CA       -12.4280    5.1120   10.3370 C.3    89  GLN89       0.1566
     25  C        -12.5820    3.8180   11.1190 C.2    89  GLN89       0.2260
     26  O        -12.6580    3.8330   12.3470 O.2    89  GLN89      -0.2867
     27  CB       -10.9700    5.1960    9.8480 C.3    89  GLN89       0.0367
     28  CG        -9.9320    5.2590   10.9870 C.3    89  GLN89       0.0905
     29  CD        -9.1450    3.9670   11.1910 C.2    89  GLN89       0.2608
     30  OE1       -9.6670    2.8650   11.0190 O.2    89  GLN89      -0.2717
     31  NE2       -7.8830    4.1050   11.5870 N.am   89  GLN89      -0.0878
     32  N        -11.2890   -0.5570   10.8900 N.3    91  HIS91      -0.1241
     33  CA       -10.4220   -1.5260   10.2430 C.3    91  HIS91       0.1621
     34  C        -10.4530   -2.7900   11.0760 C.2    91  HIS91       0.2264
     35  O        -11.0580   -2.8140   12.1480 O.2    91  HIS91      -0.2867
     36  CB        -8.9850   -1.0040   10.1720 C.3    91  HIS91       0.0745
     37  CG        -8.3980   -0.6840   11.5110 C.ar   91  HIS91       0.0817
     38  ND1       -8.5670    0.5200   12.1580 N.ar   91  HIS91      -0.2268
     39  CD2       -7.7000   -1.4690   12.3700 C.ar   91  HIS91       0.1154
     40  CE1       -7.9850    0.4240   13.3670 C.ar   91  HIS91       0.1986
     41  NE2       -7.4460   -0.7670   13.5370 N.ar   91  HIS91      -0.2212
     42  N         -8.1460   -6.5700   12.3370 N.3    93  HIS93      -0.1241
     43  CA        -6.8760   -7.2420   12.5900 C.3    93  HIS93       0.1621
     44  C         -7.3120   -8.6990   12.4860 C.2    93  HIS93       0.2264
     45  O         -8.3480   -9.0730   13.0440 O.2    93  HIS93      -0.2867
     46  CB        -6.3540   -6.9390   13.9960 C.3    93  HIS93       0.0745
     47  CG        -6.0080   -5.4990   14.2070 C.ar   93  HIS93       0.0817
     48  ND1       -4.7580   -4.9860   13.9380 N.ar   93  HIS93      -0.2268
     49  CD2       -6.7650   -4.4550   14.6170 C.ar   93  HIS93       0.1154
     50  CE1       -4.7590   -3.6860   14.1750 C.ar   93  HIS93       0.1986
     51  NE2       -5.9650   -3.3390   14.5870 N.ar   93  HIS93      -0.2212
     52  N        -12.0780   -2.6520   14.7470 N.3   116  HIS116     -0.1241
     53  CA       -11.8070   -1.4390   15.5060 C.3   116  HIS116      0.1621
     54  C        -12.4740   -0.2330   14.8590 C.2   116  HIS116      0.2264
     55  O        -12.1200    0.1520   13.7450 O.2   116  HIS116     -0.2867
     56  CB       -10.2990   -1.1920   15.5940 C.3   116  HIS116      0.0745
     57  CG        -9.5870   -2.1420   16.5050 C.ar  116  HIS116      0.0817
     58  ND1       -8.2220   -2.2800   16.4780 N.ar  116  HIS116     -0.2268
     59  CD2      -10.1040   -2.9600   17.4550 C.ar  116  HIS116      0.1154
     60  CE1       -7.9350   -3.1720   17.4050 C.ar  116  HIS116      0.1986
     61  NE2       -9.0400   -3.6140   18.0250 N.ar  116  HIS116     -0.2212
     62  N        -12.7460    3.5060   15.1390 N.3   118  VAL118     -0.1245
     63  CA       -11.9750    4.5990   15.7260 C.3   118  VAL118      0.1561
     64  C        -12.6920    5.9400   15.7780 C.2   118  VAL118      0.2260
     65  O        -13.1840    6.4230   14.7590 O.2   118  VAL118     -0.2867
     66  CB       -10.6550    4.7700   14.9420 C.3   118  VAL118      0.0252
     67  CG1       -9.7420    5.7630   15.6480 C.3   118  VAL118      0.0019
     68  CG2       -9.9730    3.4210   14.7840 C.3   118  VAL118      0.0019
     69  N         -8.6230   14.8340   14.6740 N.3   127  PHE127     -0.1241
     70  CA        -7.8430   13.6640   15.0440 C.3   127  PHE127      0.1605
     71  C         -6.4060   13.9830   15.4410 C.2   127  PHE127      0.2264
     72  O         -5.8960   13.4470   16.4290 O.2   127  PHE127     -0.2867
     73  CB        -7.8600   12.6570   13.8910 C.3   127  PHE127      0.0534
     74  CG        -7.2090   11.3490   14.2200 C.ar  127  PHE127     -0.0203
     75  CD1       -5.8480   11.1590   14.0120 C.ar  127  PHE127     -0.0042
     76  CD2       -7.9570   10.3080   14.7630 C.ar  127  PHE127     -0.0042
     77  CE1       -5.2380    9.9520   14.3390 C.ar  127  PHE127     -0.0003
     78  CE2       -7.3580    9.0970   15.0950 C.ar  127  PHE127     -0.0003
     79  CZ        -5.9960    8.9190   14.8820 C.ar  127  PHE127     -0.0000
     80  N        -11.9010    3.7700   21.0120 N.3   139  VAL139     -0.1245
     81  CA       -11.9980    2.7380   19.9980 C.3   139  VAL139      0.1561
     82  C        -12.9490    1.6570   20.4700 C.2   139  VAL139      0.2260
     83  O        -12.8160    1.1280   21.5780 O.2   139  VAL139     -0.2867
     84  CB       -10.6380    2.0970   19.6700 C.3   139  VAL139      0.0252
     85  CG1      -10.8240    1.0500   18.5720 C.3   139  VAL139      0.0019
     86  CG2       -9.6550    3.1630   19.2090 C.3   139  VAL139      0.0019
     87  N         -2.9340    3.0110   21.0760 N.3   194  LEU194     -0.1231
     88  CA        -3.1010    2.5810   19.7000 C.3   194  LEU194      0.1693
     89  C         -2.3380    1.2550   19.7280 C.2   194  LEU194      0.2593
     90  O         -1.3440    1.1230   20.4580 O.2   194  LEU194     -0.2718
     91  CB        -2.3950    3.5450   18.7480 C.3   194  LEU194      0.0284
     92  CG        -2.8820    4.9920   18.7110 C.3   194  LEU194      0.0019
     93  CD1       -2.0090    5.7900   17.7570 C.3   194  LEU194      0.0001
     94  CD2       -4.3400    5.0400   18.2680 C.3   194  LEU194      0.0001
     95  N         -2.7760    0.2780   18.9440 N.am  195  THR195     -0.1939
     96  CA        -2.1090   -1.0210   18.9360 C.3   195  THR195      0.2028
     97  C         -1.0480   -1.1630   17.8510 C.2   195  THR195      0.2643
     98  O         -0.4620   -2.2320   17.6860 O.2   195  THR195     -0.2714
     99  CB        -3.1210   -2.1610   18.7870 C.3   195  THR195      0.1808
    100  OG1       -3.7420   -2.0770   17.5010 O.3   195  THR195     -0.2208
    101  CG2       -4.1820   -2.0720   19.8760 C.3   195  THR195      0.0379
    102  N         -0.8090   -0.0860   17.1080 N.am  196  THR196     -0.1937
    103  CA         0.2210   -0.0840   16.0750 C.3   196  THR196      0.2013
    104  C          1.0060    1.1970   16.2620 C.2   196  THR196      0.2484
    105  O          0.4960    2.1670   16.8250 O.2   196  THR196     -0.2729
    106  CB        -0.3560   -0.0540   14.6340 C.3   196  THR196      0.1807
    107  OG1       -1.0280    1.1910   14.4130 O.3   196  THR196     -0.2208
    108  CG2       -1.3260   -1.1930   14.4120 C.3   196  THR196      0.0379
    109  N          2.2690    1.2150   15.8160 N.am  197  PRO197     -0.2715
    110  CA         3.0570    2.4400   15.9630 C.3   197  PRO197      0.1521
    111  C          2.2210    3.5810   15.3820 C.2   197  PRO197      0.2440
    112  O          1.5250    3.3950   14.3780 O.2   197  PRO197     -0.2731
    113  CB         4.2930    2.1410   15.1280 C.3   197  PRO197      0.0310
    114  CG         4.4960    0.6770   15.3780 C.3   197  PRO197      0.0237
    115  CD         3.0870    0.1170   15.2710 C.3   197  PRO197      0.0939
    116  N          2.3060    4.7860   15.9640 N.am  198  PRO198     -0.2727
    117  CA         3.1090    5.2250   17.1100 C.3   198  PRO198      0.1402
    118  C          2.7450    4.7500   18.5220 C.2   198  PRO198      0.2269
    119  O          3.3520    5.2030   19.4890 O.2   198  PRO198     -0.2865
    120  CB         3.0670    6.7440   16.9820 C.3   198  PRO198      0.0296
    121  CG         1.6900    6.9810   16.4550 C.3   198  PRO198      0.0237
    122  CD         1.5570    5.9190   15.3870 C.3   198  PRO198      0.0939
    123  N        -10.5640    2.2850   25.5920 N.3   205  TRP205     -0.1241
    124  CA       -11.0220    1.1020   24.8930 C.3   205  TRP205      0.1605
    125  C        -12.3600    0.6210   25.4090 C.2   205  TRP205      0.2264
    126  O        -12.5820    0.5430   26.6110 O.2   205  TRP205     -0.2867
    127  CB        -9.9980   -0.0320   25.0230 C.3   205  TRP205      0.0550
    128  CG        -8.8740    0.0830   24.0550 C.ar  205  TRP205      0.0003
    129  CD1       -7.6630    0.6850   24.2540 C.ar  205  TRP205      0.0946
    130  CD2       -8.8970   -0.3340   22.6880 C.ar  205  TRP205      0.0152
    131  NE1       -6.9320    0.6720   23.0880 N.ar  205  TRP205     -0.2442
    132  CE2       -7.6660    0.0530   22.1120 C.ar  205  TRP205      0.0810
    133  CE3       -9.8420   -0.9970   21.8930 C.ar  205  TRP205      0.0012
    134  CZ2       -7.3590   -0.1980   20.7710 C.ar  205  TRP205      0.0191
    135  CZ3       -9.5380   -1.2480   20.5640 C.ar  205  TRP205      0.0001
    136  CH2       -8.3050   -0.8490   20.0160 C.ar  205  TRP205      0.0015
@<TRIPOS>BOND
     1    15    16    1
     2    16    17    1
     3    16    19    1
     4    17    18    2
     5    19    20    1
     6    20    21    2
     7    20    22   am
     8     4     3    2
     9    27    24    1
    10    27    28    1
    11    36    33    1
    12    36    37    1
    13     1     2    1
    14    33    32    1
    15    33    34    1
    16    24    25    1
    17    24    23    1
    18     3     2    1
    19    28    29    1
    20    30    29    2
    21    34    35    2
    22     2     5    1
    23    25    26    2
    24    29    31   am
    25     9    10   ar
    26     9     7   ar
    27    12    10   ar
    28    12    14   ar
    29    37    38   ar
    30    37    39   ar
    31    10     8   ar
    32     7     6   ar
    33    14    13   ar
    34     8     6   ar
    35     8    11   ar
    36     6     5    1
    37    13    11   ar
    38    38    40   ar
    39    42    43    1
    40    39    41   ar
    41    44    43    1
    42    44    45    2
    43    43    46    1
    44    40    41   ar
    45    55    54    2
    46    73    74    1
    47    73    70    1
    48    48    50   ar
    49    48    47   ar
    50    46    47    1
    51    75    74   ar
    52    75    77   ar
    53    50    51   ar
    54    47    49   ar
    55    74    76   ar
    56    77    79   ar
    57   112   111    2
    58   108   106    1
    59   107   106    1
    60    51    49   ar
    61   106   103    1
    62    69    70    1
    63    52    53    1
    64    65    64    2
    65    76    78   ar
    66    68    66    1
    67    54    53    1
    68    79    78   ar
    69    66    67    1
    70    66    63    1
    71    70    71    1
    72   113   114    1
    73   113   110    1
    74    62    63    1
    75   115   114    1
    76   115   109    1
    77   111   110    1
    78   111   116   am
    79   122   116    1
    80   122   121    1
    81    71    72    2
    82    53    56    1
    83    56    57    1
    84    63    64    1
    85   109   110    1
    86   109   104   am
    87   116   117    1
    88   103   104    1
    89   103   102    1
    90   104   105    2
    91   121   120    1
    92    58    57   ar
    93    58    60   ar
    94    57    59   ar
    95   120   117    1
    96   102    97   am
    97   117   118    1
    98    60    61   ar
    99    59    61   ar
   100   100    99    1
   101    98    97    2
   102    93    92    1
   103    97    96    1
   104    94    92    1
   105   118   119    2
   106    85    84    1
   107    92    91    1
   108    91    88    1
   109    99    96    1
   110    99   101    1
   111    96    95    1
   112    95    89   am
   113    86    84    1
   114    84    81    1
   115    88    89    1
   116    88    87    1
   117    89    90    2
   118    81    82    1
   119    81    80    1
   120   136   135   ar
   121   136   134   ar
   122    82    83    2
   123   135   133   ar
   124   134   132   ar
   125   133   130   ar
   126   132   130   ar
   127   132   131   ar
   128   130   128   ar
   129   131   129   ar
   130   128   129   ar
   131   128   127    1
   132   124   127    1
   133   124   125    1
   134   124   123    1
   135   125   126    2
