@<TRIPOS>MOLECULE
tmp/3v5gA04.pdb
 96 95 0 0 0
SMALL
GASTEIGER

@<TRIPOS>ATOM
      1  N          8.2350   -0.5190   10.1850 N.3     2  TRP2       -0.1227
      2  CA         7.5970   -1.4550   11.1030 C.3     2  TRP2        0.1737
      3  C          6.5400   -2.2880   10.3890 C.2     2  TRP2        0.2596
      4  O          5.9450   -1.8510    9.4020 O.2     2  TRP2       -0.2718
      5  CB         6.9540   -0.7220   12.2900 C.3     2  TRP2        0.0564
      6  CG         5.7080    0.0490   11.9530 C.ar    2  TRP2        0.0003
      7  CD1        5.6280    1.3620   11.5990 C.ar    2  TRP2        0.0946
      8  CD2        4.3660   -0.4540   11.9430 C.ar    2  TRP2        0.0152
      9  NE1        4.3180    1.7120   11.3720 N.ar    2  TRP2       -0.2442
     10  CE2        3.5220    0.6150   11.5770 C.ar    2  TRP2        0.0810
     11  CE3        3.7920   -1.7050   12.2110 C.ar    2  TRP2        0.0012
     12  CZ2        2.1340    0.4740   11.4670 C.ar    2  TRP2        0.0191
     13  CZ3        2.4120   -1.8450   12.1030 C.ar    2  TRP2        0.0001
     14  CH2        1.6010   -0.7600   11.7350 C.ar    2  TRP2        0.0015
     15  N          6.3200   -3.4940   10.8980 N.am    3  GLY3       -0.1942
     16  CA         5.3290   -4.3750   10.3150 C.3     3  GLY3        0.2014
     17  C          4.9830   -5.5240   11.2440 C.2     3  GLY3        0.2639
     18  O          4.9660   -5.3670   12.4690 O.2     3  GLY3       -0.2714
     19  N          4.7080   -6.6870   10.6630 N.am    4  TYR4       -0.1959
     20  CA         4.3650   -7.8630   11.4500 C.3     4  TYR4        0.1771
     21  C          5.2150   -9.0770   11.0960 C.2     4  TYR4        0.2620
     22  O          4.8090  -10.2210   11.3140 O.2     4  TYR4       -0.2715
     23  CB         2.8830   -8.1990   11.2810 C.3     4  TYR4        0.0574
     24  CG         1.9600   -7.1200   11.8010 C.ar    4  TYR4       -0.0198
     25  CD1        1.5080   -6.0990   10.9690 C.ar    4  TYR4       -0.0009
     26  CD2        1.5490   -7.1150   13.1340 C.ar    4  TYR4       -0.0009
     27  CE1        0.6670   -5.1040   11.4430 C.ar    4  TYR4        0.0417
     28  CE2        0.7090   -6.1210   13.6240 C.ar    4  TYR4        0.0417
     29  CZ         0.2680   -5.1190   12.7690 C.ar    4  TYR4        0.1957
     30  OH        -0.5840   -4.1460   13.2200 O.3     4  TYR4       -0.2866
     31  N          6.3970   -8.8220   10.5470 N.am    5  GLY5       -0.1940
     32  CA         7.2980   -9.9030   10.1860 C.3     5  GLY5        0.2014
     33  C          8.2660  -10.2030   11.3120 C.2     5  GLY5        0.2638
     34  O          8.2570   -9.5350   12.3420 O.2     5  GLY5       -0.2714
     35  N          9.1140  -11.2060   11.1220 N.am    6  LYS6       -0.1977
     36  CA        10.0820  -11.5720   12.1460 C.3     6  LYS6        0.1596
     37  C         11.1020  -10.4690   12.4050 C.2     6  LYS6        0.2287
     38  O         11.5900  -10.3100   13.5250 O.2     6  LYS6       -0.2864
     39  CB        10.8120  -12.8590   11.7420 C.3     6  LYS6        0.0298
     40  CG        12.0640  -13.1490   12.5570 C.3     6  LYS6        0.0038
     41  CD        12.5220  -14.5860   12.3770 C.3     6  LYS6        0.0206
     42  CE        12.4540  -15.3380   13.6990 C.3     6  LYS6        0.1093
     43  NZ        11.1070  -15.2370   14.3320 N.3     6  LYS6       -0.1314
     44  N         10.5740   -7.0490   11.7320 N.3     8  ASN8       -0.1240
     45  CA        10.0080   -5.7220   11.9550 C.3     8  ASN8        0.1653
     46  C          8.6970   -5.7930   12.7330 C.2     8  ASN8        0.2266
     47  O          7.9350   -4.8250   12.7670 O.2     8  ASN8       -0.2867
     48  CB         9.7680   -5.0230   10.6140 C.3     8  ASN8        0.1155
     49  CG         8.7300   -5.7300    9.7670 C.2     8  ASN8        0.2627
     50  OD1        8.2800   -6.8220   10.1040 O.2     8  ASN8       -0.2716
     51  ND2        8.3470   -5.1100    8.6550 N.am    8  ASN8       -0.0877
     52  N         -0.8040   -2.2810    6.3190 N.3    61  HIS61      -0.1241
     53  CA        -0.8990   -2.9430    7.6360 C.3    61  HIS61       0.1621
     54  C         -2.2780   -3.5470    7.8590 C.2    61  HIS61       0.2264
     55  O         -2.4290   -4.5350    8.5660 O.2    61  HIS61      -0.2867
     56  CB        -0.5810   -1.9600    8.7620 C.3    61  HIS61       0.0745
     57  CG         0.6390   -1.1400    8.4990 C.ar   61  HIS61       0.0817
     58  ND1        1.9170   -1.6480    8.6090 N.ar   61  HIS61      -0.2268
     59  CD2        0.7710    0.1010    7.9720 C.ar   61  HIS61       0.1154
     60  CE1        2.7790   -0.7600    8.1450 C.ar   61  HIS61       0.1986
     61  NE2        2.1050    0.3060    7.7470 N.ar   61  HIS61      -0.2212
     62  N          0.5340   -7.1490    2.1080 N.3   227  PHE227     -0.1241
     63  CA         1.2220   -6.1500    2.9280 C.3   227  PHE227      0.1605
     64  C          2.0670   -5.3070    1.9740 C.2   227  PHE227      0.2264
     65  O          2.2590   -4.1090    2.1710 O.2   227  PHE227     -0.2867
     66  CB         2.1900   -6.8180    3.9070 C.3   227  PHE227      0.0534
     67  CG         1.5550   -7.3370    5.1640 C.ar  227  PHE227     -0.0203
     68  CD1        1.8570   -8.6170    5.6180 C.ar  227  PHE227     -0.0042
     69  CD2        0.7390   -6.5270    5.9460 C.ar  227  PHE227     -0.0042
     70  CE1        1.3620   -9.0860    6.8290 C.ar  227  PHE227     -0.0003
     71  CE2        0.2370   -6.9860    7.1650 C.ar  227  PHE227     -0.0003
     72  CZ         0.5530   -8.2690    7.6080 C.ar  227  PHE227     -0.0000
     73  N          3.4410  -10.8850   -0.0280 N.3   235  GLU235     -0.1231
     74  CA         3.4420  -11.3090    1.3610 C.3   235  GLU235      0.1699
     75  C          2.0080  -11.0680    1.8020 C.2   235  GLU235      0.2592
     76  O          1.5640   -9.9240    1.9030 O.2   235  GLU235     -0.2718
     77  CB         4.4050  -10.4670    2.1990 C.3   235  GLU235      0.0402
     78  CG         4.6040  -11.0070    3.6110 C.3   235  GLU235      0.1161
     79  CD         5.2020  -12.4060    3.6190 C.2   235  GLU235      0.3649
     80  OE1        6.3310  -12.5760    3.1120 O.co2 235  GLU235     -0.2457
     81  OE2        4.5430  -13.3380    4.1270 O.co2 235  GLU235     -0.2457
     82  N          1.2780  -12.1500    2.0330 N.am  236  LEU236     -0.1980
     83  CA        -0.1180  -12.0490    2.4270 C.3   236  LEU236      0.1596
     84  C         -0.3430  -11.2550    3.7050 C.2   236  LEU236      0.2287
     85  O          0.3920  -11.4040    4.6840 O.2   236  LEU236     -0.2864
     86  CB        -0.7220  -13.4490    2.5780 C.3   236  LEU236      0.0297
     87  CG        -0.7390  -14.2950    1.3010 C.3   236  LEU236      0.0022
     88  CD1       -1.3280  -15.6620    1.6100 C.3   236  LEU236      0.0001
     89  CD2       -1.5440  -13.5880    0.2190 C.3   236  LEU236      0.0001
     90  N         -1.7500  -11.1530    6.6920 N.3   238  VAL238     -0.1245
     91  CA        -2.3320  -12.0290    7.7000 C.3   238  VAL238      0.1561
     92  C         -1.5480  -11.8300    8.9900 C.2   238  VAL238      0.2260
     93  O         -0.3980  -11.3820    8.9610 O.2   238  VAL238     -0.2867
     94  CB        -2.2630  -13.5300    7.2900 C.3   238  VAL238      0.0252
     95  CG1       -3.1080  -13.7650    6.0470 C.3   238  VAL238      0.0019
     96  CG2       -0.8220  -13.9590    7.0550 C.3   238  VAL238      0.0019
@<TRIPOS>BOND
     1    73    74    1
     2    89    87    1
     3    87    88    1
     4    87    86    1
     5    74    75    1
     6    74    77    1
     7    75    76    2
     8    75    82   am
     9    64    65    2
    10    64    63    1
    11    82    83    1
    12    62    63    1
    13    77    78    1
    14    83    86    1
    15    83    84    1
    16    63    66    1
    17    80    79   ar
    18    78    79    1
    19    79    81   ar
    20    84    85    2
    21    66    67    1
    22    67    68   ar
    23    67    69   ar
    24    68    70   ar
    25    69    71   ar
    26    95    94    1
    27    52    53    1
    28    90    91    1
    29    70    72   ar
    30    96    94    1
    31    71    72   ar
    32    94    91    1
    33    53    54    1
    34    53    56    1
    35    91    92    1
    36    61    59   ar
    37    61    60   ar
    38    54    55    2
    39    59    57   ar
    40    60    58   ar
    41    57    58   ar
    42    57    56    1
    43    51    49   am
    44    93    92    2
    45     4     3    2
    46    49    50    2
    47    49    48    1
    48     1     2    1
    49    32    31    1
    50    32    33    1
    51    16    15    1
    52    16    17    1
    53     3    15   am
    54     3     2    1
    55    31    21   am
    56    48    45    1
    57    19    17   am
    58    19    20    1
    59    25    27   ar
    60    25    24   ar
    61    21    22    2
    62    21    20    1
    63     2     5    1
    64    35    33   am
    65    35    36    1
    66    17    18    2
    67    23    20    1
    68    23    24    1
    69    33    34    2
    70     9    10   ar
    71     9     7   ar
    72    27    29   ar
    73    12    10   ar
    74    12    14   ar
    75    10     8   ar
    76     7     6   ar
    77    44    45    1
    78    14    13   ar
    79    39    36    1
    80    39    40    1
    81    24    26   ar
    82     8     6   ar
    83     8    11   ar
    84     6     5    1
    85    45    46    1
    86    13    11   ar
    87    36    37    1
    88    41    40    1
    89    41    42    1
    90    37    38    2
    91    46    47    2
    92    29    30    1
    93    29    28   ar
    94    26    28   ar
    95    42    43    1
