@<TRIPOS>MOLECULE
tmp/3v5jB00.pdb
 175 168 0 0 0
SMALL
GASTEIGER

@<TRIPOS>ATOM
      1  N        -45.5310   18.2240   26.8580 N.3    15  ILE15      -0.1231
      2  CA       -44.3400   17.4030   27.1150 C.3    15  ILE15       0.1692
      3  C        -43.2420   17.5370   26.0560 C.2    15  ILE15       0.2593
      4  O        -42.0700   17.3050   26.3620 O.2    15  ILE15      -0.2718
      5  CB       -44.6940   15.9220   27.4330 C.3    15  ILE15       0.0266
      6  CG1      -45.6860   15.3330   26.3920 C.3    15  ILE15       0.0019
      7  CG2      -45.2180   15.7920   28.8700 C.3    15  ILE15       0.0020
      8  CD1      -45.8080   13.8220   26.3560 C.3    15  ILE15       0.0001
      9  N        -43.6280   17.9090   24.8360 N.am   16  GLY16      -0.1942
     10  CA       -42.7070   18.0750   23.7170 C.3    16  GLY16       0.2014
     11  C        -42.8880   19.3610   22.9380 C.2    16  GLY16       0.2639
     12  O        -43.9920   19.9130   22.8840 O.2    16  GLY16      -0.2714
     13  N        -41.7910   19.8400   22.3210 N.am   17  SER17      -0.1949
     14  CA       -41.7530   21.0620   21.5110 C.3    17  SER17       0.1924
     15  C        -40.7500   20.9370   20.3580 C.2    17  SER17       0.2314
     16  O        -39.7990   20.1580   20.4470 O.2    17  SER17      -0.2863
     17  CB       -41.4140   22.2710   22.3800 C.3    17  SER17       0.2116
     18  OG       -41.3160   23.4220   21.7030 O.3    17  SER17      -0.2180
     19  N        -45.9320   18.0330   21.3150 N.3    21  VAL21      -0.1245
     20  CA       -46.3790   16.7730   21.9150 C.3    21  VAL21       0.1561
     21  C        -47.0190   17.0870   23.2760 C.2    21  VAL21       0.2260
     22  O        -46.4030   17.7510   24.1130 O.2    21  VAL21      -0.2867
     23  CB       -45.2440   15.7100   22.0110 C.3    21  VAL21       0.0252
     24  CG1      -45.7680   14.3820   22.5540 C.3    21  VAL21       0.0019
     25  CG2      -44.5670   15.4950   20.6580 C.3    21  VAL21       0.0019
     26  N        -49.4820   15.4900   26.6680 N.3    23  LEU23      -0.1245
     27  CA       -49.9940   14.3580   27.4360 C.3    23  LEU23       0.1561
     28  C        -51.4710   14.6680   27.6740 C.2    23  LEU23       0.2260
     29  O        -51.8030   15.7750   28.1050 O.2    23  LEU23      -0.2867
     30  CB       -49.2350   14.1970   28.7750 C.3    23  LEU23       0.0270
     31  CG       -49.9550   13.4590   29.9240 C.3    23  LEU23       0.0019
     32  CD1      -49.9680   11.9510   29.7160 C.3    23  LEU23       0.0001
     33  CD2      -49.3240   13.7850   31.2510 C.3    23  LEU23       0.0001
     34  N        -50.9340   10.4360   23.8080 N.3    33  ALA33      -0.1245
     35  CA       -49.9030   11.3950   23.4330 C.3    33  ALA33       0.1562
     36  C        -50.3880   12.1110   22.1740 C.2    33  ALA33       0.2260
     37  O        -50.4190   11.5240   21.0880 O.2    33  ALA33      -0.2867
     38  CB       -48.5820   10.6870   23.1840 C.3    33  ALA33       0.0290
     39  N        -50.0510   14.6800   19.2820 N.3    35  LYS35      -0.1245
     40  CA       -49.0160   15.3250   18.4750 C.3    35  LYS35       0.1561
     41  C        -49.6490   16.3420   17.5170 C.2    35  LYS35       0.2260
     42  O        -50.2100   15.9620   16.4870 O.2    35  LYS35      -0.2867
     43  CB       -48.1670   14.2760   17.7320 C.3    35  LYS35       0.0271
     44  CG       -46.8400   14.8160   17.2170 C.3    35  LYS35       0.0035
     45  CD       -45.9650   13.7150   16.6470 C.3    35  LYS35       0.0206
     46  CE       -44.6320   14.2530   16.1940 C.3    35  LYS35       0.1093
     47  NZ       -43.7050   13.1610   15.8030 N.3    35  LYS35      -0.1314
     48  N        -44.9800    1.9800   17.3700 N.3    59  VAL59      -0.1245
     49  CA       -45.9880    2.8140   18.0260 C.3    59  VAL59       0.1561
     50  C        -47.3800    2.6630   17.3780 C.2    59  VAL59       0.2260
     51  O        -47.4860    2.5290   16.1550 O.2    59  VAL59      -0.2867
     52  CB       -45.5140    4.2850   18.2150 C.3    59  VAL59       0.0252
     53  CG1      -45.6360    5.1040   16.9300 C.3    59  VAL59       0.0019
     54  CG2      -46.2350    4.9630   19.3750 C.3    59  VAL59       0.0019
     55  N        -51.9090    9.2410   19.5730 N.3    75  PHE75      -0.1227
     56  CA       -51.0090    8.1040   19.7900 C.3    75  PHE75       0.1736
     57  C        -51.2080    7.4930   21.1760 C.2    75  PHE75       0.2598
     58  O        -51.7370    8.1560   22.0730 O.2    75  PHE75      -0.2717
     59  CB       -49.5420    8.5590   19.6810 C.3    75  PHE75       0.0547
     60  CG       -49.0180    8.8660   18.3010 C.ar   75  PHE75      -0.0202
     61  CD1      -49.0690   10.1580   17.7930 C.ar   75  PHE75      -0.0042
     62  CD2      -48.3990    7.8820   17.5410 C.ar   75  PHE75      -0.0042
     63  CE1      -48.5440   10.4520   16.5320 C.ar   75  PHE75      -0.0003
     64  CE2      -47.8770    8.1760   16.2780 C.ar   75  PHE75      -0.0003
     65  CZ       -47.9580    9.4580   15.7800 C.ar   75  PHE75      -0.0000
     66  N        -50.7360    6.2420   21.3620 N.am   76  GLU76      -0.1920
     67  CA       -50.7510    5.5590   22.6580 C.3    76  GLU76       0.1949
     68  C        -49.6600    6.2120   23.5190 C.2    76  GLU76       0.2659
     69  O        -48.6280    6.6220   22.9780 O.2    76  GLU76      -0.2711
     70  CB       -50.5210    4.0360   22.5040 C.2    76  GLU76       0.0111
     71  CG       -49.1650    3.6250   21.9360 C.2    76  GLU76       0.0838
     72  CD       -48.8300    2.1440   21.9300 C.2    76  GLU76       0.3877
     73  OE1      -49.3550    1.3990   22.7890 O.co2  76  GLU76      -0.2406
     74  OE2      -47.9980    1.7380   21.0880 O.co2  76  GLU76      -0.2406
     75  N        -49.8960    6.3640   24.8290 N.am   77  PHE77      -0.1957
     76  CA       -48.8990    7.0090   25.6770 C.3    77  PHE77       0.1771
     77  C        -47.7880    6.0710   26.1230 C.2    77  PHE77       0.2619
     78  O        -48.0550    4.9910   26.6520 O.2    77  PHE77      -0.2715
     79  CB       -49.5270    7.7710   26.8570 C.3    77  PHE77       0.0574
     80  CG       -48.5370    8.6500   27.5860 C.ar   77  PHE77      -0.0200
     81  CD1      -48.1550    9.8800   27.0620 C.ar   77  PHE77      -0.0042
     82  CD2      -47.9650    8.2360   28.7830 C.ar   77  PHE77      -0.0042
     83  CE1      -47.2150   10.6770   27.7200 C.ar   77  PHE77      -0.0003
     84  CE2      -47.0280    9.0350   29.4400 C.ar   77  PHE77      -0.0003
     85  CZ       -46.6700   10.2560   28.9130 C.ar   77  PHE77      -0.0000
     86  N        -46.5380    6.5040   25.9090 N.am   78  MET78      -0.1963
     87  CA       -45.3370    5.7660   26.2910 C.3    78  MET78       0.1736
     88  C        -44.7920    6.3980   27.5680 C.2    78  MET78       0.2616
     89  O        -44.3470    7.5480   27.5540 O.2    78  MET78      -0.2715
     90  CB       -44.3040    5.7550   25.1470 C.3    78  MET78       0.0427
     91  CG       -44.8230    5.1120   23.8590 C.3    78  MET78       0.0599
     92  SD       -45.1480    3.3290   23.9710 S.3    78  MET78      -0.1393
     93  CE       -43.4830    2.6960   23.9020 C.3    78  MET78       0.0692
     94  N        -44.9020    5.6550   28.6820 N.am   79  GLU79      -0.1963
     95  CA       -44.5430    6.0490   30.0490 C.3    79  GLU79       0.1733
     96  C        -43.1690    6.6840   30.2740 C.2    79  GLU79       0.2616
     97  O        -43.0550    7.5580   31.1350 O.2    79  GLU79      -0.2715
     98  CB       -44.7520    4.8800   31.0290 C.3    79  GLU79       0.0429
     99  CG       -46.2090    4.5290   31.2980 C.3    79  GLU79       0.1163
    100  CD       -47.0090    5.5260   32.1170 C.2    79  GLU79       0.3649
    101  OE1      -46.5420    5.9190   33.2110 O.co2  79  GLU79      -0.2457
    102  OE2      -48.1270    5.8820   31.6810 O.co2  79  GLU79      -0.2457
    103  N        -42.1320    6.2420   29.5390 N.am   80  HIS80      -0.1959
    104  CA       -40.7700    6.7430   29.7470 C.3    80  HIS80       0.1787
    105  C        -40.1630    7.6630   28.6690 C.2    80  HIS80       0.2621
    106  O        -38.9580    7.9300   28.6960 O.2    80  HIS80      -0.2715
    107  CB       -39.8300    5.6060   30.1820 C.3    80  HIS80       0.0785
    108  CG       -40.2450    4.9660   31.4710 C.ar   80  HIS80       0.0821
    109  ND1      -39.8480    5.4810   32.6920 N.ar   80  HIS80      -0.2267
    110  CD2      -41.0390    3.8920   31.6870 C.ar   80  HIS80       0.1154
    111  CE1      -40.3960    4.6970   33.6070 C.ar   80  HIS80       0.1986
    112  NE2      -41.1220    3.7280   33.0500 N.ar   80  HIS80      -0.2212
    113  N        -41.0100    8.1790   27.7780 N.am   81  GLY81      -0.1940
    114  CA       -40.6180    9.1090   26.7220 C.3    81  GLY81       0.2014
    115  C        -39.6890    8.5570   25.6640 C.2    81  GLY81       0.2639
    116  O        -39.6090    7.3400   25.4770 O.2    81  GLY81      -0.2714
    117  N        -38.9840    9.4600   24.9570 N.am   82  CYS82      -0.1967
    118  CA       -38.0500    9.0760   23.9000 C.3    82  CYS82       0.1712
    119  C        -36.7620    8.4480   24.4430 C.2    82  CYS82       0.2296
    120  O        -36.3110    8.8050   25.5340 O.2    82  CYS82      -0.2864
    121  CB       -37.7770   10.2270   22.9330 C.3    82  CYS82       0.0983
    122  SG       -36.5450   11.4240   23.5120 S.3    82  CYS82      -0.0798
    123  N        -33.5250   10.7300   25.4920 N.3    85  ASP85      -0.1225
    124  CA       -33.6520   11.3940   26.7910 C.3    85  ASP85       0.1805
    125  C        -33.6100   10.4100   27.9590 C.2    85  ASP85       0.2597
    126  O        -33.0470   10.7380   29.0050 O.2    85  ASP85      -0.2718
    127  CB       -34.9250   12.2580   26.8480 C.3    85  ASP85       0.1424
    128  CG       -34.8940   13.5070   25.9810 C.2    85  ASP85       0.3668
    129  OD1      -35.9790   13.9640   25.5620 O.co2  85  ASP85      -0.2456
    130  OD2      -33.7890   14.0500   25.7540 O.co2  85  ASP85      -0.2456
    131  N        -34.2040    9.2110   27.7820 N.am   86  TYR86      -0.1976
    132  CA       -34.2510    8.1460   28.7890 C.3    86  TYR86       0.1639
    133  C        -32.8520    7.6250   29.1400 C.2    86  TYR86       0.2290
    134  O        -32.5780    7.3730   30.3140 O.2    86  TYR86      -0.2864
    135  CB       -35.1690    6.9990   28.3220 C.3    86  TYR86       0.0560
    136  CG       -35.3490    5.8880   29.3360 C.ar   86  TYR86      -0.0198
    137  CD1      -36.1710    6.0560   30.4470 C.ar   86  TYR86      -0.0009
    138  CD2      -34.7270    4.6540   29.1650 C.ar   86  TYR86      -0.0009
    139  CE1      -36.3480    5.0330   31.3780 C.ar   86  TYR86       0.0417
    140  CE2      -34.8970    3.6240   30.0890 C.ar   86  TYR86       0.0417
    141  CZ       -35.7110    3.8180   31.1930 C.ar   86  TYR86       0.1957
    142  OH       -35.8860    2.8060   32.1050 O.3    86  TYR86      -0.2866
    143  N        -34.0790    9.6320   19.2400 N.3   126  ARG126     -0.1245
    144  CA       -35.1260   10.6310   19.4830 C.3   126  ARG126      0.1563
    145  C        -36.4780   10.2040   18.8760 C.2   126  ARG126      0.2260
    146  O        -37.5260   10.6350   19.3590 O.2   126  ARG126     -0.2867
    147  CB       -34.6960   12.0240   18.9710 C.3   126  ARG126      0.0307
    148  CG       -34.4920   12.1140   17.4580 C.3   126  ARG126      0.0489
    149  CD       -34.1440   13.5140   17.0000 C.3   126  ARG126      0.2205
    150  NE       -34.2910   13.6600   15.5500 N.pl3 126  ARG126     -0.0865
    151  CZ       -33.3390   13.3860   14.6620 C.cat 126  ARG126      0.5346
    152  NH1      -32.1540   12.9410   15.0640 N.pl3 126  ARG126      0.1354
    153  NH2      -33.5650   13.5510   13.3670 N.pl3 126  ARG126      0.1354
    154  N        -39.3680    5.3050   21.2620 N.3   129  LEU129     -0.1245
    155  CA       -39.9910    5.5260   22.5690 C.3   129  LEU129      0.1561
    156  C        -39.8330    4.3680   23.5490 C.2   129  LEU129      0.2260
    157  O        -39.7400    3.2150   23.1310 O.2   129  LEU129     -0.2867
    158  CB       -41.4690    5.9020   22.4050 C.3   129  LEU129      0.0270
    159  CG       -41.7500    7.2220   21.6930 C.3   129  LEU129      0.0019
    160  CD1      -43.0120    7.1310   20.8800 C.3   129  LEU129      0.0001
    161  CD2      -41.8060    8.3840   22.6740 C.3   129  LEU129      0.0001
    162  N        -40.9470    4.9690   16.3410 N.3   139  SER139     -0.1202
    163  CA       -41.9750    5.9610   16.0120 C.3   139  SER139      0.2020
    164  C        -41.6130    6.8000   14.7770 C.2   139  SER139      0.2618
    165  O        -40.4390    6.8680   14.4000 O.2   139  SER139     -0.2717
    166  CB       -42.2360    6.8680   17.2090 C.3   139  SER139      0.2103
    167  OG       -43.3340    7.7330   16.9700 O.3   139  SER139     -0.2182
    168  N        -42.6360    7.4490   14.1680 N.am  140  ASP140     -0.1973
    169  CA       -42.5540    8.3140   12.9810 C.3   140  ASP140      0.1709
    170  C        -41.9880    7.5870   11.7480 C.2   140  ASP140      0.2293
    171  O        -40.9700    7.9970   11.1800 O.2   140  ASP140     -0.2864
    172  CB       -41.8340    9.6510   13.2900 C.3   140  ASP140      0.1436
    173  CG       -42.4320   10.4450   14.4420 C.2   140  ASP140      0.3671
    174  OD1      -41.6530   11.0370   15.2220 O.co2 140  ASP140     -0.2456
    175  OD2      -43.6810   10.4720   14.5660 O.co2 140  ASP140     -0.2456
@<TRIPOS>BOND
     1   171   170    2
     2   170   169    1
     3   169   172    1
     4   169   168    1
     5   172   173    1
     6   153   151    1
     7   168   164   am
     8   165   164    2
     9   173   175   ar
    10   173   174   ar
    11   151   152    1
    12   151   150    2
    13   164   163    1
    14   150   149    1
    15    65    64   ar
    16    65    63   ar
    17    47    46    1
    18   163   162    1
    19   163   166    1
    20    51    50    2
    21    46    45    1
    22    64    62   ar
    23    42    41    2
    24    63    61   ar
    25    45    44    1
    26    53    52    1
    27   167   166    1
    28   149   148    1
    29    44    43    1
    30    48    49    1
    31    50    49    1
    32   148   147    1
    33    41    40    1
    34    62    60   ar
    35    43    40    1
    36    61    60   ar
    37    49    52    1
    38    52    54    1
    39    60    59    1
    40    40    39    1
    41   145   146    2
    42   145   144    1
    43   147   144    1
    44   143   144    1
    45    55    56    1
    46    59    56    1
    47    56    57    1
    48    15    16    2
    49    15    14    1
    50    25    23    1
    51   160   159    1
    52    37    36    2
    53    74    72   ar
    54    57    66   am
    55    57    58    2
    56   154   155    1
    57    19    20    1
    58    66    67    1
    59    14    13    1
    60    14    17    1
    61   159   158    1
    62   159   161    1
    63    18    17    1
    64    20    23    1
    65    20    21    1
    66    72    71    1
    67    72    73   ar
    68    71    70    2
    69    23    24    1
    70    36    35    1
    71    13    11   am
    72   158   155    1
    73    70    67    1
    74   155   156    1
    75    67    68    1
    76    12    11    2
    77   121   122    1
    78   121   118    1
    79    11    10    1
    80    69    68    2
    81   157   156    2
    82    38    35    1
    83    21    22    2
    84    35    34    1
    85    68    75   am
    86    10     9    1
    87    91    92    1
    88    91    90    1
    89   118   119    1
    90   118   117    1
    91    93    92    1
    92   119   120    2
    93    75    76    1
    94     9     3   am
    95   117   115   am
    96    90    87    1
    97   116   115    2
    98   123   124    1
    99   129   128   ar
   100   115   114    1
   101    76    77    1
   102    76    79    1
   103   130   128   ar
   104    86    77   am
   105    86    87    1
   106   128   127    1
   107     3     4    2
   108     3     2    1
   109    77    78    2
   110    87    88    1
   111     8     6    1
   112     6     5    1
   113    26    27    1
   114   114   113    1
   115   124   127    1
   116   124   125    1
   117    79    80    1
   118     1     2    1
   119    81    80   ar
   120    81    83   ar
   121     2     5    1
   122     5     7    1
   123    27    28    1
   124    27    30    1
   125    89    88    2
   126    88    94   am
   127    80    82   ar
   128    28    29    2
   129    83    85   ar
   130   113   105   am
   131   131   125   am
   132   131   132    1
   133   125   126    2
   134   135   132    1
   135   135   136    1
   136   105   106    2
   137   105   104    1
   138    94    95    1
   139    30    31    1
   140    82    84   ar
   141   132   133    1
   142    85    84   ar
   143   133   134    2
   144   138   136   ar
   145   138   140   ar
   146   136   137   ar
   147   103   104    1
   148   103    96   am
   149    32    31    1
   150   104   107    1
   151    31    33    1
   152    95    96    1
   153    95    98    1
   154   140   141   ar
   155   107   108    1
   156    96    97    2
   157   137   139   ar
   158    98    99    1
   159   141   139   ar
   160   141   142    1
   161    99   100    1
   162   108   110   ar
   163   108   109   ar
   164   102   100   ar
   165   110   112   ar
   166   100   101   ar
   167   109   111   ar
   168   112   111   ar
