@<TRIPOS>MOLECULE
tmp/3v5jA00.pdb
 172 163 0 0 0
SMALL
GASTEIGER

@<TRIPOS>ATOM
      1  N        -50.0670  -23.3560   28.6400 N.3    15  ILE15      -0.1231
      2  CA       -51.0170  -22.4970   29.3580 C.3    15  ILE15       0.1692
      3  C        -52.4860  -22.6980   28.9550 C.2    15  ILE15       0.2593
      4  O        -53.3760  -22.5080   29.7860 O.2    15  ILE15      -0.2718
      5  CB       -50.5740  -21.0010   29.3860 C.3    15  ILE15       0.0266
      6  CG1      -50.4060  -20.4170   27.9540 C.3    15  ILE15       0.0019
      7  CG2      -49.3040  -20.8250   30.2400 C.3    15  ILE15       0.0020
      8  CD1      -49.9630  -18.9440   27.8420 C.3    15  ILE15       0.0001
      9  N        -52.7160  -23.0920   27.7020 N.am   16  GLY16      -0.1942
     10  CA       -54.0490  -23.3280   27.1570 C.3    16  GLY16       0.2014
     11  C        -54.1860  -24.6300   26.3930 C.2    16  GLY16       0.2639
     12  O        -53.1940  -25.1700   25.8950 O.2    16  GLY16      -0.2714
     13  N        -55.4310  -25.1380   26.2930 N.am   17  SER17      -0.1949
     14  CA       -55.7670  -26.3850   25.5950 C.3    17  SER17       0.1924
     15  C        -57.1520  -26.3140   24.9230 C.2    17  SER17       0.2314
     16  O        -57.8880  -25.3460   25.1270 O.2    17  SER17      -0.2863
     17  CB       -55.6940  -27.5690   26.5570 C.3    17  SER17       0.2116
     18  OG       -56.6860  -27.5510   27.5260 O.3    17  SER17      -0.2180
     19  N        -59.6240  -26.0360   21.6130 N.3    19  GLN19      -0.1245
     20  CA       -59.7810  -25.3640   20.3120 C.3    19  GLN19       0.1566
     21  C        -59.3880  -26.1830   19.0780 C.2    19  GLN19       0.2260
     22  O        -59.7720  -27.3440   18.9550 O.2    19  GLN19      -0.2867
     23  CB       -59.0690  -24.0030   20.3120 C.3    19  GLN19       0.0367
     24  CG       -59.5930  -23.1470   21.4850 C.3    19  GLN19       0.0905
     25  CD       -58.7400  -21.8940   21.6720 C.2    19  GLN19       0.2608
     26  OE1      -58.4860  -21.1720   20.6910 O.2    19  GLN19      -0.2717
     27  NE2      -58.0930  -21.7910   22.8180 N.am   19  GLN19      -0.0878
     28  N        -52.0740  -23.3890   23.5800 N.3    22  VAL22      -0.1245
     29  CA       -51.4240  -22.1100   23.8730 C.3    22  VAL22       0.1561
     30  C        -50.2550  -22.3790   24.8290 C.2    22  VAL22       0.2260
     31  O        -50.4390  -23.0190   25.8670 O.2    22  VAL22      -0.2867
     32  CB       -52.4000  -21.0180   24.4030 C.3    22  VAL22       0.0252
     33  CG1      -51.7150  -19.6560   24.4760 C.3    22  VAL22       0.0019
     34  CG2      -53.6570  -20.9260   23.5390 C.3    22  VAL22       0.0019
     35  N        -46.5810  -20.6910   26.7640 N.3    24  LEU24      -0.1245
     36  CA       -45.7930  -19.5440   27.2020 C.3    24  LEU24       0.1561
     37  C        -44.3630  -19.8590   26.7670 C.2    24  LEU24       0.2260
     38  O        -43.8790  -20.9690   27.0070 O.2    24  LEU24      -0.2867
     39  CB       -45.8800  -19.3510   28.7340 C.3    24  LEU24       0.0270
     40  CG       -44.7620  -18.5340   29.4220 C.3    24  LEU24       0.0019
     41  CD1      -44.8500  -17.0480   29.0920 C.3    24  LEU24       0.0001
     42  CD2      -44.7950  -18.7260   30.9150 C.3    24  LEU24       0.0001
     43  N        -46.5970  -15.7120   23.3870 N.3    34  ALA34      -0.1245
     44  CA       -47.6800  -16.6810   23.5000 C.3    34  ALA34       0.1562
     45  C        -47.7290  -17.4430   22.1790 C.2    34  ALA34       0.2260
     46  O        -48.0400  -16.8620   21.1360 O.2    34  ALA34      -0.2867
     47  CB       -49.0000  -15.9770   23.7670 C.3    34  ALA34       0.0290
     48  N        -49.3420  -20.1030   19.8150 N.3    36  LYS36      -0.1245
     49  CA       -50.6100  -20.7730   19.5340 C.3    36  LYS36       0.1561
     50  C        -50.4040  -21.8510   18.4650 C.2    36  LYS36       0.2260
     51  O        -50.3450  -21.5430   17.2740 O.2    36  LYS36      -0.2867
     52  CB       -51.6980  -19.7560   19.1350 C.3    36  LYS36       0.0271
     53  CG       -53.1160  -20.2970   19.2660 C.3    36  LYS36       0.0035
     54  CD       -54.1560  -19.2680   18.8580 C.3    36  LYS36       0.0206
     55  CE       -55.5550  -19.8110   18.9990 C.3    36  LYS36       0.1093
     56  NZ       -56.5740  -18.8310   18.5450 N.3    36  LYS36      -0.1314
     57  N        -54.7320   -7.3990   19.8540 N.3    62  VAL62      -0.1245
     58  CA       -53.5190   -8.1930   20.0590 C.3    62  VAL62       0.1561
     59  C        -52.5820   -8.1390   18.8360 C.2    62  VAL62       0.2260
     60  O        -53.0520   -8.0880   17.6940 O.2    62  VAL62      -0.2867
     61  CB       -53.8260   -9.6270   20.5830 C.3    62  VAL62       0.0252
     62  CG1      -54.2960  -10.5640   19.4700 C.3    62  VAL62       0.0019
     63  CG2      -52.6380  -10.2170   21.3380 C.3    62  VAL62       0.0019
     64  N        -47.5810  -14.7470   19.1430 N.3    78  PHE78      -0.1227
     65  CA       -48.2990  -13.5780   19.6640 C.3    78  PHE78       0.1736
     66  C        -47.5210  -12.9030   20.7930 C.2    78  PHE78       0.2598
     67  O        -46.6280  -13.5170   21.3810 O.2    78  PHE78      -0.2717
     68  CB       -49.6650  -14.0080   20.2290 C.3    78  PHE78       0.0547
     69  CG       -50.7340  -14.3860   19.2350 C.ar   78  PHE78      -0.0202
     70  CD1      -50.8820  -15.7030   18.8170 C.ar   78  PHE78      -0.0042
     71  CD2      -51.6490  -13.4430   18.7830 C.ar   78  PHE78      -0.0042
     72  CE1      -51.9000  -16.0610   17.9280 C.ar   78  PHE78      -0.0003
     73  CE2      -52.6630  -13.8010   17.8900 C.ar   78  PHE78      -0.0003
     74  CZ       -52.7800  -15.1070   17.4660 C.ar   78  PHE78      -0.0000
     75  N        -47.9010  -11.6530   21.1320 N.am   79  GLU79      -0.1920
     76  CA       -47.3300  -10.9250   22.2670 C.3    79  GLU79       0.1949
     77  C        -47.9530  -11.5290   23.5370 C.2    79  GLU79       0.2659
     78  O        -49.1450  -11.8570   23.5290 O.2    79  GLU79      -0.2711
     79  CB       -47.5940   -9.4030   22.1680 C.2    79  GLU79       0.0111
     80  CG       -49.0600   -8.9810   22.1840 C.2    79  GLU79       0.0838
     81  CD       -49.3590   -7.4990   22.3130 C.2    79  GLU79       0.3877
     82  OE1      -48.4880   -6.7420   22.8020 O.co2  79  GLU79      -0.2406
     83  OE2      -50.4910   -7.1000   21.9570 O.co2  79  GLU79      -0.2406
     84  N        -47.1520  -11.7350   24.5940 N.am   80  PHE80      -0.1957
     85  CA       -47.6780  -12.3370   25.8170 C.3    80  PHE80       0.1771
     86  C        -48.4990  -11.3660   26.6550 C.2    80  PHE80       0.2619
     87  O        -48.0270  -10.2790   26.9920 O.2    80  PHE80      -0.2715
     88  CB       -46.5810  -13.0330   26.6460 C.3    80  PHE80       0.0574
     89  CG       -47.1050  -13.8030   27.8390 C.ar   80  PHE80      -0.0200
     90  CD1      -47.7350  -15.0320   27.6730 C.ar   80  PHE80      -0.0042
     91  CD2      -46.9710  -13.2980   29.1270 C.ar   80  PHE80      -0.0042
     92  CE1      -48.2380  -15.7330   28.7740 C.ar   80  PHE80      -0.0003
     93  CE2      -47.4660  -14.0050   30.2270 C.ar   80  PHE80      -0.0003
     94  CZ       -48.0910  -15.2190   30.0440 C.ar   80  PHE80      -0.0000
     95  N        -49.7380  -11.7710   26.9760 N.am   81  MET81      -0.1963
     96  CA       -50.6670  -11.0120   27.8110 C.3    81  MET81       0.1736
     97  C        -50.6120  -11.6310   29.2080 C.2    81  MET81       0.2616
     98  O        -50.9950  -12.7890   29.3900 O.2    81  MET81      -0.2715
     99  CB       -52.0910  -11.0240   27.2190 C.3    81  MET81       0.0427
    100  CG       -52.1930  -10.3590   25.8460 C.3    81  MET81       0.0599
    101  SD       -51.9390   -8.5620   25.8400 S.3    81  MET81      -0.1393
    102  CE       -53.5330   -8.0090   26.4170 C.3    81  MET81       0.0692
    103  N        -50.0600  -10.8730   30.1690 N.am   82  GLU82      -0.1963
    104  CA       -49.8080  -11.2710   31.5590 C.3    82  GLU82       0.1733
    105  C        -50.9620  -11.9040   32.3390 C.2    82  GLU82       0.2616
    106  O        -50.7220  -12.8450   33.0990 O.2    82  GLU82      -0.2715
    107  CB       -49.2000  -10.1060   32.3610 C.3    82  GLU82       0.0429
    108  CG       -47.7730   -9.7430   31.9710 C.3    82  GLU82       0.1163
    109  CD       -46.6840  -10.7130   32.3940 C.2    82  GLU82       0.3649
    110  OE1      -46.6880  -11.1470   33.5690 O.co2  82  GLU82      -0.2457
    111  OE2      -45.7960  -11.0000   31.5600 O.co2  82  GLU82      -0.2457
    112  N        -52.1930  -11.3890   32.1780 N.am   83  HIS83      -0.1959
    113  CA       -53.3440  -11.8670   32.9480 C.3    83  HIS83       0.1787
    114  C        -54.3390  -12.8280   32.2680 C.2    83  HIS83       0.2621
    115  O        -55.4230  -13.0710   32.8070 O.2    83  HIS83      -0.2715
    116  CB       -54.0240  -10.7050   33.6890 C.3    83  HIS83       0.0785
    117  CG       -53.1180  -10.0320   34.6720 C.ar   83  HIS83       0.0821
    118  ND1      -52.9250  -10.5450   35.9430 N.ar   83  HIS83      -0.2267
    119  CD2      -52.3520   -8.9270   34.5260 C.ar   83  HIS83       0.1154
    120  CE1      -52.0650   -9.7300   36.5320 C.ar   83  HIS83       0.1986
    121  NE2      -51.6920   -8.7410   35.7180 N.ar   83  HIS83      -0.2212
    122  N        -53.9380  -13.4020   31.1360 N.am   84  GLY84      -0.1940
    123  CA       -54.7340  -14.3750   30.3920 C.3    84  GLY84       0.2014
    124  C        -56.0210  -13.8540   29.7920 C.2    84  GLY84       0.2639
    125  O        -56.1780  -12.6430   29.6050 O.2    84  GLY84      -0.2714
    126  N        -56.9530  -14.7760   29.4780 N.am   85  CYS85      -0.1967
    127  CA       -58.2400  -14.4140   28.8890 C.3    85  CYS85       0.1712
    128  C        -59.1950  -13.7720   29.8950 C.2    85  CYS85       0.2296
    129  O        -59.1770  -14.1210   31.0780 O.2    85  CYS85      -0.2864
    130  CB       -58.8800  -15.5800   28.1370 C.3    85  CYS85       0.0983
    131  SG       -59.6840  -16.8140   29.1930 S.3    85  CYS85      -0.0798
    132  N        -61.6210  -15.9570   32.2590 N.3    88  ASP88      -0.1239
    133  CA       -60.9540  -16.5660   33.4140 C.3    88  ASP88       0.1674
    134  C        -60.5550  -15.5310   34.4660 C.2    88  ASP88       0.2266
    135  O        -60.6680  -15.8100   35.6600 O.2    88  ASP88      -0.2867
    136  CB       -59.7270  -17.3900   32.9790 C.3    88  ASP88       0.1410
    137  CG       -60.0350  -18.6880   32.2520 C.2    88  ASP88       0.3668
    138  OD1      -59.1530  -19.1770   31.5160 O.co2  88  ASP88      -0.2456
    139  OD2      -61.1470  -19.2330   32.4440 O.co2  88  ASP88      -0.2456
    140  N        -63.8630  -15.0080   26.3260 N.3   129  ARG129     -0.1245
    141  CA       -62.8250  -16.0280   26.1420 C.3   129  ARG129      0.1563
    142  C        -61.8470  -15.6440   25.0140 C.2   129  ARG129      0.2260
    143  O        -60.7110  -16.1210   25.0020 O.2   129  ARG129     -0.2867
    144  CB       -63.4480  -17.4200   25.8990 C.3   129  ARG129      0.0307
    145  CG       -64.2150  -17.5620   24.5840 C.3   129  ARG129      0.0489
    146  CD       -64.7910  -18.9510   24.4040 C.3   129  ARG129      0.2205
    147  NE       -65.3060  -19.1540   23.0480 N.pl3 129  ARG129     -0.0865
    148  CZ       -66.5380  -18.8440   22.6540 C.cat 129  ARG129      0.5346
    149  NH1      -67.4000  -18.3040   23.5070 N.pl3 129  ARG129      0.1354
    150  NH2      -66.9170  -19.0680   21.4040 N.pl3 129  ARG129      0.1354
    151  N        -58.2350  -10.6570   25.8830 N.3   132  LEU132     -0.1245
    152  CA       -57.1040  -10.8620   26.7910 C.3   132  LEU132      0.1561
    153  C        -56.8240   -9.6730   27.7010 C.2   132  LEU132      0.2260
    154  O        -57.0630   -8.5310   27.3150 O.2   132  LEU132     -0.2867
    155  CB       -55.8420  -11.2470   26.0080 C.3   132  LEU132      0.0270
    156  CG       -55.8700  -12.6000   25.3030 C.3   132  LEU132      0.0019
    157  CD1      -55.0950  -12.5450   24.0180 C.3   132  LEU132      0.0001
    158  CD2      -55.3500  -13.7100   26.2050 C.3   132  LEU132      0.0001
    159  N        -58.7770  -10.5430   20.6700 N.3   142  SER142     -0.1202
    160  CA       -57.9760  -11.5480   19.9690 C.3   142  SER142      0.2020
    161  C        -58.8280  -12.3610   18.9870 C.2   142  SER142      0.2618
    162  O        -60.0540  -12.3950   19.1210 O.2   142  SER142     -0.2717
    163  CB       -57.2930  -12.4730   20.9720 C.3   142  SER142      0.2103
    164  OG       -56.3060  -13.2770   20.3480 O.3   142  SER142     -0.2182
    165  N        -58.1640  -13.0180   18.0060 N.am  143  ASP143     -0.1973
    166  CA       -58.7540  -13.8600   16.9530 C.3   143  ASP143      0.1709
    167  C        -59.7970  -13.1130   16.1010 C.2   143  ASP143      0.2293
    168  O        -60.9770  -13.4790   16.0760 O.2   143  ASP143     -0.2864
    169  CB       -59.2860  -15.2020   17.5140 C.3   143  ASP143      0.1436
    170  CG       -58.2880  -15.9920   18.3450 C.2   143  ASP143      0.3671
    171  OD1      -58.6690  -16.4630   19.4380 O.co2 143  ASP143     -0.2456
    172  OD2      -57.1290  -16.1520   17.8940 O.co2 143  ASP143     -0.2456
@<TRIPOS>BOND
     1   168   167    2
     2   167   166    1
     3   166   169    1
     4   166   165    1
     5    51    50    2
     6    74    73   ar
     7    74    72   ar
     8   169   170    1
     9    60    59    2
    10    73    71   ar
    11   172   170   ar
    12    72    70   ar
    13   165   161   am
    14   170   171   ar
    15    50    49    1
    16    56    55    1
    17    71    69   ar
    18    70    69   ar
    19    59    58    1
    20    54    55    1
    21    54    53    1
    22    22    21    2
    23   161   162    2
    24   161   160    1
    25    21    20    1
    26    52    53    1
    27    52    49    1
    28    64    65    1
    29    69    68    1
    30    62    61    1
    31    49    48    1
    32    65    68    1
    33    65    66    1
    34    57    58    1
    35   160   159    1
    36   160   163    1
    37    58    61    1
    38    20    23    1
    39    20    19    1
    40    23    24    1
    41   164   163    1
    42    61    63    1
    43    26    25    2
    44    66    75   am
    45    66    67    2
    46    75    76    1
    47    46    45    2
    48   150   148    1
    49    24    25    1
    50    25    27   am
    51    83    81   ar
    52    79    80    2
    53    79    76    1
    54    45    44    1
    55    80    81    1
    56    76    77    1
    57    81    82   ar
    58   148   147    2
    59   148   149    1
    60   147   146    1
    61    43    44    1
    62    44    47    1
    63    78    77    2
    64    77    84   am
    65    34    32    1
    66    28    29    1
    67    29    32    1
    68    29    30    1
    69   157   156    1
    70    32    33    1
    71   146   145    1
    72   145   144    1
    73    84    85    1
    74    30    31    2
    75    15    16    2
    76    15    14    1
    77   143   142    2
    78   142   141    1
    79   156   155    1
    80   156   158    1
    81    14    13    1
    82    14    17    1
    83    85    88    1
    84    85    86    1
    85   101   100    1
    86   101   102    1
    87   100    99    1
    88   151   152    1
    89    12    11    2
    90   144   141    1
    91   155   152    1
    92   141   140    1
    93    13    11   am
    94    11    10    1
    95    17    18    1
    96    88    89    1
    97    86    95   am
    98    86    87    2
    99    35    36    1
   100    37    38    2
   101    37    36    1
   102   152   153    1
   103    95    96    1
   104    10     9    1
   105    36    39    1
   106    99    96    1
   107   154   153    2
   108    90    89   ar
   109    90    92   ar
   110     9     3   am
   111    96    97    1
   112    89    91   ar
   113     8     6    1
   114     6     5    1
   115   130   127    1
   116   130   131    1
   117     1     2    1
   118    39    40    1
   119    92    94   ar
   120   127   126    1
   121   127   128    1
   122     3     2    1
   123     3     4    2
   124    41    40    1
   125    91    93   ar
   126    97    98    2
   127    97   103   am
   128     2     5    1
   129     5     7    1
   130    40    42    1
   131   126   124   am
   132   125   124    2
   133   124   123    1
   134   128   129    2
   135    94    93   ar
   136   103   104    1
   137   123   122    1
   138   122   114   am
   139   138   137   ar
   140   104   105    1
   141   104   107    1
   142   111   109   ar
   143   108   107    1
   144   108   109    1
   145   112   105   am
   146   112   113    1
   147   137   139   ar
   148   137   136    1
   149   132   133    1
   150   114   115    2
   151   114   113    1
   152   105   106    2
   153   109   110   ar
   154   113   116    1
   155   136   133    1
   156   133   134    1
   157   116   117    1
   158   134   135    2
   159   119   117   ar
   160   119   121   ar
   161   117   118   ar
   162   121   120   ar
   163   118   120   ar
