@<TRIPOS>MOLECULE
tmp/3v5lA00.pdb
 191 183 0 0 0
SMALL
GASTEIGER

@<TRIPOS>ATOM
      1  N          5.8420   12.5300   -1.4500 N.3    15  ILE15      -0.1231
      2  CA         5.9050   11.6450   -0.2810 C.3    15  ILE15       0.1696
      3  C          7.1940   11.7430    0.5410 C.2    15  ILE15       0.2632
      4  O          7.2360   11.2410    1.6670 O.2    15  ILE15      -0.2714
      5  CB         5.5050   10.1800   -0.6220 C.3    15  ILE15       0.0266
      6  CG1        6.3240    9.6270   -1.8230 C.3    15  ILE15       0.0019
      7  CG2        3.9910   10.0780   -0.8520 C.3    15  ILE15       0.0020
      8  CD1        6.2730    8.1050   -2.0450 C.3    15  ILE15       0.0001
      9  N          8.2160   12.3860   -0.0160 N.am   16  GLY16      -0.1718
     10  CA         9.4980   12.5520    0.6570 C.2    16  GLY16       0.1480
     11  C         10.4700   13.4930   -0.0200 C.2    16  GLY16       0.2821
     12  O         10.3040   13.8470   -1.1920 O.2    16  GLY16      -0.2669
     13  N         11.5020   13.8970    0.7350 N.am   17  SER17      -0.1901
     14  CA        12.5750   14.7830    0.2870 C.3    17  SER17       0.2058
     15  C         13.9020   14.3310    0.9160 C.2    17  SER17       0.2643
     16  O         13.9270   13.9250    2.0810 O.2    17  SER17      -0.2714
     17  CB        12.2620   16.2290    0.6610 C.3    17  SER17       0.2130
     18  OG        13.0780   17.1450   -0.0510 O.3    17  SER17      -0.2179
     19  N         14.9730   14.3770    0.1240 N.am   18  GLY18      -0.1954
     20  CA        16.3180   13.9830    0.5320 C.3    18  GLY18       0.1869
     21  C         17.3950   14.8090   -0.1390 C.2    18  GLY18       0.2309
     22  O         18.3360   14.2670   -0.7220 O.2    18  GLY18      -0.2863
     23  N         17.1360   14.9270   -3.6790 N.3    19  GLY19      -0.1225
     24  CA        16.3400   13.7390   -3.9550 C.3    19  GLY19       0.1811
     25  C         14.9130   13.8490   -3.4600 C.2    19  GLY19       0.2280
     26  O         14.6230   13.5080   -2.3120 O.2    19  GLY19      -0.2866
     27  N         10.8990   12.7040   -3.6660 N.3    21  VAL21      -0.1245
     28  CA        10.1390   11.4730   -3.9710 C.3    21  VAL21       0.1561
     29  C          8.6220   11.7210   -4.0570 C.2    21  VAL21       0.2260
     30  O          8.0410   12.3130   -3.1450 O.2    21  VAL21      -0.2867
     31  CB        10.5030   10.2510   -3.0660 C.3    21  VAL21       0.0252
     32  CG1        9.7510    8.9870   -3.4940 C.3    21  VAL21       0.0019
     33  CG2       12.0070    9.9850   -3.0660 C.3    21  VAL21       0.0019
     34  N          4.6550    9.9010   -5.0630 N.3    23  LEU23      -0.1245
     35  CA         3.8000    8.7380   -5.2670 C.3    23  LEU23       0.1561
     36  C          3.1750    9.0090   -6.6310 C.2    23  LEU23       0.2260
     37  O          2.7320   10.1320   -6.8920 O.2    23  LEU23      -0.2867
     38  CB         2.7060    8.6440   -4.1750 C.3    23  LEU23       0.0270
     39  CG         1.4570    7.7830   -4.4770 C.3    23  LEU23       0.0019
     40  CD1        1.7920    6.2980   -4.5730 C.3    23  LEU23       0.0001
     41  CD2        0.3750    8.0060   -3.4400 C.3    23  LEU23       0.0001
     42  N          7.1010    4.8900   -7.0520 N.3    33  ALA33      -0.1245
     43  CA         7.7340    5.9030   -6.2200 C.3    33  ALA33       0.1562
     44  C          8.7610    6.5740   -7.1320 C.2    33  ALA33       0.2260
     45  O          9.7860    5.9720   -7.4690 O.2    33  ALA33      -0.2867
     46  CB         8.4030    5.2660   -5.0170 C.3    33  ALA33       0.0290
     47  N         11.5780    9.0980   -7.9800 N.3    35  LYS35      -0.1245
     48  CA        12.6650    9.8110   -7.3110 C.3    35  LYS35       0.1561
     49  C         13.3680   10.7680   -8.2810 C.2    35  LYS35       0.2260
     50  O         14.1850   10.3320   -9.0940 O.2    35  LYS35      -0.2867
     51  CB        13.6540    8.8190   -6.6640 C.3    35  LYS35       0.0271
     52  CG        14.6710    9.4720   -5.7330 C.3    35  LYS35       0.0035
     53  CD        15.6760    8.4670   -5.2000 C.3    35  LYS35       0.0206
     54  CE        16.6960    9.1190   -4.3000 C.3    35  LYS35       0.1093
     55  NZ        17.7580    8.1640   -3.8890 N.3    35  LYS35      -0.1314
     56  N         15.1920   -3.4390   -3.0140 N.3    59  VAL59      -0.1245
     57  CA        14.2300   -2.6500   -3.7930 C.3    59  VAL59       0.1561
     58  C         14.4310   -2.8030   -5.3120 C.2    59  VAL59       0.2260
     59  O         15.5620   -2.9720   -5.7720 O.2    59  VAL59      -0.2867
     60  CB        14.1440   -1.1670   -3.3270 C.3    59  VAL59       0.0252
     61  CG1       15.3050   -0.3330   -3.8660 C.3    59  VAL59       0.0019
     62  CG2       12.8050   -0.5440   -3.7130 C.3    59  VAL59       0.0019
     63  N         10.9310    3.7420   -9.2330 N.3    75  PHE75      -0.1227
     64  CA        10.9990    2.6200   -8.2950 C.3    75  PHE75       0.1736
     65  C          9.6310    2.0100   -8.0590 C.2    75  PHE75       0.2598
     66  O          8.6110    2.6790   -8.2460 O.2    75  PHE75      -0.2717
     67  CB        11.5320    3.0950   -6.9290 C.3    75  PHE75       0.0547
     68  CG        13.0030    3.4130   -6.8410 C.ar   75  PHE75      -0.0202
     69  CD1       13.4600    4.7130   -7.0140 C.ar   75  PHE75      -0.0042
     70  CD2       13.9260    2.4240   -6.5210 C.ar   75  PHE75      -0.0042
     71  CE1       14.8210    5.0130   -6.9050 C.ar   75  PHE75      -0.0003
     72  CE2       15.2870    2.7250   -6.4100 C.ar   75  PHE75      -0.0003
     73  CZ        15.7260    4.0170   -6.6060 C.ar   75  PHE75      -0.0000
     74  N          9.6120    0.7610   -7.5560 N.am   76  GLU76      -0.1920
     75  CA         8.3810    0.0960   -7.1370 C.3    76  GLU76       0.1949
     76  C          7.8800    0.8550   -5.8900 C.2    76  GLU76       0.2659
     77  O          8.6950    1.4130   -5.1450 O.2    76  GLU76      -0.2711
     78  CB         8.6380   -1.3920   -6.8000 C.2    76  GLU76       0.0111
     79  CG         9.5810   -1.6350   -5.6250 C.2    76  GLU76       0.0838
     80  CD         9.7180   -3.0630   -5.1380 C.2    76  GLU76       0.3877
     81  OE1        8.6910   -3.7760   -5.0630 O.co2  76  GLU76      -0.2406
     82  OE2       10.8500   -3.4490   -4.7720 O.co2  76  GLU76      -0.2406
     83  N          6.5630    0.9170   -5.6910 N.am   77  PHE77      -0.1957
     84  CA         6.0260    1.6140   -4.5300 C.3    77  PHE77       0.1771
     85  C          6.0090    0.7040   -3.3040 C.2    77  PHE77       0.2619
     86  O          5.4740   -0.4060   -3.3620 O.2    77  PHE77      -0.2715
     87  CB         4.6370    2.2170   -4.8180 C.3    77  PHE77       0.0574
     88  CG         4.0430    2.9500   -3.6380 C.ar   77  PHE77      -0.0200
     89  CD1        4.5570    4.1760   -3.2270 C.ar   77  PHE77      -0.0042
     90  CD2        2.9890    2.4010   -2.9180 C.ar   77  PHE77      -0.0042
     91  CE1        4.0280    4.8380   -2.1160 C.ar   77  PHE77      -0.0003
     92  CE2        2.4570    3.0670   -1.8110 C.ar   77  PHE77      -0.0003
     93  CZ         2.9720    4.2860   -1.4240 C.ar   77  PHE77      -0.0000
     94  N          6.6110    1.1740   -2.2010 N.am   78  MET78      -0.1963
     95  CA         6.6510    0.4430   -0.9360 C.3    78  MET78       0.1736
     96  C          5.6310    1.0720    0.0020 C.2    78  MET78       0.2616
     97  O          5.7740    2.2370    0.3840 O.2    78  MET78      -0.2715
     98  CB         8.0720    0.4110   -0.3470 C.3    78  MET78       0.0427
     99  CG         9.0620   -0.3810   -1.2070 C.3    78  MET78       0.0599
    100  SD         8.7270   -2.1620   -1.2630 S.3    78  MET78      -0.1393
    101  CE         9.4440   -2.6690    0.2860 C.3    78  MET78       0.0692
    102  N          4.5570    0.3100    0.2990 N.am   79  GLU79      -0.1963
    103  CA         3.3860    0.7060    1.0980 C.3    79  GLU79       0.1733
    104  C          3.6390    1.4630    2.4030 C.2    79  GLU79       0.2616
    105  O          2.8850    2.3880    2.7080 O.2    79  GLU79      -0.2715
    106  CB         2.4570   -0.4990    1.3590 C.3    79  GLU79       0.0429
    107  CG         1.6790   -0.9810    0.1400 C.3    79  GLU79       0.1163
    108  CD         0.5220   -0.1150   -0.3220 C.2    79  GLU79       0.3649
    109  OE1       -0.3720    0.1820    0.5040 O.co2  79  GLU79      -0.2457
    110  OE2        0.4820    0.2220   -1.5270 O.co2  79  GLU79      -0.2457
    111  N          4.6570    1.0630    3.1870 N.am   80  HIS80      -0.1959
    112  CA         4.9110    1.7050    4.4800 C.3    80  HIS80       0.1787
    113  C          6.1170    2.6580    4.5600 C.2    80  HIS80       0.2621
    114  O          6.5560    3.0050    5.6610 O.2    80  HIS80      -0.2715
    115  CB         4.8780    0.6830    5.6270 C.3    80  HIS80       0.0785
    116  CG         3.5720   -0.0360    5.7590 C.ar   80  HIS80       0.0821
    117  ND1        2.4550    0.5870    6.2830 N.ar   80  HIS80      -0.2267
    118  CD2        3.2540   -1.3130    5.4470 C.ar   80  HIS80       0.1154
    119  CE1        1.4950   -0.3220    6.2620 C.ar   80  HIS80       0.1986
    120  NE2        1.9290   -1.4800    5.7660 N.ar   80  HIS80      -0.2212
    121  N          6.5980    3.1070    3.4010 N.am   81  GLY81      -0.1940
    122  CA         7.7040    4.0550    3.2930 C.3    81  GLY81       0.2014
    123  C          9.0260    3.6050    3.8750 C.2    81  GLY81       0.2639
    124  O          9.2910    2.4030    3.9570 O.2    81  GLY81      -0.2714
    125  N          9.8680    4.5720    4.2870 N.am   82  CYS82      -0.1967
    126  CA        11.1750    4.2420    4.8500 C.3    82  CYS82       0.1712
    127  C         11.1050    3.6790    6.2700 C.2    82  CYS82       0.2296
    128  O         10.2350    4.0740    7.0520 O.2    82  CYS82      -0.2864
    129  CB        12.1800    5.3850    4.7110 C.3    82  CYS82       0.0983
    130  SG        12.1470    6.5950    6.0570 S.3    82  CYS82      -0.0798
    131  N         11.2440    6.1300    9.5540 N.3    85  ASP85      -0.1225
    132  CA         9.9570    6.7750    9.8390 C.3    85  ASP85       0.1805
    133  C          8.9370    5.7830   10.3860 C.2    85  ASP85       0.2597
    134  O          8.2330    6.1090   11.3430 O.2    85  ASP85      -0.2718
    135  CB         9.3940    7.4700    8.5880 C.3    85  ASP85       0.1424
    136  CG        10.1650    8.6850    8.1040 C.2    85  ASP85       0.3668
    137  OD1        9.8990    9.1400    6.9730 O.co2  85  ASP85      -0.2456
    138  OD2       11.0190    9.1960    8.8660 O.co2  85  ASP85      -0.2456
    139  N          8.8710    4.5710    9.7890 N.am   86  TYR86      -0.1976
    140  CA         7.9530    3.4950   10.1770 C.3    86  TYR86       0.1639
    141  C          8.1420    3.0540   11.6320 C.2    86  TYR86       0.2290
    142  O          7.1540    2.7920   12.3200 O.2    86  TYR86      -0.2864
    143  CB         8.0760    2.2970    9.2170 C.3    86  TYR86       0.0560
    144  CG         7.0670    1.1990    9.4720 C.ar   86  TYR86      -0.0198
    145  CD1        5.7220    1.3730    9.1550 C.ar   86  TYR86      -0.0009
    146  CD2        7.4570   -0.0230   10.0110 C.ar   86  TYR86      -0.0009
    147  CE1        4.7880    0.3650    9.3850 C.ar   86  TYR86       0.0417
    148  CE2        6.5320   -1.0390   10.2440 C.ar   86  TYR86       0.0417
    149  CZ         5.1970   -0.8400    9.9300 C.ar   86  TYR86       0.1957
    150  OH         4.2770   -1.8340   10.1560 O.3    86  TYR86      -0.2866
    151  N         17.0810    4.7530    7.3710 N.3   126  ARG126     -0.1231
    152  CA        16.5790    5.7560    6.4230 C.3   126  ARG126      0.1694
    153  C         16.7430    5.2930    4.9570 C.2   126  ARG126      0.2592
    154  O         16.1020    5.8560    4.0690 O.2   126  ARG126     -0.2718
    155  CB        17.2610    7.1230    6.6440 C.3   126  ARG126      0.0321
    156  CG        18.7500    7.1380    6.3070 C.3   126  ARG126      0.0489
    157  CD        19.3830    8.5050    6.4580 C.3   126  ARG126      0.2205
    158  NE        20.7680    8.4980    5.9800 N.pl3 126  ARG126     -0.0865
    159  CZ        21.8170    8.1410    6.7150 C.cat 126  ARG126      0.5346
    160  NH1       21.6560    7.7640    7.9770 N.pl3 126  ARG126      0.1354
    161  NH2       23.0360    8.1560    6.1940 N.pl3 126  ARG126      0.1354
    162  N         17.6230    4.2960    4.7160 N.am  127  ASN127     -0.1974
    163  CA        17.8930    3.7270    3.3920 C.3   127  ASN127      0.1688
    164  C         17.2900    2.3270    3.2200 C.2   127  ASN127      0.2292
    165  O         17.7290    1.5470    2.3700 O.2   127  ASN127     -0.2864
    166  CB        19.3900    3.7660    3.0730 C.3   127  ASN127      0.1181
    167  CG        19.8920    5.1460    2.7180 C.2   127  ASN127      0.2629
    168  OD1       19.1840    5.9710    2.1270 O.2   127  ASN127     -0.2716
    169  ND2       21.1410    5.4210    3.0470 N.am  127  ASN127     -0.0877
    170  N         13.2800    0.2310    3.1650 N.3   129  LEU129     -0.1245
    171  CA        11.8570    0.4450    2.9060 C.3   129  LEU129      0.1561
    172  C         10.9850   -0.6570    3.4890 C.2   129  LEU129      0.2260
    173  O         11.4560   -1.7750    3.6740 O.2   129  LEU129     -0.2867
    174  CB        11.6040    0.6030    1.3990 C.3   129  LEU129      0.0270
    175  CG        12.2670    1.8060    0.7290 C.3   129  LEU129      0.0019
    176  CD1       12.4010    1.5840   -0.7540 C.3   129  LEU129      0.0001
    177  CD2       11.5030    3.0880    1.0030 C.3   129  LEU129      0.0001
    178  N         17.3200   -0.3050    0.2650 N.3   139  SER139     -0.1202
    179  CA        17.2410    0.6370   -0.8480 C.3   139  SER139      0.2020
    180  C         18.5640    1.3900   -1.0140 C.2   139  SER139      0.2618
    181  O         19.4480    1.2590   -0.1640 O.2   139  SER139     -0.2717
    182  CB        16.0860    1.6100   -0.6360 C.3   139  SER139      0.2103
    183  OG        15.8300    2.3660   -1.8080 O.3   139  SER139     -0.2182
    184  N         18.7030    2.1620   -2.1220 N.am  140  ASP140     -0.1973
    185  CA        19.8870    2.9700   -2.4620 C.3   140  ASP140      0.1709
    186  C         21.2220    2.2030   -2.3370 C.2   140  ASP140      0.2293
    187  O         22.1950    2.7200   -1.7760 O.2   140  ASP140     -0.2864
    188  CB        19.9050    4.2840   -1.6490 C.3   140  ASP140      0.1436
    189  CG        18.7090    5.2030   -1.8440 C.2   140  ASP140      0.3671
    190  OD1       17.9920    5.0470   -2.8610 O.co2 140  ASP140     -0.2456
    191  OD2       18.4990    6.0880   -0.9870 O.co2 140  ASP140     -0.2456
@<TRIPOS>BOND
     1    63    64    1
     2    50    49    2
     3    64    65    1
     4    64    67    1
     5    49    48    1
     6    66    65    2
     7    65    74   am
     8    47    48    1
     9    74    75    1
    10    45    44    2
    11    48    51    1
    12    75    78    1
    13    75    76    1
    14    44    43    1
    15    42    43    1
    16    69    71   ar
    17    69    68   ar
    18    67    68    1
    19    71    73   ar
    20    37    36    2
    21    68    70   ar
    22    78    79    2
    23    51    52    1
    24    36    35    1
    25    73    72   ar
    26    70    72   ar
    27    43    46    1
    28    76    83   am
    29    76    77    2
    30    59    58    2
    31    52    53    1
    32    83    84    1
    33    79    80    1
    34    58    57    1
    35    35    34    1
    36    35    38    1
    37    53    54    1
    38    80    81   ar
    39    80    82   ar
    40    87    84    1
    41    87    88    1
    42    40    39    1
    43    84    85    1
    44    39    38    1
    45    39    41    1
    46    54    55    1
    47    29    28    1
    48    29    30    2
    49    28    27    1
    50    28    31    1
    51    24    23    1
    52    24    25    1
    53    61    60    1
    54    57    60    1
    55    57    56    1
    56    62    60    1
    57    88    89   ar
    58    88    90   ar
    59    32    31    1
    60    25    26    2
    61    86    85    2
    62    85    94   am
    63    89    91   ar
    64    33    31    1
    65    90    92   ar
    66   190   189   ar
    67   185   186    1
    68   185   184    1
    69   185   188    1
    70   186   187    2
    71    94    95    1
    72   184   180   am
    73    91    93   ar
    74     8     6    1
    75   189   188    1
    76   189   191   ar
    77     6     5    1
    78    92    93   ar
    79   183   182    1
    80   110   108   ar
    81     1     2    1
    82   100    99    1
    83   100   101    1
    84    99    98    1
    85    12    11    2
    86   180   179    1
    87   180   181    2
    88    95    98    1
    89    95    96    1
    90     7     5    1
    91   179   182    1
    92   179   178    1
    93   176   175    1
    94    22    21    2
    95     5     2    1
    96   108   107    1
    97   108   109   ar
    98     2     3    1
    99    21    20    1
   100    18    17    1
   101    11    10    1
   102    11    13   am
   103     9     3    1
   104     9    10    2
   105    96   102   am
   106    96    97    2
   107    19    20    1
   108    19    15   am
   109   107   106    1
   110    14    17    1
   111    14    13    1
   112    14    15    1
   113   102   103    1
   114     3     4    2
   115   175   177    1
   116   175   174    1
   117    15    16    2
   118   103   106    1
   119   103   104    1
   120   174   171    1
   121   168   167    2
   122   165   164    2
   123   104   105    2
   124   104   111   am
   125   167   169   am
   126   167   166    1
   127   171   170    1
   128   171   172    1
   129   166   163    1
   130   111   112    1
   131   164   163    1
   132   122   121    1
   133   122   123    1
   134   163   162    1
   135   121   113   am
   136   172   173    2
   137   123   124    2
   138   123   125   am
   139   154   153    2
   140   125   126    1
   141   112   113    1
   142   112   115    1
   143   113   114    2
   144   129   126    1
   145   129   130    1
   146   162   153   am
   147   126   127    1
   148   153   152    1
   149   118   116   ar
   150   118   120   ar
   151   115   116    1
   152   116   117   ar
   153   120   119   ar
   154   158   157    1
   155   158   159    2
   156   161   159    1
   157   119   117   ar
   158   127   128    2
   159   156   157    1
   160   156   155    1
   161   152   155    1
   162   152   151    1
   163   159   160    1
   164   137   136   ar
   165   136   135    1
   166   136   138   ar
   167   135   132    1
   168   145   147   ar
   169   145   144   ar
   170   143   144    1
   171   143   140    1
   172   147   149   ar
   173   144   146   ar
   174   131   132    1
   175   139   140    1
   176   139   133   am
   177   132   133    1
   178   149   150    1
   179   149   148   ar
   180   146   148   ar
   181   140   141    1
   182   133   134    2
   183   141   142    2
