@<TRIPOS>MOLECULE
tmp/3v5mA01.pdb
 84 76 0 0 0
SMALL
GASTEIGER

@<TRIPOS>ATOM
      1  N         15.7450   28.3250   -0.5910 N.3   192  ALA192     -0.1245
      2  CA        17.1160   28.3990   -0.1440 C.3   192  ALA192      0.1562
      3  C         17.9270   27.1290   -0.3680 C.2   192  ALA192      0.2260
      4  O         19.1490   27.2200   -0.4830 O.2   192  ALA192     -0.2867
      5  CB        17.1440   28.7720    1.3570 C.3   192  ALA192      0.0290
      6  N         20.4820   27.1200   -3.4160 N.3   195  LEU195     -0.1231
      7  CA        21.5210   28.1030   -3.1330 C.3   195  LEU195      0.1693
      8  C         22.5030   27.5910   -2.0850 C.2   195  LEU195      0.2591
      9  O         23.7360   27.7010   -2.2360 O.2   195  LEU195     -0.2718
     10  CB        20.8730   29.4080   -2.6640 C.3   195  LEU195      0.0284
     11  CG        21.8110   30.5460   -2.2590 C.3   195  LEU195      0.0019
     12  CD1       22.8350   30.8950   -3.3660 C.3   195  LEU195      0.0001
     13  CD2       20.9950   31.7730   -1.8760 C.3   195  LEU195      0.0001
     14  N         21.9700   27.0490   -0.9860 N.am  196  ILE196     -0.1980
     15  CA        22.8280   26.4760    0.0460 C.3   196  ILE196      0.1595
     16  C         23.7060   25.3630   -0.5180 C.2   196  ILE196      0.2287
     17  O         24.9140   25.3400   -0.2580 O.2   196  ILE196     -0.2864
     18  CB        22.0240   25.9820    1.2700 C.3   196  ILE196      0.0276
     19  CG1       21.3830   27.1830    1.9580 C.3   196  ILE196      0.0022
     20  CG2       22.9850   25.2600    2.2380 C.3   196  ILE196      0.0022
     21  CD1       20.3400   26.8030    3.0110 C.3   196  ILE196      0.0001
     22  N         26.9230   26.3920   -2.3210 N.3   199  VAL199     -0.1245
     23  CA        28.0660   26.8520   -1.5150 C.3   199  VAL199      0.1561
     24  C         28.5500   25.8500   -0.4660 C.2   199  VAL199      0.2260
     25  O         29.4720   26.1170    0.3080 O.2   199  VAL199     -0.2867
     26  CB        27.8270   28.2470   -0.8610 C.3   199  VAL199      0.0252
     27  CG1       27.6970   29.3190   -1.9470 C.3   199  VAL199      0.0019
     28  CG2       26.5900   28.2630    0.0600 C.3   199  VAL199      0.0019
     29  N         13.5910   28.4840    5.5660 N.3   210  THR210     -0.1218
     30  CA        14.0270   29.8300    5.9210 C.3   210  THR210      0.1862
     31  C         12.8660   30.7910    5.9940 C.2   210  THR210      0.2287
     32  O         11.7770   30.5130    5.5070 O.2   210  THR210     -0.2866
     33  CB        15.0990   30.3930    4.9380 C.3   210  THR210      0.1770
     34  OG1       14.5070   30.5770    3.6560 O.3   210  THR210     -0.2211
     35  CG2       16.2800   29.4420    4.8060 C.3   210  THR210      0.0375
     36  N         15.2110   37.2720   10.5630 N.3   218  ARG218     -0.1245
     37  CA        15.5880   36.2360    9.6410 C.3   218  ARG218      0.1563
     38  C         15.6360   34.9520   10.4410 C.2   218  ARG218      0.2260
     39  O         15.9020   34.9500   11.6690 O.2   218  ARG218     -0.2867
     40  CB        16.9620   36.5740    9.0370 C.3   218  ARG218      0.0307
     41  CG        17.4270   35.7260    7.8600 C.3   218  ARG218      0.0489
     42  CD        16.8260   36.2830    6.5960 C.3   218  ARG218      0.2205
     43  NE        17.4010   35.6450    5.3990 N.pl3 218  ARG218     -0.0865
     44  CZ        16.7440   34.8110    4.5880 C.cat 218  ARG218      0.5346
     45  NH1       17.3460   34.3430    3.4980 N.pl3 218  ARG218      0.1354
     46  NH2       15.4900   34.4250    4.8440 N.pl3 218  ARG218      0.1354
     47  N         16.4150   30.4230   10.0400 N.3   220  ILE220     -0.1245
     48  CA        16.5670   29.1710    9.3140 C.3   220  ILE220      0.1561
     49  C         16.4770   28.0340   10.3050 C.2   220  ILE220      0.2260
     50  O         17.1150   28.0700   11.3790 O.2   220  ILE220     -0.2867
     51  CB        17.8710   29.1110    8.4700 C.3   220  ILE220      0.0252
     52  CG1       17.9630   27.7820    7.7170 C.3   220  ILE220      0.0019
     53  CG2       19.1210   29.3500    9.3240 C.3   220  ILE220      0.0019
     54  CD1       19.0230   27.7360    6.5810 C.3   220  ILE220      0.0001
     55  N         22.2890   37.1800    5.1390 N.3   249  ASN249     -0.1225
     56  CA        22.5890   35.8960    4.5170 C.3   249  ASN249      0.1785
     57  C         24.0550   35.5110    4.6750 C.2   249  ASN249      0.2597
     58  O         24.3790   34.3530    4.9800 O.2   249  ASN249     -0.2718
     59  CB        22.2380   35.9540    3.0230 C.3   249  ASN249      0.1169
     60  CG        20.7340   35.9250    2.7440 C.2   249  ASN249      0.2627
     61  OD1       19.9190   35.6810    3.6310 O.2   249  ASN249     -0.2716
     62  ND2       20.3680   36.2270    1.5100 N.am  249  ASN249     -0.0877
     63  N         24.9430   36.4730    4.4330 N.am  250  GLN250     -0.1979
     64  CA        26.3840   36.2120    4.5330 C.3   250  GLN250      0.1601
     65  C         26.7820   35.8500    5.9560 C.2   250  GLN250      0.2287
     66  O         27.6220   34.9600    6.1700 O.2   250  GLN250     -0.2864
     67  CB        27.1870   37.4160    4.0680 C.3   250  GLN250      0.0394
     68  CG        27.1710   37.6040    2.5650 C.3   250  GLN250      0.0908
     69  CD        27.5980   39.0030    2.1460 C.2   250  GLN250      0.2608
     70  OE1       28.2770   39.7140    2.8910 O.2   250  GLN250     -0.2717
     71  NE2       27.1940   39.4020    0.9510 N.am  250  GLN250     -0.0878
     72  N         24.7950   34.4460    8.3340 N.3   252  ILE252     -0.1231
     73  CA        24.3150   33.0940    8.5960 C.3   252  ILE252      0.1692
     74  C         25.2200   32.0560    7.9150 C.2   252  ILE252      0.2591
     75  O         25.6050   31.0400    8.5140 O.2   252  ILE252     -0.2718
     76  CB        22.8630   32.9550    8.1530 C.3   252  ILE252      0.0266
     77  CG1       21.9890   33.8480    9.0430 C.3   252  ILE252      0.0019
     78  CG2       22.4370   31.4630    8.2450 C.3   252  ILE252      0.0020
     79  CD1       20.5070   33.9080    8.6100 C.3   252  ILE252      0.0001
     80  N         25.5840   32.3120    6.6620 N.am  253  ALA253     -0.1980
     81  CA        26.4800   31.4190    5.9370 C.3   253  ALA253      0.1597
     82  C         27.8180   31.3240    6.6680 C.2   253  ALA253      0.2287
     83  O         28.4120   30.2390    6.7170 O.2   253  ALA253     -0.2864
     84  CB        26.6920   31.9110    4.4800 C.3   253  ALA253      0.0319
@<TRIPOS>BOND
     1     6     7    1
     2    12    11    1
     3     7    10    1
     4     7     8    1
     5    10    11    1
     6    22    23    1
     7    11    13    1
     8     9     8    2
     9     8    14   am
    10    27    26    1
    11    23    26    1
    12    23    24    1
    13    14    15    1
    14    26    28    1
    15     1     2    1
    16    16    17    2
    17    16    15    1
    18     4     3    2
    19    24    25    2
    20     3     2    1
    21     2     5    1
    22    15    18    1
    23    71    69   am
    24    18    19    1
    25    18    20    1
    26    62    60   am
    27    19    21    1
    28    69    68    1
    29    69    70    2
    30    68    67    1
    31    60    59    1
    32    60    61    2
    33    59    56    1
    34    45    44    1
    35    34    33    1
    36    67    64    1
    37    63    64    1
    38    63    57   am
    39    84    81    1
    40    56    57    1
    41    56    55    1
    42    64    65    1
    43    44    46    1
    44    44    43    2
    45    57    58    2
    46    35    33    1
    47    33    30    1
    48    43    42    1
    49    32    31    2
    50    29    30    1
    51    30    31    1
    52    81    80    1
    53    81    82    1
    54    65    66    2
    55    54    52    1
    56    42    41    1
    57    80    74   am
    58    82    83    2
    59    52    51    1
    60    41    40    1
    61    74    75    2
    62    74    73    1
    63    76    78    1
    64    76    73    1
    65    76    77    1
    66    72    73    1
    67    51    48    1
    68    51    53    1
    69    79    77    1
    70    40    37    1
    71    48    47    1
    72    48    49    1
    73    37    38    1
    74    37    36    1
    75    49    50    2
    76    38    39    2
