@<TRIPOS>MOLECULE
tmp/3v5mA00.pdb
 141 131 0 0 0
SMALL
GASTEIGER

@<TRIPOS>ATOM
      1  N         37.7800   30.0650    9.0890 N.3     1  SER1       -0.1217
      2  CA        36.6790   30.5120    9.9940 C.3     1  SER1        0.1889
      3  C         37.0520   30.2950   11.4550 C.2     1  SER1        0.2288
      4  O         37.7440   29.3290   11.7730 O.2     1  SER1       -0.2866
      5  CB        35.3820   29.7620    9.6680 C.3     1  SER1        0.2089
      6  OG        34.9600   30.0180    8.3330 O.3     1  SER1       -0.2183
      7  N         21.9700   27.0490   -0.9860 N.3   196  ILE196     -0.1245
      8  CA        22.8280   26.4760    0.0460 C.3   196  ILE196      0.1561
      9  C         23.7060   25.3630   -0.5180 C.2   196  ILE196      0.2260
     10  O         24.9140   25.3400   -0.2580 O.2   196  ILE196     -0.2867
     11  CB        22.0240   25.9820    1.2700 C.3   196  ILE196      0.0252
     12  CG1       21.3830   27.1830    1.9580 C.3   196  ILE196      0.0019
     13  CG2       22.9850   25.2600    2.2380 C.3   196  ILE196      0.0019
     14  CD1       20.3400   26.8030    3.0110 C.3   196  ILE196      0.0001
     15  N         26.9230   26.3920   -2.3210 N.3   199  VAL199     -0.1231
     16  CA        28.0660   26.8520   -1.5150 C.3   199  VAL199      0.1692
     17  C         28.5500   25.8500   -0.4660 C.2   199  VAL199      0.2592
     18  O         29.4720   26.1170    0.3080 O.2   199  VAL199     -0.2718
     19  CB        27.8270   28.2470   -0.8610 C.3   199  VAL199      0.0266
     20  CG1       27.6970   29.3190   -1.9470 C.3   199  VAL199      0.0020
     21  CG2       26.5900   28.2630    0.0600 C.3   199  VAL199      0.0020
     22  N         27.9060   24.6940   -0.4140 N.am  200  LEU200     -0.1966
     23  CA        28.3550   23.6580    0.5200 C.3   200  LEU200      0.1713
     24  C         29.4250   22.7990   -0.1200 C.2   200  LEU200      0.2458
     25  O         29.3090   22.4510   -1.2920 O.2   200  LEU200     -0.2730
     26  CB        27.1930   22.7440    0.9050 C.3   200  LEU200      0.0310
     27  CG        26.2850   23.2610    2.0240 C.3   200  LEU200      0.0022
     28  CD1       25.1980   22.2180    2.2290 C.3   200  LEU200      0.0001
     29  CD2       27.0170   23.5230    3.3440 C.3   200  LEU200      0.0001
     30  N         30.4300   22.3920    0.6620 N.am  201  PRO201     -0.2727
     31  CA        31.3830   21.4300    0.0760 C.3   201  PRO201      0.1402
     32  C         30.6590   20.1370   -0.2910 C.2   201  PRO201      0.2269
     33  O         29.6200   19.7850    0.3000 O.2   201  PRO201     -0.2865
     34  CB        32.3740   21.1600    1.2070 C.3   201  PRO201      0.0296
     35  CG        32.2090   22.3530    2.1650 C.3   201  PRO201      0.0237
     36  CD        30.7300   22.6810    2.0740 C.3   201  PRO201      0.0939
     37  N         28.0920   17.3260    2.0050 N.3   204  TRP204     -0.1241
     38  CA        27.2660   17.8930    3.0760 C.3   204  TRP204      0.1605
     39  C         25.7970   17.8710    2.7050 C.2   204  TRP204      0.2264
     40  O         25.3880   18.4480    1.7120 O.2   204  TRP204     -0.2867
     41  CB        27.7340   19.3070    3.4410 C.3   204  TRP204      0.0550
     42  CG        29.0450   19.2940    4.1400 C.ar  204  TRP204      0.0003
     43  CD1       30.2920   19.1680    3.5610 C.ar  204  TRP204      0.0946
     44  CD2       29.2610   19.3240    5.5460 C.ar  204  TRP204      0.0152
     45  NE1       31.2570   19.1690    4.5290 N.ar  204  TRP204     -0.2442
     46  CE2       30.6510   19.2470    5.7580 C.ar  204  TRP204      0.0810
     47  CE3       28.4070   19.4060    6.6540 C.ar  204  TRP204      0.0012
     48  CZ2       31.2160   19.2490    7.0200 C.ar  204  TRP204      0.0191
     49  CZ3       28.9650   19.4200    7.9100 C.ar  204  TRP204      0.0001
     50  CH2       30.3660   19.3450    8.0880 C.ar  204  TRP204      0.0015
     51  N         21.8970   18.9600    3.1860 N.3   206  ILE206     -0.1245
     52  CA        21.0900   20.0710    3.6890 C.3   206  ILE206      0.1561
     53  C         19.6070   19.7950    3.4630 C.2   206  ILE206      0.2260
     54  O         19.1710   19.3090    2.4130 O.2   206  ILE206     -0.2867
     55  CB        21.5070   21.4320    3.0690 C.3   206  ILE206      0.0252
     56  CG1       20.7140   22.6030    3.6870 C.3   206  ILE206      0.0019
     57  CG2       21.3560   21.4480    1.5580 C.3   206  ILE206      0.0019
     58  CD1       21.1250   22.9140    5.1120 C.3   206  ILE206      0.0001
     59  N         16.4150   30.4230   10.0400 N.3   220  ILE220     -0.1245
     60  CA        16.5670   29.1710    9.3140 C.3   220  ILE220      0.1561
     61  C         16.4770   28.0340   10.3050 C.2   220  ILE220      0.2260
     62  O         17.1150   28.0700   11.3790 O.2   220  ILE220     -0.2867
     63  CB        17.8710   29.1110    8.4700 C.3   220  ILE220      0.0252
     64  CG1       17.9630   27.7820    7.7170 C.3   220  ILE220      0.0019
     65  CG2       19.1210   29.3500    9.3240 C.3   220  ILE220      0.0019
     66  CD1       19.0230   27.7360    6.5810 C.3   220  ILE220      0.0001
     67  N         17.2910   23.9670    9.9940 N.3   222  ALA222     -0.1245
     68  CA        17.9990   23.1570    9.0190 C.3   222  ALA222      0.1562
     69  C         18.4670   21.8500    9.6200 C.2   222  ALA222      0.2260
     70  O         18.6820   21.7150   10.8480 O.2   222  ALA222     -0.2867
     71  CB        19.1990   23.9050    8.4670 C.3   222  ALA222      0.0290
     72  N         21.7610   19.3440    8.8340 N.3   224  LEU224     -0.1245
     73  CA        23.0750   19.5190    8.1950 C.3   224  LEU224      0.1561
     74  C         23.9730   18.3810    8.6600 C.2   224  LEU224      0.2260
     75  O         23.9280   17.9710    9.8290 O.2   224  LEU224     -0.2867
     76  CB        23.6970   20.8420    8.6510 C.3   224  LEU224      0.0270
     77  CG        25.1070   21.1890    8.1650 C.3   224  LEU224      0.0019
     78  CD1       25.1160   21.4670    6.6660 C.3   224  LEU224      0.0001
     79  CD2       25.5910   22.4060    8.8780 C.3   224  LEU224      0.0001
     80  N         20.2620   22.5180   13.0630 N.3   234  VAL234     -0.1245
     81  CA        20.8030   23.8540   13.3170 C.3   234  VAL234      0.1561
     82  C         19.6790   24.8560   13.1720 C.2   234  VAL234      0.2260
     83  O         19.0080   24.8880   12.1290 O.2   234  VAL234     -0.2867
     84  CB        21.9550   24.1850   12.3500 C.3   234  VAL234      0.0252
     85  CG1       22.4910   25.5870   12.6300 C.3   234  VAL234      0.0019
     86  CG2       23.0610   23.1280   12.4580 C.3   234  VAL234      0.0019
     87  N         18.9690   28.9600   13.4890 N.3   236  ILE236     -0.1245
     88  CA        19.5590   30.3020   13.6640 C.3   236  ILE236      0.1561
     89  C         18.4900   31.3410   13.4050 C.2   236  ILE236      0.2260
     90  O         17.7960   31.2760   12.3820 O.2   236  ILE236     -0.2867
     91  CB        20.7370   30.5510   12.7120 C.3   236  ILE236      0.0252
     92  CG1       21.8790   29.5730   12.9970 C.3   236  ILE236      0.0019
     93  CG2       21.2350   32.0180   12.8010 C.3   236  ILE236      0.0019
     94  CD1       22.9600   29.5240   11.8920 C.3   236  ILE236      0.0001
     95  N         24.7950   34.4460    8.3340 N.3   252  ILE252     -0.1231
     96  CA        24.3150   33.0940    8.5960 C.3   252  ILE252      0.1692
     97  C         25.2200   32.0560    7.9150 C.2   252  ILE252      0.2591
     98  O         25.6050   31.0400    8.5140 O.2   252  ILE252     -0.2718
     99  CB        22.8630   32.9550    8.1530 C.3   252  ILE252      0.0266
    100  CG1       21.9890   33.8480    9.0430 C.3   252  ILE252      0.0019
    101  CG2       22.4370   31.4630    8.2450 C.3   252  ILE252      0.0020
    102  CD1       20.5070   33.9080    8.6100 C.3   252  ILE252      0.0001
    103  N         25.5840   32.3120    6.6620 N.am  253  ALA253     -0.1980
    104  CA        26.4800   31.4190    5.9370 C.3   253  ALA253      0.1597
    105  C         27.8180   31.3240    6.6680 C.2   253  ALA253      0.2287
    106  O         28.4120   30.2390    6.7170 O.2   253  ALA253     -0.2864
    107  CB        26.6920   31.9110    4.4800 C.3   253  ALA253      0.0319
    108  N         27.5060   28.8890    9.4370 N.3   256  GLY256     -0.1210
    109  CA        27.5530   27.5530    8.8350 C.3   256  GLY256      0.1956
    110  C         29.0060   27.1670    8.4940 C.2   256  GLY256      0.2611
    111  O         29.4010   26.0290    8.7210 O.2   256  GLY256     -0.2717
    112  N         29.8030   28.0950    7.9750 N.am  257  ALA257     -0.1979
    113  CA        31.1850   27.7860    7.6170 C.3   257  ALA257      0.1597
    114  C         31.9860   27.4190    8.8690 C.2   257  ALA257      0.2287
    115  O         32.7910   26.4890    8.8140 O.2   257  ALA257     -0.2864
    116  CB        31.8120   28.9520    6.8980 C.3   257  ALA257      0.0319
    117  N         30.7700   26.0350   11.5580 N.3   259  LEU259     -0.1231
    118  CA        30.3520   24.6800   11.9480 C.3   259  LEU259      0.1693
    119  C         31.0750   23.6180   11.1200 C.2   259  LEU259      0.2592
    120  O         31.5380   22.6040   11.6640 O.2   259  LEU259     -0.2718
    121  CB        28.8290   24.5150   11.7800 C.3   259  LEU259      0.0284
    122  CG        27.9680   25.3710   12.7190 C.3   259  LEU259      0.0019
    123  CD1       26.4900   25.2010   12.3780 C.3   259  LEU259      0.0001
    124  CD2       28.1930   25.0720   14.1780 C.3   259  LEU259      0.0001
    125  N         31.1430   23.8390    9.8090 N.am  260  ILE260     -0.1966
    126  CA        31.7270   22.8900    8.8530 C.3   260  ILE260      0.1727
    127  C         33.2190   22.7270    9.1620 C.2   260  ILE260      0.2616
    128  O         33.7350   21.6090    9.1330 O.2   260  ILE260     -0.2715
    129  CB        31.5130   23.4010    7.4110 C.3   260  ILE260      0.0290
    130  CG1       30.0550   23.2020    6.9950 C.3   260  ILE260      0.0022
    131  CG2       32.4940   22.7170    6.3780 C.3   260  ILE260      0.0023
    132  CD1       29.6560   24.0480    5.8090 C.3   260  ILE260      0.0001
    133  N         33.9320   23.8390    9.3770 N.am  261  GLU261     -0.1977
    134  CA        35.3790   23.7930    9.6290 C.3   261  GLU261      0.1602
    135  C         35.7440   23.2390   11.0030 C.2   261  GLU261      0.2287
    136  O         36.8990   22.8500   11.2330 O.2   261  GLU261     -0.2864
    137  CB        35.9610   25.1960    9.4530 C.3   261  GLU261      0.0415
    138  CG        36.0120   25.6290    7.9920 C.3   261  GLU261      0.1163
    139  CD        36.5950   27.0110    7.8060 C.2   261  GLU261      0.3649
    140  OE1       37.5890   27.3170    8.4760 O.co2 261  GLU261     -0.2457
    141  OE2       36.0610   27.7960    6.9970 O.co2 261  GLU261     -0.2457
@<TRIPOS>BOND
     1    15    16    1
     2    20    19    1
     3    16    19    1
     4    16    17    1
     5    25    24    2
     6     7     8    1
     7    19    21    1
     8     9    10    2
     9     9     8    1
    10    17    22   am
    11    17    18    2
    12    22    23    1
    13    32    31    1
    14    32    33    2
    15    24    23    1
    16    24    30   am
    17     8    11    1
    18    31    30    1
    19    31    34    1
    20    23    26    1
    21    30    36    1
    22    26    27    1
    23    34    35    1
    24    11    12    1
    25    11    13    1
    26    57    55    1
    27    40    39    2
    28    12    14    1
    29    37    38    1
    30    27    28    1
    31    27    29    1
    32    36    35    1
    33    54    53    2
    34    39    38    1
    35    55    56    1
    36    55    52    1
    37    38    41    1
    38    51    52    1
    39    41    42    1
    40    53    52    1
    41    43    42   ar
    42    43    45   ar
    43    56    58    1
    44    42    44   ar
    45   107   104    1
    46    45    46   ar
    47    44    46   ar
    48    44    47   ar
    49    46    48   ar
    50   132   130    1
    51   104   103    1
    52   104   105    1
    53   131   129    1
    54    66    64    1
    55    47    49   ar
    56   103    97   am
    57    78    77    1
    58   105   106    2
    59   116   113    1
    60   130   129    1
    61   141   139   ar
    62    48    50   ar
    63   129   126    1
    64   113   112    1
    65   113   114    1
    66    64    63    1
    67   139   138    1
    68   139   140   ar
    69    49    50   ar
    70    97    98    2
    71    97    96    1
    72   112   110   am
    73   138   137    1
    74    99   101    1
    75    99    96    1
    76    99   100    1
    77    77    76    1
    78    77    79    1
    79    73    76    1
    80    73    74    1
    81    73    72    1
    82     6     5    1
    83    95    96    1
    84    71    68    1
    85    63    60    1
    86    63    65    1
    87   110   111    2
    88   110   109    1
    89   102   100    1
    90    74    75    2
    91   115   114    2
    92   109   108    1
    93   126   127    1
    94   126   125    1
    95    68    69    1
    96    68    67    1
    97     1     2    1
    98   128   127    2
    99   127   133   am
   100    60    59    1
   101    60    61    1
   102   133   134    1
   103   137   134    1
   104    69    70    2
   105   134   135    1
   106     5     2    1
   107   125   119   am
   108     2     3    1
   109    61    62    2
   110   135   136    2
   111   119   120    2
   112   119   118    1
   113     3     4    2
   114   117   118    1
   115   121   118    1
   116   121   122    1
   117    94    92    1
   118    83    82    2
   119    84    86    1
   120    84    85    1
   121    84    81    1
   122   123   122    1
   123    90    89    2
   124    91    93    1
   125    91    92    1
   126    91    88    1
   127   122   124    1
   128    80    81    1
   129    82    81    1
   130    89    88    1
   131    87    88    1
