@<TRIPOS>MOLECULE
tmp/3v5pA00.pdb
 170 160 0 0 0
SMALL
GASTEIGER

@<TRIPOS>ATOM
      1  N         31.1430   16.1780   35.5160 N.3    15  LEU15      -0.1231
      2  CA        31.0430   15.7510   34.1150 C.3    15  LEU15       0.1693
      3  C         30.9050   16.9600   33.1980 C.2    15  LEU15       0.2593
      4  O         31.1910   16.8740   32.0050 O.2    15  LEU15      -0.2718
      5  CB        29.8610   14.7990   33.9220 C.3    15  LEU15       0.0284
      6  CG        29.9290   13.4650   34.6740 C.3    15  LEU15       0.0019
      7  CD1       28.6700   12.6530   34.4280 C.3    15  LEU15       0.0001
      8  CD2       31.1570   12.6500   34.2960 C.3    15  LEU15       0.0001
      9  N         30.4510   18.0800   33.7540 N.am   16  GLY16      -0.1942
     10  CA        30.3770   19.3310   33.0130 C.3    16  GLY16       0.2014
     11  C         29.0590   20.0520   33.2070 C.2    16  GLY16       0.2639
     12  O         28.3020   19.7780   34.1430 O.2    16  GLY16      -0.2714
     13  N         28.7970   20.9840   32.3010 N.am   17  LYS17      -0.1963
     14  CA        27.6330   21.8480   32.3690 C.3    17  LYS17       0.1728
     15  C         26.6790   21.4190   31.2660 C.2    17  LYS17       0.2616
     16  O         27.0740   21.2790   30.1070 O.2    17  LYS17      -0.2715
     17  CB        28.0620   23.3170   32.2150 C.3    17  LYS17       0.0311
     18  CG        26.9530   24.3290   31.9520 C.3    17  LYS17       0.0038
     19  CD        25.9780   24.4670   33.1100 C.3    17  LYS17       0.0206
     20  CE        24.8870   25.4810   32.7740 C.3    17  LYS17       0.1093
     21  NZ        23.7260   25.4180   33.7070 N.3    17  LYS17      -0.1314
     22  N         25.4310   21.1780   31.6450 N.am   18  GLY18      -0.1955
     23  CA        24.3640   20.9250   30.6950 C.3    18  GLY18       0.1869
     24  C         23.3000   21.9850   30.8630 C.2    18  GLY18       0.2309
     25  O         23.4740   22.9320   31.6370 O.2    18  GLY18      -0.2863
     26  N         26.2540   18.6430   35.8240 N.3    23  VAL23      -0.1245
     27  CA        26.1790   17.2020   35.9150 C.3    23  VAL23       0.1561
     28  C         27.3970   16.6730   36.6670 C.2    23  VAL23       0.2260
     29  O         28.5310   16.9810   36.3150 O.2    23  VAL23      -0.2867
     30  CB        26.0950   16.5770   34.5140 C.3    23  VAL23       0.0252
     31  CG1       25.7240   15.1140   34.6210 C.3    23  VAL23       0.0019
     32  CG2       25.0630   17.3210   33.6870 C.3    23  VAL23       0.0019
     33  N         25.2340    9.4450   36.4070 N.3    36  ALA36      -0.1245
     34  CA        25.3630   10.8710   36.1330 C.3    36  ALA36       0.1562
     35  C         24.1890   11.5580   36.8290 C.2    36  ALA36       0.2260
     36  O         23.0350   11.1720   36.6290 O.2    36  ALA36      -0.2867
     37  CB        25.3330   11.1400   34.6280 C.3    36  ALA36       0.0290
     38  N         22.2870   15.1080   37.3050 N.3    38  LYS38      -0.1245
     39  CA        22.0600   16.5070   36.9640 C.3    38  LYS38       0.1561
     40  C         21.3630   17.1940   38.1300 C.2    38  LYS38       0.2260
     41  O         20.3060   16.7490   38.5880 O.2    38  LYS38      -0.2867
     42  CB        21.2280   16.6500   35.6980 C.3    38  LYS38       0.0271
     43  CG        20.8800   18.0990   35.3570 C.3    38  LYS38       0.0035
     44  CD        20.4010   18.2580   33.9160 C.3    38  LYS38       0.0206
     45  CE        21.5400   18.2210   32.9060 C.3    38  LYS38       0.1093
     46  NZ        21.0750   18.6180   31.5500 N.3    38  LYS38      -0.1314
     47  N         18.5140    8.4840   26.9460 N.3    70  MET70      -0.1245
     48  CA        19.1470    8.3250   28.2470 C.3    70  MET70       0.1570
     49  C         18.2040    7.5930   29.2140 C.2    70  MET70       0.2261
     50  O         17.0000    7.8550   29.2320 O.2    70  MET70      -0.2867
     51  CB        19.5130    9.6780   28.8600 C.3    70  MET70       0.0387
     52  CG        20.3070    9.5480   30.1590 C.3    70  MET70       0.0595
     53  SD        20.2900   11.0010   31.2030 S.3    70  MET70      -0.1393
     54  CE        18.7160   10.7870   32.0240 C.3    70  MET70       0.0692
     55  N         16.8140    7.1690   32.8320 N.3    72  LEU72      -0.1245
     56  CA        16.6440    7.8540   34.1060 C.3    72  LEU72       0.1561
     57  C         16.2970    6.7990   35.1410 C.2    72  LEU72       0.2260
     58  O         15.3530    6.0290   34.9420 O.2    72  LEU72      -0.2867
     59  CB        15.5200    8.8940   34.0050 C.3    72  LEU72       0.0270
     60  CG        15.2450    9.7620   35.2460 C.3    72  LEU72       0.0019
     61  CD1       16.4220   10.6860   35.5370 C.3    72  LEU72       0.0001
     62  CD2       13.9560   10.5730   35.0780 C.3    72  LEU72       0.0001
     63  N         18.4140   14.6880   39.1970 N.3    84  LEU84      -0.1231
     64  CA        18.0020   13.6950   38.2230 C.3    84  LEU84       0.1693
     65  C         19.1590   12.7030   38.0920 C.2    84  LEU84       0.2592
     66  O         20.2630   13.0990   37.7350 O.2    84  LEU84      -0.2718
     67  CB        17.6880   14.3740   36.8990 C.3    84  LEU84       0.0284
     68  CG        16.4550   15.2870   36.8350 C.3    84  LEU84       0.0019
     69  CD1       16.7670   16.5710   36.0850 C.3    84  LEU84       0.0001
     70  CD2       15.2720   14.5910   36.1630 C.3    84  LEU84       0.0001
     71  N         18.9150   11.4270   38.4030 N.am   85  VAL85      -0.1966
     72  CA        19.9820   10.4110   38.4290 C.3    85  VAL85       0.1727
     73  C         19.8030    9.5000   37.2380 C.2    85  VAL85       0.2617
     74  O         18.7980    8.7950   37.1640 O.2    85  VAL85      -0.2715
     75  CB        19.8950    9.5440   39.7020 C.3    85  VAL85       0.0290
     76  CG1       21.0080    8.4890   39.7530 C.3    85  VAL85       0.0023
     77  CG2       19.8770   10.4150   40.9600 C.3    85  VAL85       0.0023
     78  N         20.7580    9.5080   36.3070 N.am   86  GLY86      -0.1940
     79  CA        20.6640    8.6590   35.1250 C.3    86  GLY86       0.2014
     80  C         21.9010    7.8440   34.8180 C.2    86  GLY86       0.2639
     81  O         22.8950    7.8790   35.5440 O.2    86  GLY86      -0.2714
     82  N         21.8390    7.1090   33.7180 N.am   87  GLU87      -0.1963
     83  CA        22.9750    6.3330   33.2530 C.3    87  GLU87       0.1733
     84  C         24.0590    7.2990   32.7810 C.2    87  GLU87       0.2616
     85  O         23.7440    8.3270   32.1770 O.2    87  GLU87      -0.2715
     86  CB        22.5410    5.4120   32.1170 C.3    87  GLU87       0.0429
     87  CG        23.6040    4.4090   31.6930 C.3    87  GLU87       0.1163
     88  CD        23.0800    3.3380   30.7540 C.2    87  GLU87       0.3649
     89  OE1       21.9690    3.4860   30.1900 O.co2  87  GLU87      -0.2457
     90  OE2       23.7960    2.3430   30.5640 O.co2  87  GLU87      -0.2457
     91  N         25.3230    6.9770   33.0670 N.am   88  VAL88      -0.1963
     92  CA        26.4560    7.7980   32.6170 C.3    88  VAL88       0.1727
     93  C         26.9970    7.2750   31.2820 C.2    88  VAL88       0.2616
     94  O         27.1550    6.0760   31.1120 O.2    88  VAL88      -0.2715
     95  CB        27.5860    7.8640   33.6760 C.3    88  VAL88       0.0290
     96  CG1       28.1820    6.4930   33.9350 C.3    88  VAL88       0.0023
     97  CG2       28.6740    8.8360   33.2420 C.3    88  VAL88       0.0023
     98  N         27.2380    8.1840   30.3360 N.am   89  TYR89      -0.1974
     99  CA        27.8580    7.8480   29.0430 C.3    89  TYR89       0.1639
    100  C         29.1930    8.5630   28.8960 C.2    89  TYR89       0.2290
    101  O         29.3560    9.7160   29.3140 O.2    89  TYR89      -0.2864
    102  CB        26.9270    8.1740   27.8700 C.3    89  TYR89       0.0560
    103  CG        25.5550    7.6000   28.0820 C.ar   89  TYR89      -0.0198
    104  CD1       25.3530    6.2230   28.1170 C.ar   89  TYR89      -0.0009
    105  CD2       24.4660    8.4250   28.3090 C.ar   89  TYR89      -0.0009
    106  CE1       24.0950    5.6910   28.3540 C.ar   89  TYR89       0.0417
    107  CE2       23.2110    7.8960   28.5330 C.ar   89  TYR89       0.0417
    108  CZ        23.0320    6.5370   28.5700 C.ar   89  TYR89       0.1957
    109  OH        21.7680    6.0390   28.8060 O.3    89  TYR89      -0.2866
    110  N         30.2640   14.1050   23.1440 N.3    93  GLU93      -0.1245
    111  CA        29.3270   14.6310   22.1540 C.3    93  GLU93       0.1567
    112  C         29.6180   14.1020   20.7500 C.2    93  GLU93       0.2260
    113  O         30.7650   14.0070   20.3370 O.2    93  GLU93      -0.2867
    114  CB        29.3690   16.1610   22.1410 C.3    93  GLU93       0.0388
    115  CG        28.7440   16.8020   23.3660 C.3    93  GLU93       0.1160
    116  CD        29.0530   18.2870   23.4800 C.2    93  GLU93       0.3649
    117  OE1       29.0870   18.9980   22.4490 O.co2  93  GLU93      -0.2457
    118  OE2       29.2400   18.7470   24.6160 O.co2  93  GLU93      -0.2457
    119  N         24.6990   19.0110   20.9490 N.3   136  GLU136     -0.1245
    120  CA        25.1570   18.9590   22.3430 C.3   136  GLU136      0.1567
    121  C         24.3360   17.9940   23.2260 C.2   136  GLU136      0.2260
    122  O         24.8010   17.5670   24.2900 O.2   136  GLU136     -0.2867
    123  CB        25.0970   20.3800   22.9080 C.3   136  GLU136      0.0388
    124  CG        25.7330   20.5930   24.2590 C.3   136  GLU136      0.1160
    125  CD        25.7950   22.0670   24.6050 C.2   136  GLU136      0.3649
    126  OE1       25.0870   22.4960   25.5480 O.co2 136  GLU136     -0.2457
    127  OE2       26.5370   22.7960   23.9090 O.co2 136  GLU136     -0.2457
    128  N         24.7680   12.3030   22.8630 N.3   139  LEU139     -0.1245
    129  CA        25.9420   11.7220   23.5020 C.3   139  LEU139      0.1561
    130  C         26.2130   10.3650   22.8870 C.2   139  LEU139      0.2260
    131  O         25.2920    9.7080   22.4220 O.2   139  LEU139     -0.2867
    132  CB        25.7070   11.5680   25.0110 C.3   139  LEU139      0.0270
    133  CG        25.5930   12.8670   25.8060 C.3   139  LEU139      0.0019
    134  CD1       25.6320   12.5610   27.2930 C.3   139  LEU139      0.0001
    135  CD2       26.7060   13.8530   25.4430 C.3   139  LEU139      0.0001
    136  N         19.9980   13.1690   25.3350 N.3   152  ILE152     -0.1231
    137  CA        19.7870   13.6410   26.6920 C.3   152  ILE152      0.1692
    138  C         18.7790   14.7890   26.7070 C.2   152  ILE152      0.2592
    139  O         18.5470   15.4470   25.6820 O.2   152  ILE152     -0.2718
    140  CB        21.1080   14.0310   27.4090 C.3   152  ILE152      0.0266
    141  CG1       21.9000   15.0690   26.6200 C.3   152  ILE152      0.0019
    142  CG2       21.9570   12.7910   27.6430 C.3   152  ILE152      0.0020
    143  CD1       23.0000   15.7520   27.3990 C.3   152  ILE152      0.0001
    144  N         18.1530   14.9780   27.8660 N.am  153  ASP153     -0.1960
    145  CA        17.2220   16.0880   28.1370 C.3   153  ASP153      0.1840
    146  C         15.7720   16.0060   27.5810 C.2   153  ASP153      0.2622
    147  O         15.0370   16.9830   27.6550 O.2   153  ASP153     -0.2715
    148  CB        17.8840   17.4400   27.7830 C.3   153  ASP153      0.1450
    149  CG        18.9260   17.8860   28.8310 C.2   153  ASP153      0.3671
    150  OD1       19.0910   17.2010   29.8640 O.co2 153  ASP153     -0.2456
    151  OD2       19.5700   18.9390   28.6260 O.co2 153  ASP153     -0.2456
    152  N         15.3240   14.8520   27.0900 N.am  154  PHE154     -0.1974
    153  CA        13.9100   14.7280   26.7090 C.3   154  PHE154      0.1639
    154  C         13.0060   15.0370   27.9020 C.2   154  PHE154      0.2290
    155  O         13.2370   14.5410   28.9930 O.2   154  PHE154     -0.2864
    156  CB        13.5780   13.3380   26.1620 C.3   154  PHE154      0.0560
    157  CG        13.2440   13.3220   24.6920 C.ar  154  PHE154     -0.0200
    158  CD1       14.1690   12.8990   23.7600 C.ar  154  PHE154     -0.0042
    159  CD2       11.9800   13.6920   24.2560 C.ar  154  PHE154     -0.0042
    160  CE1       13.8590   12.8770   22.4110 C.ar  154  PHE154     -0.0003
    161  CE2       11.6600   13.6680   22.9060 C.ar  154  PHE154     -0.0003
    162  CZ        12.6000   13.2560   21.9840 C.ar  154  PHE154     -0.0000
    163  N         12.5020   17.7800   29.7530 N.3   156  LEU156     -0.1245
    164  CA        12.8430   18.8330   30.7060 C.3   156  LEU156      0.1561
    165  C         12.3100   20.2080   30.3200 C.2   156  LEU156      0.2260
    166  O         11.9420   20.9830   31.2030 O.2   156  LEU156     -0.2867
    167  CB        14.3580   18.9140   30.9040 C.3   156  LEU156      0.0270
    168  CG        15.0180   17.7300   31.6190 C.3   156  LEU156      0.0019
    169  CD1       16.4930   18.0350   31.8220 C.3   156  LEU156      0.0001
    170  CD2       14.3500   17.4330   32.9510 C.3   156  LEU156      0.0001
@<TRIPOS>BOND
     1   113   112    2
     2   112   111    1
     3   119   120    1
     4   162   160   ar
     5   162   161   ar
     6   114   111    1
     7   114   115    1
     8   111   110    1
     9   120   123    1
    10   120   121    1
    11   160   158   ar
    12   131   130    2
    13   117   116   ar
    14   128   129    1
    15   130   129    1
    16   161   159   ar
    17   123   124    1
    18   121   122    2
    19   115   116    1
    20   116   118   ar
    21   129   132    1
    22   158   157   ar
    23   127   125   ar
    24   159   157   ar
    25   124   125    1
    26   125   126   ar
    27   157   156    1
    28   132   133    1
    29   136   137    1
    30   135   133    1
    31   139   138    2
    32   133   134    1
    33   156   153    1
    34   141   143    1
    35   141   140    1
    36   137   138    1
    37   137   140    1
    38   138   144   am
    39   153   152    1
    40   153   154    1
    41    47    48    1
    42   152   146   am
    43   140   142    1
    44   146   147    2
    45   146   145    1
    46   148   145    1
    47   148   149    1
    48   144   145    1
    49   102   103    1
    50   102    99    1
    51   154   155    2
    52   103   104   ar
    53   103   105   ar
    54   104   106   ar
    55    48    51    1
    56    48    49    1
    57   105   107   ar
    58   106   108   ar
    59   107   108   ar
    60   108   109    1
    61   151   149   ar
    62   149   150   ar
    63    51    52    1
    64   100    99    1
    65   100   101    2
    66    99    98    1
    67    49    50    2
    68   163   164    1
    69    16    15    2
    70    52    53    1
    71    89    88   ar
    72   165   164    1
    73   165   166    2
    74    98    93   am
    75    90    88   ar
    76    23    24    1
    77    23    22    1
    78   164   167    1
    79    88    87    1
    80    24    25    2
    81   167   168    1
    82    94    93    2
    83    53    54    1
    84    15    22   am
    85    15    14    1
    86    93    92    1
    87    46    45    1
    88   168   169    1
    89   168   170    1
    90    87    86    1
    91    18    17    1
    92    18    19    1
    93     4     3    2
    94    86    83    1
    95    85    84    2
    96    17    14    1
    97    13    14    1
    98    13    11   am
    99    92    91    1
   100    92    95    1
   101    20    19    1
   102    20    21    1
   103    84    91   am
   104    84    83    1
   105    55    56    1
   106    45    44    1
   107    10    11    1
   108    10     9    1
   109     3     9   am
   110     3     2    1
   111    11    12    2
   112    97    95    1
   113    83    82    1
   114    95    96    1
   115    32    30    1
   116    82    80   am
   117    44    43    1
   118     5     2    1
   119     5     6    1
   120    59    56    1
   121    59    60    1
   122    56    57    1
   123     2     1    1
   124     8     6    1
   125     7     6    1
   126    30    31    1
   127    30    27    1
   128    37    34    1
   129    80    79    1
   130    80    81    2
   131    58    57    2
   132    62    60    1
   133    79    78    1
   134    60    61    1
   135    43    42    1
   136    42    39    1
   137    26    27    1
   138    27    28    1
   139    69    68    1
   140    34    33    1
   141    34    35    1
   142    70    68    1
   143    78    73   am
   144    29    28    2
   145    36    35    2
   146    68    67    1
   147    67    64    1
   148    39    38    1
   149    39    40    1
   150    74    73    2
   151    73    72    1
   152    66    65    2
   153    65    64    1
   154    65    71   am
   155    40    41    2
   156    64    63    1
   157    71    72    1
   158    72    75    1
   159    75    76    1
   160    75    77    1
