@<TRIPOS>MOLECULE
tmp/3v5qB00.pdb
 244 233 0 0 0
SMALL
GASTEIGER

@<TRIPOS>ATOM
      1  N         27.6490   13.9750   30.3000 N.3    16  ARG16      -0.1245
      2  CA        28.2010   12.6350   30.4440 C.3    16  ARG16       0.1563
      3  C         28.4990   12.0250   29.0950 C.2    16  ARG16       0.2260
      4  O         28.1100   12.5650   28.0640 O.2    16  ARG16      -0.2867
      5  CB        27.2370   11.7220   31.2060 C.3    16  ARG16       0.0307
      6  CG        26.1060   11.1700   30.3590 C.3    16  ARG16       0.0489
      7  CD        25.4010   10.0000   31.0470 C.3    16  ARG16       0.2205
      8  NE        24.0320   10.3380   31.4290 N.pl3  16  ARG16      -0.0865
      9  CZ        22.9490    9.7440   30.9380 C.cat  16  ARG16       0.5346
     10  NH1       23.0700    8.7660   30.0480 N.pl3  16  ARG16       0.1354
     11  NH2       21.7440   10.1190   31.3490 N.pl3  16  ARG16       0.1354
     12  N         28.0820    9.1830   26.2200 N.3    18  LEU18      -0.1245
     13  CA        27.2100    8.1530   25.6650 C.3    18  LEU18       0.1561
     14  C         28.0800    7.2030   24.8450 C.2    18  LEU18       0.2260
     15  O         27.8390    5.9970   24.8090 O.2    18  LEU18      -0.2867
     16  CB        26.1150    8.7810   24.7960 C.3    18  LEU18       0.0270
     17  CG        25.1150    9.7380   25.4690 C.3    18  LEU18       0.0019
     18  CD1       24.3950   10.6260   24.4490 C.3    18  LEU18       0.0001
     19  CD2       24.0960    8.9710   26.3010 C.3    18  LEU18       0.0001
     20  N         31.3460   10.8990   22.0940 N.3    22  VAL22      -0.1245
     21  CA        30.0140   11.4610   22.0090 C.3    22  VAL22       0.1561
     22  C         29.4770   11.7300   23.4130 C.2    22  VAL22       0.2260
     23  O         29.5270   10.8600   24.2860 O.2    22  VAL22      -0.2867
     24  CB        29.0570   10.5650   21.1870 C.3    22  VAL22       0.0252
     25  CG1       27.6460   11.1070   21.2330 C.3    22  VAL22       0.0019
     26  CG2       29.5320   10.4820   19.7470 C.3    22  VAL22       0.0019
     27  N         23.0500   15.5850   21.7660 N.3    40  ALA40      -0.1245
     28  CA        24.2450   14.7540   21.7360 C.3    40  ALA40       0.1562
     29  C         25.3340   15.5150   20.9960 C.2    40  ALA40       0.2260
     30  O         25.0890   16.1320   19.9520 O.2    40  ALA40      -0.2867
     31  CB        23.9790   13.4110   21.0780 C.3    40  ALA40       0.0290
     32  N         29.2550   15.4710   19.3560 N.3    42  LYS42      -0.1245
     33  CA        30.4420   14.7300   18.9560 C.3    42  LYS42       0.1561
     34  C         31.6100   15.6720   18.7160 C.2    42  LYS42       0.2260
     35  O         31.4800   16.6920   18.0130 O.2    42  LYS42      -0.2867
     36  CB        30.2160   13.8870   17.7000 C.3    42  LYS42       0.0271
     37  CG        31.3890   12.9390   17.4490 C.3    42  LYS42       0.0035
     38  CD        31.2610   12.1760   16.1510 C.3    42  LYS42       0.0206
     39  CE        31.7590   12.9840   14.9680 C.3    42  LYS42       0.1093
     40  NZ        31.9110   12.1660   13.7240 N.3    42  LYS42      -0.1314
     41  N         30.8030   17.1350    5.7800 N.3    58  GLU58      -0.1245
     42  CA        29.7350   16.3850    6.4240 C.3    58  GLU58       0.1567
     43  C         28.7270   17.3410    7.0680 C.2    58  GLU58       0.2260
     44  O         27.5180   17.0910    7.0580 O.2    58  GLU58      -0.2867
     45  CB        30.2950   15.4120    7.4660 C.3    58  GLU58       0.0388
     46  CG        29.2070   14.6010    8.1920 C.3    58  GLU58       0.1160
     47  CD        29.7670   13.6080    9.2060 C.2    58  GLU58       0.3649
     48  OE1       31.0060   13.4470    9.2910 O.co2  58  GLU58      -0.2457
     49  OE2       28.9750   12.9750    9.9310 O.co2  58  GLU58      -0.2457
     50  N         26.6150   18.8140    4.4030 N.3    61  LEU61      -0.1231
     51  CA        25.7200   17.7540    3.9810 C.3    61  LEU61       0.1693
     52  C         24.5550   17.6460    4.9520 C.2    61  LEU61       0.2591
     53  O         23.3980   17.8160    4.5660 O.2    61  LEU61      -0.2718
     54  CB        26.4620   16.4270    3.9520 C.3    61  LEU61       0.0284
     55  CG        25.5160   15.2710    3.6400 C.3    61  LEU61       0.0019
     56  CD1       25.0180   15.3890    2.1870 C.3    61  LEU61       0.0001
     57  CD2       26.1760   13.9150    3.9100 C.3    61  LEU61       0.0001
     58  N         24.8730   17.3800    6.2160 N.am   62  LEU62      -0.1980
     59  CA        23.8580   17.2140    7.2530 C.3    62  LEU62       0.1596
     60  C         23.0080   18.4560    7.4590 C.2    62  LEU62       0.2287
     61  O         21.9070   18.3810    8.0230 O.2    62  LEU62      -0.2864
     62  CB        24.4950   16.7850    8.5770 C.3    62  LEU62       0.0297
     63  CG        25.0960   15.3830    8.4710 C.3    62  LEU62       0.0022
     64  CD1       25.8840   15.0380    9.7280 C.3    62  LEU62       0.0001
     65  CD2       23.9990   14.3630    8.2010 C.3    62  LEU62       0.0001
     66  N         20.5980   17.3450    4.7680 N.3    65  LEU65      -0.1245
     67  CA        20.1480   15.9610    4.7890 C.3    65  LEU65       0.1561
     68  C         19.2930   15.7710    6.0360 C.2    65  LEU65       0.2260
     69  O         19.7540   15.2240    7.0430 O.2    65  LEU65      -0.2867
     70  CB        21.3480   15.0220    4.7930 C.3    65  LEU65       0.0270
     71  CG        21.1000   13.5790    4.3590 C.3    65  LEU65       0.0019
     72  CD1       20.6730   13.5360    2.8990 C.3    65  LEU65       0.0001
     73  CD2       22.3540   12.7430    4.5870 C.3    65  LEU65       0.0001
     74  N         15.8290   10.7690    9.8530 N.3    70  ILE70      -0.1231
     75  CA        17.2650   10.9790    9.8860 C.3    70  ILE70       0.1692
     76  C         17.5860   11.7290   11.1840 C.2    70  ILE70       0.2591
     77  O         16.9420   12.7370   11.5120 O.2    70  ILE70      -0.2718
     78  CB        17.7520   11.7890    8.6720 C.3    70  ILE70       0.0266
     79  CG1       17.3520   11.0800    7.3670 C.3    70  ILE70       0.0019
     80  CG2       19.2690   12.0130    8.7470 C.3    70  ILE70       0.0020
     81  CD1       17.8380    9.6290    7.2910 C.3    70  ILE70       0.0001
     82  N         18.5540   11.2150   11.9310 N.am   71  VAL71      -0.1980
     83  CA        19.0590   11.9070   13.1190 C.3    71  VAL71       0.1595
     84  C         19.2340   13.3850   12.8250 C.2    71  VAL71       0.2287
     85  O         19.7880   13.7660   11.7950 O.2    71  VAL71      -0.2864
     86  CB        20.3830   11.3100   13.6150 C.3    71  VAL71       0.0276
     87  CG1       20.8740   12.0280   14.9080 C.3    71  VAL71       0.0022
     88  CG2       20.1910    9.8210   13.8980 C.3    71  VAL71       0.0022
     89  N         30.2720   18.6310   16.5580 N.3    83  MET83      -0.1245
     90  CA        28.9700   18.5230   15.9330 C.3    83  MET83       0.1570
     91  C         27.8950   18.3000   16.9810 C.2    83  MET83       0.2261
     92  O         28.0710   17.5060   17.9050 O.2    83  MET83      -0.2867
     93  CB        28.9530   17.3600   14.9550 C.3    83  MET83       0.0387
     94  CG        29.3830   17.7130   13.5530 C.3    83  MET83       0.0595
     95  SD        29.4040   16.2140   12.5470 S.3    83  MET83      -0.1393
     96  CE        30.2200   16.8500   11.0740 C.3    83  MET83       0.0692
     97  N         24.0790   17.0400   17.6550 N.3    85  PHE85      -0.1227
     98  CA        22.9830   16.2060   17.1650 C.3    85  PHE85       0.1736
     99  C         21.8640   16.0780   18.1970 C.2    85  PHE85       0.2595
    100  O         22.0730   16.3590   19.3710 O.2    85  PHE85      -0.2718
    101  CB        23.5090   14.8080   16.8520 C.3    85  PHE85       0.0547
    102  CG        24.4210   14.7530   15.6550 C.ar   85  PHE85      -0.0202
    103  CD1       25.8000   14.6510   15.8170 C.ar   85  PHE85      -0.0042
    104  CD2       23.8980   14.7930   14.3700 C.ar   85  PHE85      -0.0042
    105  CE1       26.6410   14.5960   14.7220 C.ar   85  PHE85      -0.0003
    106  CE2       24.7350   14.7310   13.2680 C.ar   85  PHE85      -0.0003
    107  CZ        26.1060   14.6380   13.4420 C.ar   85  PHE85      -0.0000
    108  N         20.6860   15.6230   17.7760 N.am   86  GLU86      -0.1965
    109  CA        19.6060   15.4020   18.7290 C.3    86  GLU86       0.1733
    110  C         19.9340   14.2830   19.7120 C.2    86  GLU86       0.2616
    111  O         20.7930   13.4330   19.4580 O.2    86  GLU86      -0.2715
    112  CB        18.2540   15.1370   18.0340 C.3    86  GLU86       0.0429
    113  CG        18.0880   13.7800   17.3220 C.3    86  GLU86       0.1163
    114  CD        16.7050   13.6230   16.6500 C.2    86  GLU86       0.3649
    115  OE1       16.6570   13.4880   15.4140 O.co2  86  GLU86      -0.2457
    116  OE2       15.6680   13.6320   17.3440 O.co2  86  GLU86      -0.2457
    117  N         19.2440   14.2930   20.8450 N.am   87  TYR87      -0.1960
    118  CA        19.4000   13.2360   21.8290 C.3    87  TYR87       0.1771
    119  C         18.3080   12.2030   21.6190 C.2    87  TYR87       0.2619
    120  O         17.1230   12.5540   21.5290 O.2    87  TYR87      -0.2715
    121  CB        19.2980   13.8210   23.2470 C.3    87  TYR87       0.0574
    122  CG        19.2380   12.7830   24.3430 C.ar   87  TYR87      -0.0198
    123  CD1       20.2800   11.8850   24.5290 C.ar   87  TYR87      -0.0009
    124  CD2       18.1450   12.7140   25.2090 C.ar   87  TYR87      -0.0009
    125  CE1       20.2370   10.9290   25.5500 C.ar   87  TYR87       0.0417
    126  CE2       18.0890   11.7610   26.2370 C.ar   87  TYR87       0.0417
    127  CZ        19.1390   10.8770   26.4050 C.ar   87  TYR87       0.1957
    128  OH        19.0860    9.9350   27.4150 O.3    87  TYR87      -0.2866
    129  N         18.7120   10.9360   21.5360 N.am   88  MET88      -0.1963
    130  CA        17.7820    9.8170   21.3490 C.3    88  MET88       0.1736
    131  C         17.9280    8.9160   22.5560 C.2    88  MET88       0.2616
    132  O         18.9040    8.1610   22.6690 O.2    88  MET88      -0.2715
    133  CB        18.1040    9.0350   20.0680 C.3    88  MET88       0.0427
    134  CG        18.0260    9.8610   18.7900 C.3    88  MET88       0.0599
    135  SD        16.3630   10.1740   18.1590 S.3    88  MET88      -0.1393
    136  CE        15.8550    8.5400   17.6140 C.3    88  MET88       0.0692
    137  N         16.9550    8.9940   23.4540 N.am   89  LYS89      -0.1963
    138  CA        17.1450    8.4820   24.8000 C.3    89  LYS89       0.1728
    139  C         17.4200    6.9800   24.8580 C.2    89  LYS89       0.2616
    140  O         18.0940    6.5070   25.7850 O.2    89  LYS89      -0.2715
    141  CB        15.9630    8.8680   25.6960 C.3    89  LYS89       0.0311
    142  CG        14.6710    8.1140   25.4040 C.3    89  LYS89       0.0038
    143  CD        13.4420    8.9330   25.8360 C.3    89  LYS89       0.0206
    144  CE        13.2900    8.9940   27.3470 C.3    89  LYS89       0.1093
    145  NZ        11.9390    8.5380   27.8020 N.3    89  LYS89      -0.1314
    146  N         16.9350    6.2310   23.8680 N.am   90  HIS90      -0.1959
    147  CA        17.0870    4.7810   23.9330 C.3    90  HIS90       0.1787
    148  C         18.3140    4.1840   23.2410 C.2    90  HIS90       0.2621
    149  O         18.5080    2.9630   23.2500 O.2    90  HIS90      -0.2715
    150  CB        15.7800    4.0680   23.5960 C.3    90  HIS90       0.0785
    151  CG        14.7560    4.2140   24.6770 C.ar   90  HIS90       0.0821
    152  ND1       13.6210    4.9810   24.5340 N.ar   90  HIS90      -0.2267
    153  CD2       14.7350    3.7420   25.9460 C.ar   90  HIS90       0.1154
    154  CE1       12.9260    4.9490   25.6570 C.ar   90  HIS90       0.1986
    155  NE2       13.5810    4.2060   26.5280 N.ar   90  HIS90      -0.2212
    156  N         19.1680    5.0480   22.7030 N.am   91  GLY91      -0.1940
    157  CA        20.4860    4.6180   22.2840 C.3    91  GLY91       0.2014
    158  C         20.4100    3.9400   20.9410 C.2    91  GLY91       0.2638
    159  O         19.4350    4.1280   20.1970 O.2    91  GLY91      -0.2714
    160  N         21.4250    3.1560   20.6000 N.am   92  ASP92      -0.1971
    161  CA        21.4330    2.6040   19.2560 C.3    92  ASP92       0.1709
    162  C         20.5090    1.3970   19.1480 C.2    92  ASP92       0.2293
    163  O         20.2850    0.6610   20.1210 O.2    92  ASP92      -0.2864
    164  CB        22.8420    2.2890   18.7460 C.3    92  ASP92       0.1436
    165  CG        23.2910    0.9320   19.1400 C.2    92  ASP92       0.3671
    166  OD1       23.0330   -0.0310   18.3770 O.co2  92  ASP92      -0.2456
    167  OD2       23.8720    0.8270   20.2380 O.co2  92  ASP92      -0.2456
    168  N         21.7240   -2.3280   19.9670 N.3    95  LYS95      -0.1245
    169  CA        21.7450   -2.6250   21.3950 C.3    95  LYS95       0.1561
    170  C         20.3200   -2.7850   21.9440 C.2    95  LYS95       0.2260
    171  O         20.0220   -3.7220   22.6910 O.2    95  LYS95      -0.2867
    172  CB        22.4920   -1.5210   22.1470 C.3    95  LYS95       0.0271
    173  CG        22.7150   -1.8460   23.6020 C.3    95  LYS95       0.0035
    174  CD        22.6100   -0.6290   24.5140 C.3    95  LYS95       0.0206
    175  CE        23.9760   -0.2250   25.0670 C.3    95  LYS95       0.1093
    176  NZ        23.8560    0.6110   26.2990 N.3    95  LYS95      -0.1314
    177  N         16.5890    9.3250    1.8660 N.3   123  LEU123     -0.1245
    178  CA        17.9790    9.2850    1.4140 C.3   123  LEU123      0.1561
    179  C         18.0680    9.0600   -0.1020 C.2   123  LEU123      0.2260
    180  O         18.8270    9.7470   -0.8040 O.2   123  LEU123     -0.2867
    181  CB        18.7640    8.2210    2.1840 C.3   123  LEU123      0.0270
    182  CG        19.0630    8.5260    3.6710 C.3   123  LEU123      0.0019
    183  CD1       19.7300    7.3480    4.3360 C.3   123  LEU123      0.0001
    184  CD2       19.9290    9.7620    3.8270 C.3   123  LEU123      0.0001
    185  N         21.4490   10.0110   -2.0210 N.3   128  PHE128     -0.1241
    186  CA        22.4770    9.6920   -1.0670 C.3   128  PHE128      0.1605
    187  C         22.6260    8.1900   -0.9150 C.2   128  PHE128      0.2264
    188  O         21.6440    7.4810   -0.6720 O.2   128  PHE128     -0.2867
    189  CB        22.1830   10.3430    0.2820 C.3   128  PHE128      0.0534
    190  CG        23.2700   10.1320    1.2780 C.ar  128  PHE128     -0.0203
    191  CD1       23.2640    9.0240    2.1120 C.ar  128  PHE128     -0.0042
    192  CD2       24.3390   11.0170    1.3430 C.ar  128  PHE128     -0.0042
    193  CE1       24.2940    8.8230    3.0240 C.ar  128  PHE128     -0.0003
    194  CE2       25.3580   10.8200    2.2460 C.ar  128  PHE128     -0.0003
    195  CZ        25.3360    9.7220    3.0870 C.ar  128  PHE128     -0.0000
    196  N         24.4190    5.3400    1.3380 N.3   130  HIS130     -0.1241
    197  CA        24.8630    5.3190    2.7290 C.3   130  HIS130      0.1621
    198  C         26.0220    4.3480    2.9320 C.2   130  HIS130      0.2264
    199  O         26.9870    4.6450    3.6520 O.2   130  HIS130     -0.2867
    200  CB        23.6810    4.9450    3.6230 C.3   130  HIS130      0.0745
    201  CG        23.9730    5.0040    5.0900 C.ar  130  HIS130      0.0817
    202  ND1       24.8790    4.1620    5.7080 N.ar  130  HIS130     -0.2268
    203  CD2       23.4440    5.7720    6.0730 C.ar  130  HIS130      0.1154
    204  CE1       24.9100    4.4290    7.0020 C.ar  130  HIS130      0.1986
    205  NE2       24.0500    5.4020    7.2510 N.ar  130  HIS130     -0.2212
    206  N         19.2920    4.9960   15.7540 N.3   139  LEU139     -0.1245
    207  CA        19.0430    5.3890   17.1260 C.3   139  LEU139      0.1561
    208  C         17.5550    5.3490   17.4170 C.2   139  LEU139      0.2260
    209  O         16.7170    5.5830   16.5320 O.2   139  LEU139     -0.2867
    210  CB        19.5560    6.7940   17.3820 C.3   139  LEU139      0.0270
    211  CG        21.0570    7.0020   17.2240 C.3   139  LEU139      0.0019
    212  CD1       21.3700    8.4660   17.4350 C.3   139  LEU139      0.0001
    213  CD2       21.8240    6.1360   18.2100 C.3   139  LEU139      0.0001
    214  N         18.0000    7.0600   11.4270 N.3   148  ILE148     -0.1231
    215  CA        19.2370    6.6050   10.8360 C.3   148  ILE148      0.1692
    216  C         20.3060    7.6660   10.9880 C.2   148  ILE148      0.2593
    217  O         20.0490    8.8680   10.7700 O.2   148  ILE148     -0.2718
    218  CB        19.0540    6.3980    9.3170 C.3   148  ILE148      0.0266
    219  CG1       17.9290    5.3980    9.0370 C.3   148  ILE148      0.0019
    220  CG2       20.3610    5.9690    8.6690 C.3   148  ILE148      0.0020
    221  CD1       17.5290    5.3080    7.5620 C.3   148  ILE148      0.0001
    222  N         21.5140    7.2240   11.3260 N.am  149  GLY149     -0.1942
    223  CA        22.6710    8.0920   11.2570 C.3   149  GLY149      0.2014
    224  C         23.8120    7.3350   10.6100 C.2   149  GLY149      0.2639
    225  O         23.6180    6.2370   10.0780 O.2   149  GLY149     -0.2714
    226  N         25.0080    7.9070   10.6580 N.am  150  ASP150     -0.1957
    227  CA        26.1810    7.1960   10.1910 C.3   150  ASP150      0.1840
    228  C         27.3450    7.4340   11.1430 C.2   150  ASP150      0.2622
    229  O         28.0350    8.4490   11.0510 O.2   150  ASP150     -0.2715
    230  CB        26.5580    7.6320    8.7880 C.3   150  ASP150      0.1450
    231  CG        27.5470    6.6790    8.1440 C.2   150  ASP150      0.3671
    232  OD1       27.9120    5.6630    8.7790 O.co2 150  ASP150     -0.2456
    233  OD2       27.9520    6.9380    7.0040 O.co2 150  ASP150     -0.2456
    234  N         27.5760    6.4780   12.0330 N.am  151  PHE151     -0.1974
    235  CA        28.4440    6.7070   13.1850 C.3   151  PHE151      0.1639
    236  C         29.8600    6.2000   12.9850 C.2   151  PHE151      0.2290
    237  O         30.6200    6.1160   13.9480 O.2   151  PHE151     -0.2864
    238  CB        27.8390    6.0710   14.4370 C.3   151  PHE151      0.0560
    239  CG        26.3930    6.4020   14.6360 C.ar  151  PHE151     -0.0200
    240  CD1       25.9290    7.6980   14.4160 C.ar  151  PHE151     -0.0042
    241  CD2       25.4900    5.4230   15.0320 C.ar  151  PHE151     -0.0042
    242  CE1       24.5940    8.0140   14.5880 C.ar  151  PHE151     -0.0003
    243  CE2       24.1470    5.7350   15.2050 C.ar  151  PHE151     -0.0003
    244  CZ        23.7000    7.0370   14.9820 C.ar  151  PHE151     -0.0000
@<TRIPOS>BOND
     1   185   186    1
     2   186   187    1
     3   186   189    1
     4   187   188    2
     5   180   179    2
     6   179   178    1
     7   189   190    1
     8   190   192   ar
     9   190   191   ar
    10   196   197    1
    11   192   194   ar
    12   178   177    1
    13   178   181    1
    14   191   193   ar
    15   181   182    1
    16    56    55    1
    17   194   195   ar
    18   197   198    1
    19   197   200    1
    20    72    71    1
    21   198   199    2
    22   193   195   ar
    23   200   201    1
    24    55    57    1
    25    55    54    1
    26   182   184    1
    27   182   183    1
    28    54    51    1
    29    51    50    1
    30    51    52    1
    31    71    73    1
    32    71    70    1
    33    53    52    2
    34    66    67    1
    35    67    70    1
    36    67    68    1
    37    52    58   am
    38   201   202   ar
    39   201   203   ar
    40   202   204   ar
    41    41    42    1
    42    68    69    2
    43   203   205   ar
    44    58    59    1
    45    42    43    1
    46    42    45    1
    47   204   205   ar
    48   233   231   ar
    49    44    43    2
    50    59    60    1
    51    59    62    1
    52    81    79    1
    53    79    78    1
    54    60    61    2
    55    45    46    1
    56   221   219    1
    57   231   232   ar
    58   231   230    1
    59    46    47    1
    60    65    63    1
    61    63    62    1
    62    63    64    1
    63   220   218    1
    64    78    80    1
    65    78    75    1
    66   230   227    1
    67   219   218    1
    68    47    48   ar
    69    47    49   ar
    70   218   215    1
    71    74    75    1
    72    75    76    1
    73   225   224    2
    74   227   226    1
    75   227   228    1
    76   224   226   am
    77   224   223    1
    78   217   216    2
    79   215   216    1
    80   215   214    1
    81   216   222   am
    82   229   228    2
    83    96    95    1
    84   228   234   am
    85    76    77    2
    86    76    82   am
    87   223   222    1
    88    85    84    2
    89    82    83    1
    90   234   235    1
    91    95    94    1
    92    84    83    1
    93   236   235    1
    94   236   237    2
    95    83    86    1
    96   235   238    1
    97   106   107   ar
    98   106   104   ar
    99   107   105   ar
   100    94    93    1
   101    86    88    1
   102    86    87    1
   103    40    39    1
   104   104   102   ar
   105   240   242   ar
   106   240   239   ar
   107   238   239    1
   108   242   244   ar
   109   239   241   ar
   110   105   103   ar
   111    93    90    1
   112    39    38    1
   113   244   243   ar
   114   241   243   ar
   115   115   114   ar
   116   102   103   ar
   117   102   101    1
   118   206   207    1
   119    90    89    1
   120    90    91    1
   121    38    37    1
   122   209   208    2
   123   114   113    1
   124   114   116   ar
   125   101    98    1
   126    91    92    2
   127   207   210    1
   128   207   208    1
   129    98    97    1
   130    98    99    1
   131   211   210    1
   132   211   212    1
   133   211   213    1
   134   113   112    1
   135    37    36    1
   136   136   135    1
   137    36    33    1
   138   108    99   am
   139   108   109    1
   140    35    34    2
   141   112   109    1
   142   135   134    1
   143    99   100    2
   144   166   165   ar
   145    34    33    1
   146   109   110    1
   147   164   165    1
   148   164   161    1
   149   134   133    1
   150    33    32    1
   151   165   167   ar
   152   162   161    1
   153   162   163    2
   154   161   160    1
   155   111   110    2
   156   110   117   am
   157    26    24    1
   158    30    29    2
   159   168   169    1
   160   133   130    1
   161   159   158    2
   162   160   158   am
   163   117   118    1
   164   158   157    1
   165    29    28    1
   166    31    28    1
   167    24    25    1
   168    24    21    1
   169   130   129    1
   170   130   131    1
   171   169   170    1
   172   169   172    1
   173   120   119    2
   174   129   119   am
   175   119   118    1
   176    28    27    1
   177   118   121    1
   178   170   171    2
   179    21    20    1
   180    21    22    1
   181   172   173    1
   182   157   156    1
   183   131   132    2
   184   131   137   am
   185   156   148   am
   186   148   149    2
   187   148   147    1
   188   121   122    1
   189    22    23    2
   190   137   138    1
   191   150   147    1
   192   150   151    1
   193   173   174    1
   194   146   147    1
   195   146   139   am
   196   122   123   ar
   197   122   124   ar
   198    18    17    1
   199   174   175    1
   200   123   125   ar
   201   152   151   ar
   202   152   154   ar
   203   151   153   ar
   204    16    17    1
   205    16    13    1
   206   138   139    1
   207   138   141    1
   208    15    14    2
   209    14    13    1
   210   139   140    2
   211   175   176    1
   212   124   126   ar
   213   142   141    1
   214   142   143    1
   215    17    19    1
   216   125   127   ar
   217   154   155   ar
   218    13    12    1
   219   143   144    1
   220   153   155   ar
   221   126   127   ar
   222   127   128    1
   223   144   145    1
   224     4     3    2
   225     3     2    1
   226    10     9    1
   227     1     2    1
   228     6     7    1
   229     6     5    1
   230     2     5    1
   231     9    11    1
   232     9     8    2
   233     7     8    1
