@<TRIPOS>MOLECULE
tmp/3v5tA00.pdb
 182 169 0 0 0
SMALL
GASTEIGER

@<TRIPOS>ATOM
      1  N         21.9010   17.4910   67.7790 N.3    15  LEU15      -0.1231
      2  CA        21.9270   17.1310   66.3550 C.3    15  LEU15       0.1693
      3  C         21.5060   18.2980   65.4580 C.2    15  LEU15       0.2593
      4  O         21.4940   18.1690   64.2290 O.2    15  LEU15      -0.2718
      5  CB        21.0100   15.9330   66.0870 C.3    15  LEU15       0.0284
      6  CG        21.3170   14.6160   66.8030 C.3    15  LEU15       0.0019
      7  CD1       20.0770   13.7400   66.8620 C.3    15  LEU15       0.0001
      8  CD2       22.4570   13.8820   66.1180 C.3    15  LEU15       0.0001
      9  N         21.1410   19.4210   66.0690 N.am   16  GLY16      -0.1942
     10  CA        20.8870   20.6550   65.3500 C.3    16  GLY16       0.2014
     11  C         19.5140   21.2390   65.6140 C.2    16  GLY16       0.2639
     12  O         18.7520   20.7330   66.4320 O.2    16  GLY16      -0.2714
     13  N         19.2270   22.3370   64.9230 N.am   17  LYS17      -0.1963
     14  CA        17.9760   23.0440   65.0610 C.3    17  LYS17       0.1728
     15  C         17.1010   22.5820   63.9150 C.2    17  LYS17       0.2616
     16  O         17.5230   22.5960   62.7700 O.2    17  LYS17      -0.2715
     17  CB        18.2180   24.5570   65.0140 C.3    17  LYS17       0.0311
     18  CG        16.9750   25.4370   65.1370 C.3    17  LYS17       0.0038
     19  CD        16.0660   25.0230   66.2890 C.3    17  LYS17       0.0206
     20  CE        14.9460   26.0270   66.5550 C.3    17  LYS17       0.1093
     21  NZ        15.1730   26.7920   67.8160 N.3    17  LYS17      -0.1314
     22  N         15.8970   22.1230   64.2320 N.am   18  GLY18      -0.1955
     23  CA        14.9380   21.7290   63.2120 C.3    18  GLY18       0.1869
     24  C         13.7880   22.6940   63.2790 C.2    18  GLY18       0.2309
     25  O         13.8420   23.6710   64.0220 O.2    18  GLY18      -0.2863
     26  N         16.8830   19.4290   68.0890 N.3    23  VAL23      -0.1245
     27  CA        16.8500   17.9880   68.1660 C.3    23  VAL23       0.1561
     28  C         18.0850   17.5020   68.9320 C.2    23  VAL23       0.2260
     29  O         19.1970   17.9280   68.6620 O.2    23  VAL23      -0.2867
     30  CB        16.8320   17.3560   66.7660 C.3    23  VAL23       0.0252
     31  CG1       16.9880   15.8400   66.8680 C.3    23  VAL23       0.0019
     32  CG2       15.5490   17.7340   66.0250 C.3    23  VAL23       0.0019
     33  N         16.0170   10.1790   68.8140 N.3    36  ALA36      -0.1245
     34  CA        16.1940   11.5600   68.3590 C.3    36  ALA36       0.1562
     35  C         15.0100   12.3560   68.9110 C.2    36  ALA36       0.2260
     36  O         13.8620   12.1770   68.4800 O.2    36  ALA36      -0.2867
     37  CB        16.2520   11.6220   66.8300 C.3    36  ALA36       0.0290
     38  N         12.9310   15.7350   69.5930 N.3    38  LYS38      -0.1245
     39  CA        12.7000   17.1160   69.1920 C.3    38  LYS38       0.1561
     40  C         12.0500   17.8160   70.3590 C.2    38  LYS38       0.2260
     41  O         10.9630   17.4120   70.7990 O.2    38  LYS38      -0.2867
     42  CB        11.8180   17.2270   67.9350 C.3    38  LYS38       0.0271
     43  CG        11.6000   18.6610   67.4980 C.3    38  LYS38       0.0035
     44  CD        10.9910   18.7940   66.1060 C.3    38  LYS38       0.0206
     45  CE        12.0190   19.0790   65.0120 C.3    38  LYS38       0.1093
     46  NZ        11.3870   19.2550   63.6650 N.3    38  LYS38      -0.1314
     47  N         -0.8900   12.8680   68.5120 N.3    58  VAL58      -0.1245
     48  CA         0.2640   12.1170   68.9680 C.3    58  VAL58       0.1561
     49  C         -0.0420   10.6270   69.1130 C.2    58  VAL58       0.2260
     50  O          0.7620    9.7860   68.7170 O.2    58  VAL58      -0.2867
     51  CB         0.7960   12.6960   70.3120 C.3    58  VAL58       0.0252
     52  CG1        1.5550   11.6480   71.1250 C.3    58  VAL58       0.0019
     53  CG2        1.6570   13.9110   70.0230 C.3    58  VAL58       0.0019
     54  N         -0.1550    9.1270   65.6120 N.3    61  LEU61      -0.1245
     55  CA         1.1940    9.0060   65.0300 C.3    61  LEU61       0.1561
     56  C          2.0740    7.9220   65.7070 C.2    61  LEU61       0.2260
     57  O          2.9010    7.3010   65.0520 O.2    61  LEU61      -0.2867
     58  CB         1.9260   10.3390   65.0570 C.3    61  LEU61       0.0270
     59  CG         1.3290   11.5290   64.3330 C.3    61  LEU61       0.0019
     60  CD1        2.0260   12.8000   64.8070 C.3    61  LEU61       0.0001
     61  CD2        1.4470   11.3640   62.8240 C.3    61  LEU61       0.0001
     62  N          9.2830    8.9120   59.4650 N.3    70  MET70      -0.1245
     63  CA         9.9480    8.8170   60.7860 C.3    70  MET70       0.1570
     64  C          9.0360    8.1070   61.7650 C.2    70  MET70       0.2261
     65  O          7.8510    8.4140   61.8450 O.2    70  MET70      -0.2867
     66  CB        10.2950   10.2100   61.3560 C.3    70  MET70       0.0387
     67  CG        11.2430   10.2050   62.5540 C.3    70  MET70       0.0595
     68  SD        11.0980   11.5190   63.8110 S.3    70  MET70      -0.1393
     69  CE         9.4730   11.1660   64.4770 C.3    70  MET70       0.0692
     70  N          7.6510    7.6110   65.3470 N.3    72  LEU72      -0.1245
     71  CA         7.4870    8.2470   66.6570 C.3    72  LEU72       0.1561
     72  C          7.2020    7.2070   67.7680 C.2    72  LEU72       0.2260
     73  O          6.2830    6.4020   67.6450 O.2    72  LEU72      -0.2867
     74  CB         6.3590    9.2780   66.6170 C.3    72  LEU72       0.0270
     75  CG         6.2030   10.0250   67.9490 C.3    72  LEU72       0.0019
     76  CD1        7.3750   10.9740   68.1640 C.3    72  LEU72       0.0001
     77  CD2        4.8720   10.7470   68.0480 C.3    72  LEU72       0.0001
     78  N          9.3360   15.2980   71.7230 N.3    84  LEU84      -0.1245
     79  CA         8.8710   14.3640   70.7020 C.3    84  LEU84       0.1561
     80  C          9.9800   13.3470   70.4120 C.2    84  LEU84       0.2260
     81  O         10.9850   13.6850   69.8190 O.2    84  LEU84      -0.2867
     82  CB         8.4940   15.1140   69.4220 C.3    84  LEU84       0.0270
     83  CG         7.4160   16.2080   69.5100 C.3    84  LEU84       0.0019
     84  CD1        7.3540   16.9370   68.1820 C.3    84  LEU84       0.0001
     85  CD2        6.0430   15.6540   69.8530 C.3    84  LEU84       0.0001
     86  N         11.5690   10.2630   68.6810 N.3    86  GLY86      -0.1210
     87  CA        11.5340    9.3990   67.4950 C.3    86  GLY86       0.1956
     88  C         12.8120    8.5910   67.2860 C.2    86  GLY86       0.2612
     89  O         13.7500    8.6760   68.0870 O.2    86  GLY86      -0.2717
     90  N         12.8290    7.8240   66.1940 N.am   87  GLU87      -0.1965
     91  CA        13.9360    6.9530   65.8250 C.3    87  GLU87       0.1733
     92  C         15.0840    7.7700   65.2400 C.2    87  GLU87       0.2616
     93  O         14.8350    8.7040   64.4630 O.2    87  GLU87      -0.2715
     94  CB        13.4320    5.9520   64.7800 C.3    87  GLU87       0.0429
     95  CG        14.3730    4.8170   64.3700 C.3    87  GLU87       0.1163
     96  CD        13.7150    3.8720   63.3550 C.2    87  GLU87       0.3649
     97  OE1       12.5790    4.1310   62.8970 O.co2  87  GLU87      -0.2457
     98  OE2       14.3360    2.8540   62.9880 O.co2  87  GLU87      -0.2457
     99  N         16.3310    7.4250   65.5990 N.am   88  VAL88      -0.1963
    100  CA        17.5080    8.1030   65.0550 C.3    88  VAL88       0.1727
    101  C         17.7460    7.6060   63.6240 C.2    88  VAL88       0.2616
    102  O         17.6350    6.4160   63.3650 O.2    88  VAL88      -0.2715
    103  CB        18.8170    7.8420   65.8430 C.3    88  VAL88       0.0290
    104  CG1       19.8800    8.8510   65.4090 C.3    88  VAL88       0.0023
    105  CG2       18.6230    7.9160   67.3590 C.3    88  VAL88       0.0023
    106  N         18.0610    8.5280   62.7160 N.am   89  TYR89      -0.1974
    107  CA        18.5520    8.2060   61.3770 C.3    89  TYR89       0.1639
    108  C         19.9050    8.8940   61.1510 C.2    89  TYR89       0.2290
    109  O         20.1130   10.0270   61.5610 O.2    89  TYR89      -0.2864
    110  CB        17.5250    8.5940   60.3000 C.3    89  TYR89       0.0560
    111  CG        16.1520    7.9760   60.5500 C.ar   89  TYR89      -0.0198
    112  CD1       16.0180    6.6220   60.7970 C.ar   89  TYR89      -0.0009
    113  CD2       14.9920    8.7540   60.5360 C.ar   89  TYR89      -0.0009
    114  CE1       14.7820    6.0590   61.0640 C.ar   89  TYR89       0.0417
    115  CE2       13.7470    8.1980   60.7910 C.ar   89  TYR89       0.0417
    116  CZ        13.6420    6.8520   61.0690 C.ar   89  TYR89       0.1957
    117  OH        12.4030    6.2810   61.3250 O.3    89  TYR89      -0.2866
    118  N         21.9140   11.4740   57.0940 N.3    92  GLY92      -0.1210
    119  CA        21.9820   12.8940   56.8050 C.3    92  GLY92       0.1956
    120  C         20.8120   13.2770   55.9180 C.2    92  GLY92       0.2611
    121  O         19.9290   12.4580   55.6780 O.2    92  GLY92      -0.2717
    122  N         20.8140   14.5190   55.4330 N.am   93  GLU93      -0.1979
    123  CA        19.7440   15.0220   54.5950 C.3    93  GLU93       0.1602
    124  C         19.9570   14.5450   53.1710 C.2    93  GLU93       0.2287
    125  O         21.0800   14.4700   52.6950 O.2    93  GLU93      -0.2864
    126  CB        19.6780   16.5490   54.6610 C.3    93  GLU93       0.0415
    127  CG        19.2050   17.0760   56.0010 C.3    93  GLU93       0.1163
    128  CD        19.5450   18.5420   56.2410 C.2    93  GLU93       0.3649
    129  OE1       19.5590   19.3680   55.2770 O.co2  93  GLU93      -0.2457
    130  OE2       19.7880   18.8710   57.4240 O.co2  93  GLU93      -0.2457
    131  N         15.1700   19.3770   53.4340 N.3   136  GLU136     -0.1245
    132  CA        15.7870   19.1220   54.7380 C.3   136  GLU136      0.1567
    133  C         14.8620   18.2860   55.6200 C.2   136  GLU136      0.2260
    134  O         15.2790   17.8430   56.6720 O.2   136  GLU136     -0.2867
    135  CB        16.2030   20.4240   55.4330 C.3   136  GLU136      0.0388
    136  CG        15.0770   21.2060   56.0870 C.3   136  GLU136      0.1160
    137  CD        15.5530   22.4920   56.7400 C.2   136  GLU136      0.3649
    138  OE1       16.1570   23.3420   56.0370 O.co2 136  GLU136     -0.2457
    139  OE2       15.3090   22.6550   57.9590 O.co2 136  GLU136     -0.2457
    140  N         15.3230   12.7900   55.2850 N.3   139  LEU139     -0.1245
    141  CA        16.5530   12.1750   55.8220 C.3   139  LEU139      0.1561
    142  C         16.8020   10.7990   55.2030 C.2   139  LEU139      0.2260
    143  O         15.8710   10.1020   54.8050 O.2   139  LEU139     -0.2867
    144  CB        16.4590   11.9740   57.3300 C.3   139  LEU139      0.0270
    145  CG        16.0710   13.1520   58.2060 C.3   139  LEU139      0.0019
    146  CD1       16.1290   12.6830   59.6440 C.3   139  LEU139      0.0001
    147  CD2       16.9550   14.3760   57.9710 C.3   139  LEU139      0.0001
    148  N         10.5790   13.6270   57.7250 N.3   152  ILE152     -0.1231
    149  CA        10.3710   14.1470   59.0710 C.3   152  ILE152      0.1692
    150  C          9.3670   15.2970   59.0690 C.2   152  ILE152      0.2592
    151  O          9.1080   15.9380   58.0270 O.2   152  ILE152     -0.2718
    152  CB        11.6960   14.5390   59.7490 C.3   152  ILE152      0.0266
    153  CG1       12.4250   15.6540   59.0030 C.3   152  ILE152      0.0019
    154  CG2       12.5980   13.3170   59.8470 C.3   152  ILE152      0.0020
    155  CD1       13.7410   16.0310   59.6630 C.3   152  ILE152      0.0001
    156  N          8.7060   15.4250   60.2060 N.am  153  ASP153     -0.1960
    157  CA         7.8850   16.5730   60.6230 C.3   153  ASP153      0.1840
    158  C          6.3830   16.5320   60.2840 C.2   153  ASP153      0.2622
    159  O          5.6650   17.4960   60.5510 O.2   153  ASP153     -0.2715
    160  CB         8.5390   17.9100   60.2410 C.3   153  ASP153      0.1450
    161  CG         9.6070   18.3440   61.2510 C.2   153  ASP153      0.3671
    162  OD1        9.6580   17.7440   62.3510 O.co2 153  ASP153     -0.2456
    163  OD2       10.3870   19.2880   60.9500 O.co2 153  ASP153     -0.2456
    164  N          5.9010   15.4090   59.7650 N.am  154  PHE154     -0.1974
    165  CA         4.4570   15.2000   59.6510 C.3   154  PHE154      0.1639
    166  C          3.8230   15.3710   61.0280 C.2   154  PHE154      0.2290
    167  O          4.2780   14.7790   62.0090 O.2   154  PHE154     -0.2864
    168  CB         4.1220   13.8130   59.1170 C.3   154  PHE154      0.0560
    169  CG         3.8510   13.7710   57.6460 C.ar  154  PHE154     -0.0200
    170  CD1        2.6500   14.2330   57.1440 C.ar  154  PHE154     -0.0042
    171  CD2        4.7590   13.2180   56.7750 C.ar  154  PHE154     -0.0042
    172  CE1        2.3800   14.1790   55.7940 C.ar  154  PHE154     -0.0003
    173  CE2        4.5080   13.1680   55.4230 C.ar  154  PHE154     -0.0003
    174  CZ         3.3110   13.6450   54.9350 C.ar  154  PHE154     -0.0000
    175  N          3.3960   18.2970   62.8200 N.3   156  LEU156     -0.1245
    176  CA         3.7210   19.5180   63.5290 C.3   156  LEU156      0.1561
    177  C          2.9510   20.7580   63.0770 C.2   156  LEU156      0.2260
    178  O          2.4100   21.4930   63.9250 O.2   156  LEU156     -0.2867
    179  CB         5.2180   19.8050   63.4320 C.3   156  LEU156      0.0270
    180  CG         6.1020   18.7780   64.1120 C.3   156  LEU156      0.0019
    181  CD1        7.5150   19.3190   64.2290 C.3   156  LEU156      0.0001
    182  CD2        5.5050   18.4030   65.4590 C.3   156  LEU156      0.0001
@<TRIPOS>BOND
     1   125   124    2
     2   124   123    1
     3   131   132    1
     4   123   126    1
     5   123   122    1
     6   126   127    1
     7   132   135    1
     8   132   133    1
     9   143   142    2
    10   174   173   ar
    11   174   172   ar
    12   142   141    1
    13   129   128   ar
    14   140   141    1
    15   173   171   ar
    16   122   120   am
    17   135   136    1
    18   133   134    2
    19   121   120    2
    20   172   170   ar
    21   141   144    1
    22   120   119    1
    23   127   128    1
    24   138   137   ar
    25   136   137    1
    26   128   130   ar
    27   137   139   ar
    28   171   169   ar
    29   119   118    1
    30   170   169   ar
    31   144   145    1
    32   169   168    1
    33   148   149    1
    34   147   145    1
    35   151   150    2
    36   145   146    1
    37   153   155    1
    38   153   152    1
    39   150   149    1
    40   150   156   am
    41   149   152    1
    42   168   165    1
    43    62    63    1
    44   165   164    1
    45   165   166    1
    46   152   154    1
    47   164   158   am
    48   156   157    1
    49   160   157    1
    50   160   161    1
    51   158   159    2
    52   158   157    1
    53   110   111    1
    54   110   107    1
    55   113   111   ar
    56   113   115   ar
    57   111   112   ar
    58    63    66    1
    59    63    64    1
    60   115   116   ar
    61   112   114   ar
    62   163   161   ar
    63   166   167    2
    64   114   116   ar
    65   116   117    1
    66   108   107    1
    67   108   109    2
    68   161   162   ar
    69    66    67    1
    70   107   106    1
    71    64    65    2
    72    67    68    1
    73   106   101   am
    74    16    15    2
    75   175   176    1
    76    61    59    1
    77    97    96   ar
    78    98    96   ar
    79   177   176    1
    80   177   178    2
    81    23    24    1
    82    23    22    1
    83    24    25    2
    84    96    95    1
    85   102   101    2
    86   179   176    1
    87   179   180    1
    88   101   100    1
    89    46    45    1
    90    68    69    1
    91    15    22   am
    92    15    14    1
    93   180   181    1
    94   180   182    1
    95     4     3    2
    96    59    60    1
    97    59    58    1
    98    95    94    1
    99    93    92    2
   100    94    91    1
   101    13    14    1
   102    13    11   am
   103    45    44    1
   104    17    14    1
   105    17    18    1
   106    55    58    1
   107    55    54    1
   108    55    56    1
   109    57    56    2
   110   100    99    1
   111   100   103    1
   112    18    19    1
   113    92    99   am
   114    92    91    1
   115    70    71    1
   116    10    11    1
   117    10     9    1
   118   104   103    1
   119     3     9   am
   120     3     2    1
   121    11    12    2
   122    91    90    1
   123   103   105    1
   124    32    30    1
   125     5     2    1
   126     5     6    1
   127    44    43    1
   128     8     6    1
   129    90    88   am
   130    19    20    1
   131     2     1    1
   132    20    21    1
   133    74    71    1
   134    74    75    1
   135    71    72    1
   136    30    31    1
   137    30    27    1
   138     6     7    1
   139    37    34    1
   140    88    87    1
   141    88    89    2
   142    87    86    1
   143    43    42    1
   144    73    72    2
   145    42    39    1
   146    75    77    1
   147    75    76    1
   148    26    27    1
   149    27    28    1
   150    84    83    1
   151    34    33    1
   152    34    35    1
   153    36    35    2
   154    47    48    1
   155    29    28    2
   156    50    49    2
   157    48    49    1
   158    48    51    1
   159    39    38    1
   160    39    40    1
   161    82    83    1
   162    82    79    1
   163    83    85    1
   164    81    80    2
   165    53    51    1
   166    51    52    1
   167    40    41    2
   168    80    79    1
   169    79    78    1
