@<TRIPOS>MOLECULE
tmp/3v5uA10.pdb
 88 80 0 0 0
SMALL
GASTEIGER

@<TRIPOS>ATOM
      1  N          8.7180   14.1010   18.5780 N.3    48  ILE48      -0.1245
      2  CA         9.2270   13.5580   19.8210 C.3    48  ILE48       0.1561
      3  C         10.4210   14.3600   20.3370 C.2    48  ILE48       0.2260
      4  O         10.5000   14.6820   21.5290 O.2    48  ILE48      -0.2867
      5  CB         9.5670   12.0620   19.6740 C.3    48  ILE48       0.0252
      6  CG1        8.2860   11.2750   19.3630 C.3    48  ILE48       0.0019
      7  CG2       10.2430   11.5470   20.9270 C.3    48  ILE48       0.0019
      8  CD1        8.5180    9.8240   18.9810 C.3    48  ILE48       0.0001
      9  N         10.5510   16.3400   24.1720 N.3    52  LEU52      -0.1245
     10  CA        11.3780   15.8620   25.2820 C.3    52  LEU52       0.1561
     11  C         11.2720   16.7710   26.5220 C.2    52  LEU52       0.2260
     12  O         11.2010   16.2730   27.6410 O.2    52  LEU52      -0.2867
     13  CB        12.8440   15.7170   24.8590 C.3    52  LEU52       0.0270
     14  CG        13.1140   14.6220   23.8180 C.3    52  LEU52       0.0019
     15  CD1       14.5650   14.6700   23.3460 C.3    52  LEU52       0.0001
     16  CD2       12.7370   13.2400   24.3530 C.3    52  LEU52       0.0001
     17  N          7.9620   15.8730   28.2650 N.3    55  ILE55      -0.1245
     18  CA         8.0030   14.5480   28.8980 C.3    55  ILE55       0.1561
     19  C          8.8000   14.6030   30.2090 C.2    55  ILE55       0.2260
     20  O          8.3500   14.1250   31.2610 O.2    55  ILE55      -0.2867
     21  CB         8.5990   13.5040   27.9270 C.3    55  ILE55       0.0252
     22  CG1        7.6230   13.2780   26.7740 C.3    55  ILE55       0.0019
     23  CG2        8.8950   12.1870   28.6380 C.3    55  ILE55       0.0019
     24  CD1        8.2600   12.6640   25.5570 C.3    55  ILE55       0.0001
     25  N          0.0600    5.3430   26.2890 N.3   132  LEU132     -0.1245
     26  CA         1.4100    5.0820   25.8020 C.3   132  LEU132      0.1561
     27  C          1.4010    4.0190   24.7030 C.2   132  LEU132      0.2260
     28  O          2.0550    4.1510   23.6610 O.2   132  LEU132     -0.2867
     29  CB         2.3050    4.6200   26.9610 C.3   132  LEU132      0.0270
     30  CG         3.7390    4.2180   26.5990 C.3   132  LEU132      0.0019
     31  CD1        4.4470    5.2960   25.7740 C.3   132  LEU132      0.0001
     32  CD2        4.5560    3.8870   27.8520 C.3   132  LEU132      0.0001
     33  N          0.0090    5.5190   21.6550 N.3   135  PHE135     -0.1227
     34  CA         1.0220    6.4310   21.1000 C.3   135  PHE135      0.1736
     35  C          1.9820    5.6090   20.2170 C.2   135  PHE135      0.2595
     36  O          2.2380    5.9640   19.0780 O.2   135  PHE135     -0.2718
     37  CB         1.7630    7.0900   22.2800 C.3   135  PHE135      0.0547
     38  CG         2.9510    7.9600   21.9040 C.ar  135  PHE135     -0.0202
     39  CD1        3.0500    8.5820   20.6740 C.ar  135  PHE135     -0.0042
     40  CD2        3.9620    8.1760   22.8450 C.ar  135  PHE135     -0.0042
     41  CE1        4.1390    9.3880   20.3750 C.ar  135  PHE135     -0.0003
     42  CE2        5.0560    8.9700   22.5470 C.ar  135  PHE135     -0.0003
     43  CZ         5.1450    9.5760   21.3110 C.ar  135  PHE135     -0.0000
     44  N          2.4770    4.5010   20.7620 N.am  136  ILE136     -0.1980
     45  CA         3.3670    3.6050   20.0080 C.3   136  ILE136      0.1595
     46  C          2.6960    3.0940   18.7290 C.2   136  ILE136      0.2287
     47  O          3.3060    3.1320   17.6350 O.2   136  ILE136     -0.2864
     48  CB         3.7940    2.3890   20.8710 C.3   136  ILE136      0.0276
     49  CG1        4.5260    2.8530   22.1300 C.3   136  ILE136      0.0022
     50  CG2        4.6710    1.4330   20.0630 C.3   136  ILE136      0.0022
     51  CD1        5.5670    3.8930   21.8390 C.3   136  ILE136      0.0001
     52  N          2.5870    5.8090   16.0950 N.3   139  LEU139     -0.1231
     53  CA         3.8610    6.0270   15.4280 C.3   139  LEU139      0.1693
     54  C          4.1170    4.9900   14.3340 C.2   139  LEU139      0.2591
     55  O          4.5550    5.3160   13.2340 O.2   139  LEU139     -0.2718
     56  CB         5.0090    6.0110   16.4270 C.3   139  LEU139      0.0284
     57  CG         4.9920    7.1600   17.4520 C.3   139  LEU139      0.0019
     58  CD1        6.0200    6.9310   18.5530 C.3   139  LEU139      0.0001
     59  CD2        5.1910    8.5090   16.7470 C.3   139  LEU139      0.0001
     60  N          3.8690    3.7280   14.6470 N.am  140  ARG140     -0.1980
     61  CA         4.1800    2.6660   13.6940 C.3   140  ARG140      0.1597
     62  C          3.2550    2.7230   12.4910 C.2   140  ARG140      0.2287
     63  O          3.6880    2.5210   11.3570 O.2   140  ARG140     -0.2864
     64  CB         4.1160    1.3040   14.3660 C.3   140  ARG140      0.0334
     65  CG         5.0930    1.1890   15.5310 C.3   140  ARG140      0.0492
     66  CD         5.4200   -0.2440   15.8020 C.3   140  ARG140      0.2205
     67  NE         6.2100   -0.8040   14.7120 N.pl3 140  ARG140     -0.0865
     68  CZ         6.6130   -2.0660   14.6860 C.cat 140  ARG140      0.5346
     69  NH1        6.2820   -2.8710   15.6840 N.pl3 140  ARG140      0.1354
     70  NH2        7.3320   -2.5210   13.6710 N.pl3 140  ARG140      0.1354
     71  N          4.3000    5.7350   10.2920 N.3   143  VAL143     -0.1245
     72  CA         5.4790    5.4560    9.4870 C.3   143  VAL143      0.1561
     73  C          5.1510    4.4730    8.3560 C.2   143  VAL143      0.2260
     74  O          5.5840    4.6540    7.2170 O.2   143  VAL143     -0.2867
     75  CB         6.6330    4.8870   10.3510 C.3   143  VAL143      0.0252
     76  CG1        7.7780    4.4120    9.4670 C.3   143  VAL143      0.0019
     77  CG2        7.1290    5.9480   11.3580 C.3   143  VAL143      0.0019
     78  N          2.7650   10.3950   25.8140 N.3   236  GLY236     -0.1225
     79  CA         4.0910   10.3850   26.3870 C.3   236  GLY236      0.1811
     80  C          4.1720   11.1960   27.6640 C.2   236  GLY236      0.2280
     81  O          4.3650   10.6210   28.7360 O.2   236  GLY236     -0.2866
     82  N          3.3520    9.4410   31.1700 N.3   240  VAL240     -0.1245
     83  CA         4.4270    9.1910   32.1300 C.3   240  VAL240      0.1561
     84  C          4.1500    9.8460   33.4830 C.2   240  VAL240      0.2260
     85  O          4.3870    9.2460   34.5380 O.2   240  VAL240     -0.2867
     86  CB         5.8060    9.6160   31.6040 C.3   240  VAL240      0.0252
     87  CG1        6.8760    9.3380   32.6620 C.3   240  VAL240      0.0019
     88  CG2        6.1320    8.8720   30.3210 C.3   240  VAL240      0.0019
@<TRIPOS>BOND
     1    74    73    2
     2    73    72    1
     3    76    75    1
     4    72    71    1
     5    72    75    1
     6    75    77    1
     7    63    62    2
     8    62    61    1
     9    55    54    2
    10    70    68    1
    11    61    64    1
    12    61    60    1
    13    54    60   am
    14    54    53    1
    15    64    65    1
    16    68    67    2
    17    68    69    1
    18    67    66    1
    19    53    52    1
    20    53    56    1
    21    65    66    1
    22    56    57    1
    23    59    57    1
    24    57    58    1
    25    47    46    2
    26     1     2    1
    27    46    45    1
    28     8     6    1
    29    36    35    2
    30     6     5    1
    31     5     2    1
    32     5     7    1
    33     2     3    1
    34    45    44    1
    35    45    48    1
    36    50    48    1
    37    35    44   am
    38    35    34    1
    39     3     4    2
    40    41    39   ar
    41    41    43   ar
    42    39    38   ar
    43    48    49    1
    44    34    33    1
    45    34    37    1
    46    43    42   ar
    47    51    49    1
    48    38    37    1
    49    38    40   ar
    50    42    40   ar
    51    15    14    1
    52    28    27    2
    53    14    16    1
    54    14    13    1
    55     9    10    1
    56    27    26    1
    57    13    10    1
    58    10    11    1
    59    24    22    1
    60    31    30    1
    61    26    25    1
    62    26    29    1
    63    78    79    1
    64    79    80    1
    65    11    12    2
    66    30    29    1
    67    30    32    1
    68    22    21    1
    69    80    81    2
    70    21    23    1
    71    21    18    1
    72    17    18    1
    73    18    19    1
    74    19    20    2
    75    88    86    1
    76    82    83    1
    77    86    83    1
    78    86    87    1
    79    83    84    1
    80    84    85    2
