@<TRIPOS>MOLECULE
tmp/3v5uA04.pdb
 116 111 0 0 0
SMALL
GASTEIGER

@<TRIPOS>ATOM
      1  N         -7.4680   10.1160   13.0310 N.3   107  VAL107     -0.1245
      2  CA        -6.9580    9.2380   14.0840 C.3   107  VAL107      0.1561
      3  C         -6.4820   10.0440   15.3000 C.2   107  VAL107      0.2260
      4  O         -6.7490    9.6830   16.4670 O.2   107  VAL107     -0.2867
      5  CB        -5.8180    8.3500   13.5460 C.3   107  VAL107      0.0252
      6  CG1       -5.0690    7.6740   14.6950 C.3   107  VAL107      0.0019
      7  CG2       -6.3780    7.3230   12.5650 C.3   107  VAL107      0.0019
      8  N         -9.5650   11.1640   17.2060 N.3   110  LEU110     -0.1231
      9  CA       -10.1120   10.0520   17.9790 C.3   110  LEU110      0.1693
     10  C         -9.3080    9.8340   19.2470 C.2   110  LEU110      0.2592
     11  O         -9.8670    9.5500   20.3150 O.2   110  LEU110     -0.2718
     12  CB       -10.1020    8.7660   17.1560 C.3   110  LEU110      0.0284
     13  CG       -11.0550    8.7350   15.9600 C.3   110  LEU110      0.0019
     14  CD1      -10.9520    7.4100   15.2260 C.3   110  LEU110      0.0001
     15  CD2      -12.4830    9.0040   16.4160 C.3   110  LEU110      0.0001
     16  N         -7.9940    9.9500   19.1210 N.am  111  PHE111     -0.1976
     17  CA        -7.0860    9.7390   20.2500 C.3   111  PHE111      0.1639
     18  C         -7.3290   10.7970   21.3220 C.2   111  PHE111      0.2290
     19  O         -7.3790   10.4960   22.5270 O.2   111  PHE111     -0.2864
     20  CB        -5.6430    9.7910   19.7410 C.3   111  PHE111      0.0560
     21  CG        -4.6040    9.6850   20.8180 C.ar  111  PHE111     -0.0200
     22  CD1       -4.2150    8.4510   21.3030 C.ar  111  PHE111     -0.0042
     23  CD2       -4.0050   10.8190   21.3330 C.ar  111  PHE111     -0.0042
     24  CE1       -3.2480    8.3440   22.2830 C.ar  111  PHE111     -0.0003
     25  CE2       -3.0350   10.7160   22.3290 C.ar  111  PHE111     -0.0003
     26  CZ        -2.6600    9.4730   22.7960 C.ar  111  PHE111     -0.0000
     27  N        -10.6760   10.1660   22.9540 N.3   114  PHE114     -0.1241
     28  CA       -10.4770    9.0360   23.8650 C.3   114  PHE114      0.1605
     29  C         -9.7820    9.4610   25.1740 C.2   114  PHE114      0.2264
     30  O        -10.2230    9.1120   26.2660 O.2   114  PHE114     -0.2867
     31  CB        -9.6980    7.9110   23.1710 C.3   114  PHE114      0.0534
     32  CG        -9.3610    6.7620   24.0880 C.ar  114  PHE114     -0.0203
     33  CD1      -10.3410    5.8490   24.4700 C.ar  114  PHE114     -0.0042
     34  CD2       -8.0770    6.6080   24.5820 C.ar  114  PHE114     -0.0042
     35  CE1      -10.0250    4.7940   25.3270 C.ar  114  PHE114     -0.0003
     36  CE2       -7.7570    5.5670   25.4240 C.ar  114  PHE114     -0.0003
     37  CZ        -8.7350    4.6590   25.8010 C.ar  114  PHE114     -0.0000
     38  N        -11.5000    9.1470   29.0350 N.3   118  ILE118     -0.1245
     39  CA       -10.9180    8.4120   30.1550 C.3   118  ILE118      0.1561
     40  C        -10.3440    9.3620   31.2020 C.2   118  ILE118      0.2260
     41  O        -10.1430    8.9740   32.3390 O.2   118  ILE118     -0.2867
     42  CB        -9.8490    7.3780   29.7460 C.3   118  ILE118      0.0252
     43  CG1       -8.5320    8.0540   29.3450 C.3   118  ILE118      0.0019
     44  CG2      -10.3870    6.3980   28.6830 C.3   118  ILE118      0.0019
     45  CD1       -7.4300    7.0450   29.0010 C.3   118  ILE118      0.0001
     46  N         -5.2130    7.8110   35.7490 N.3   124  SER124     -0.1217
     47  CA        -4.4990    6.8810   36.6060 C.3   124  SER124      0.1889
     48  C         -3.3470    6.3040   35.8240 C.2   124  SER124      0.2288
     49  O         -3.1720    6.5910   34.6300 O.2   124  SER124     -0.2866
     50  CB        -5.4120    5.7270   37.0280 C.3   124  SER124      0.2089
     51  OG        -5.7190    4.9140   35.9040 O.3   124  SER124     -0.2183
     52  N         -3.0410    3.3180   34.9070 N.3   126  ILE126     -0.1231
     53  CA        -3.5710    2.4430   33.8660 C.3   126  ILE126      0.1692
     54  C         -3.9940    3.2470   32.6420 C.2   126  ILE126      0.2592
     55  O         -3.7900    2.8130   31.5060 O.2   126  ILE126     -0.2718
     56  CB        -4.7670    1.5780   34.3460 C.3   126  ILE126      0.0266
     57  CG1       -4.3920    0.7520   35.5690 C.3   126  ILE126      0.0019
     58  CG2       -5.2020    0.6290   33.2570 C.3   126  ILE126      0.0020
     59  CD1       -5.5660   -0.0680   36.1170 C.3   126  ILE126      0.0001
     60  N         -4.5700    4.4210   32.8690 N.am  127  ASP127     -0.1974
     61  CA        -4.8220    5.3400   31.7580 C.3   127  ASP127      0.1709
     62  C         -3.5110    5.6310   31.0220 C.2   127  ASP127      0.2293
     63  O         -3.4600    5.6150   29.7930 O.2   127  ASP127     -0.2864
     64  CB        -5.4390    6.6470   32.2520 C.3   127  ASP127      0.1436
     65  CG        -6.8350    6.4640   32.8300 C.2   127  ASP127      0.3671
     66  OD1       -7.5810    5.5760   32.3700 O.co2 127  ASP127     -0.2456
     67  OD2       -7.1770    7.2260   33.7500 O.co2 127  ASP127     -0.2456
     68  N         -2.3120    2.7360   28.8180 N.3   130  VAL130     -0.1245
     69  CA        -3.1140    2.6460   27.5990 C.3   130  VAL130      0.1561
     70  C         -2.7110    3.7250   26.5730 C.2   130  VAL130      0.2260
     71  O         -2.5030    3.4320   25.3900 O.2   130  VAL130     -0.2867
     72  CB        -4.6140    2.7470   27.9150 C.3   130  VAL130      0.0252
     73  CG1       -5.4230    2.7980   26.6430 C.3   130  VAL130      0.0019
     74  CG2       -5.0640    1.5450   28.7770 C.3   130  VAL130      0.0019
     75  N         -1.1290    3.2940   22.8480 N.3   134  LEU134     -0.1245
     76  CA        -1.7650    3.8510   21.6570 C.3   134  LEU134      0.1561
     77  C         -0.8040    4.7810   20.9040 C.2   134  LEU134      0.2260
     78  O         -0.8050    4.8120   19.6820 O.2   134  LEU134     -0.2867
     79  CB        -3.0580    4.5840   22.0000 C.3   134  LEU134      0.0270
     80  CG        -4.2090    3.7150   22.5180 C.3   134  LEU134      0.0019
     81  CD1       -5.3130    4.6110   23.0760 C.3   134  LEU134      0.0001
     82  CD2       -4.7450    2.7840   21.4240 C.3   134  LEU134      0.0001
     83  N          1.4610    2.6080   18.8430 N.3   137  ILE137     -0.1231
     84  CA         0.7580    2.1380   17.6440 C.3   137  ILE137      0.1692
     85  C          0.6230    3.2790   16.6300 C.2   137  ILE137      0.2592
     86  O          0.8040    3.0670   15.4250 O.2   137  ILE137     -0.2718
     87  CB        -0.6750    1.6390   17.9700 C.3   137  ILE137      0.0266
     88  CG1       -0.6400    0.4590   18.9650 C.3   137  ILE137      0.0019
     89  CG2       -1.3980    1.2170   16.6880 C.3   137  ILE137      0.0020
     90  CD1        0.3710   -0.5930   18.6270 C.3   137  ILE137      0.0001
     91  N          0.2800    4.4760   17.1090 N.am  138  TYR138     -0.1976
     92  CA         0.1350    5.6130   16.1970 C.3   138  TYR138      0.1639
     93  C          1.4310    5.8180   15.4130 C.2   138  TYR138      0.2290
     94  O          1.3830    5.9970   14.1780 O.2   138  TYR138     -0.2864
     95  CB        -0.2250    6.8970   16.9520 C.3   138  TYR138      0.0560
     96  CG        -0.1120    8.1440   16.0850 C.ar  138  TYR138     -0.0198
     97  CD1       -1.1840    8.5680   15.2940 C.ar  138  TYR138     -0.0009
     98  CD2        1.0910    8.8650   16.0230 C.ar  138  TYR138     -0.0009
     99  CE1       -1.0420    9.6980   14.4610 C.ar  138  TYR138      0.0417
    100  CE2        1.2160    9.9710   15.2080 C.ar  138  TYR138      0.0417
    101  CZ         0.1560   10.3860   14.4220 C.ar  138  TYR138      0.1957
    102  OH         0.3020   11.4870   13.6150 O.3   138  TYR138     -0.2866
    103  N          1.9840    2.9990   12.7590 N.3   141  TRP141     -0.1241
    104  CA         0.9700    3.1450   11.7220 C.3   141  TRP141      0.1605
    105  C          1.3080    4.3440   10.8190 C.2   141  TRP141      0.2264
    106  O          1.2150    4.2740    9.5880 O.2   141  TRP141     -0.2867
    107  CB        -0.3970    3.3260   12.3940 C.3   141  TRP141      0.0550
    108  CG        -1.5820    3.0900   11.5090 C.ar  141  TRP141      0.0003
    109  CD1       -1.5680    2.7850   10.1800 C.ar  141  TRP141      0.0946
    110  CD2       -2.9650    3.1260   11.8980 C.ar  141  TRP141      0.0152
    111  NE1       -2.8560    2.6390    9.7130 N.ar  141  TRP141     -0.2442
    112  CE2       -3.7310    2.8420   10.7480 C.ar  141  TRP141      0.0810
    113  CE3       -3.6290    3.3680   13.1080 C.ar  141  TRP141      0.0012
    114  CZ2       -5.1280    2.7980   10.7710 C.ar  141  TRP141      0.0191
    115  CZ3       -5.0100    3.3260   13.1270 C.ar  141  TRP141      0.0001
    116  CH2       -5.7450    3.0430   11.9660 C.ar  141  TRP141      0.0015
@<TRIPOS>BOND
     1   106   105    2
     2   111   109   ar
     3   111   112   ar
     4   109   108   ar
     5   112   114   ar
     6   112   110   ar
     7   114   116   ar
     8   105   104    1
     9   108   110   ar
    10   108   107    1
    11   104   107    1
    12   104   103    1
    13   110   113   ar
    14   116   115   ar
    15     7     5    1
    16     1     2    1
    17   113   115   ar
    18     5     2    1
    19     5     6    1
    20   102   101    1
    21     2     3    1
    22    94    93    2
    23   101    99   ar
    24   101   100   ar
    25    99    97   ar
    26   100    98   ar
    27    14    13    1
    28    97    96   ar
    29     3     4    2
    30    93    92    1
    31    86    85    2
    32    13    15    1
    33    13    12    1
    34    98    96   ar
    35    96    95    1
    36    92    95    1
    37    92    91    1
    38    85    91   am
    39    85    84    1
    40    89    87    1
    41    12     9    1
    42     8     9    1
    43    84    87    1
    44    84    83    1
    45    87    88    1
    46     9    10    1
    47    90    88    1
    48    16    10   am
    49    16    17    1
    50    10    11    2
    51    78    77    2
    52    20    17    1
    53    20    21    1
    54    17    18    1
    55    21    22   ar
    56    21    23   ar
    57    77    76    1
    58    22    24   ar
    59    18    19    2
    60    23    25   ar
    61    82    80    1
    62    76    79    1
    63    76    75    1
    64    79    80    1
    65    24    26   ar
    66    25    26   ar
    67    80    81    1
    68    27    28    1
    69    31    28    1
    70    31    32    1
    71    28    29    1
    72    32    33   ar
    73    32    34   ar
    74    33    35   ar
    75    34    36   ar
    76    29    30    2
    77    35    37   ar
    78    71    70    2
    79    36    37   ar
    80    70    69    1
    81    73    72    1
    82    69    72    1
    83    69    68    1
    84    72    74    1
    85    44    42    1
    86    45    43    1
    87    38    39    1
    88    43    42    1
    89    42    39    1
    90    63    62    2
    91    39    40    1
    92    62    61    1
    93    40    41    2
    94    55    54    2
    95    61    64    1
    96    61    60    1
    97    64    65    1
    98    66    65   ar
    99    54    60   am
   100    54    53    1
   101    65    67   ar
   102    58    56    1
   103    53    56    1
   104    53    52    1
   105    56    57    1
   106    49    48    2
   107    57    59    1
   108    46    47    1
   109    48    47    1
   110    51    50    1
   111    47    50    1
