@<TRIPOS>MOLECULE
tmp/3v5uA02.pdb
 129 120 0 0 0
SMALL
GASTEIGER

@<TRIPOS>ATOM
      1  N         17.7990   32.7240   22.6060 N.3    13  LEU13      -0.1245
      2  CA        17.0960   33.1740   21.4140 C.3    13  LEU13       0.1561
      3  C         17.8790   32.8790   20.1410 C.2    13  LEU13       0.2260
      4  O         17.3040   32.4740   19.1280 O.2    13  LEU13      -0.2867
      5  CB        16.7950   34.6770   21.4870 C.3    13  LEU13       0.0270
      6  CG        15.5180   35.0940   22.2140 C.3    13  LEU13       0.0019
      7  CD1       15.3250   36.6070   22.1200 C.3    13  LEU13       0.0001
      8  CD2       14.3110   34.3710   21.6420 C.3    13  LEU13       0.0001
      9  N         16.7810   30.3240   17.2370 N.3    17  TYR17      -0.1241
     10  CA        16.5450   30.8470   15.9050 C.3    17  TYR17       0.1605
     11  C         17.2880   30.0210   14.8580 C.2    17  TYR17       0.2264
     12  O         16.6900   29.5250   13.9010 O.2    17  TYR17      -0.2867
     13  CB        16.9710   32.3130   15.8250 C.3    17  TYR17       0.0534
     14  CG        16.5330   33.0070   14.5610 C.ar   17  TYR17      -0.0201
     15  CD1       15.2550   33.5160   14.4420 C.ar   17  TYR17      -0.0009
     16  CD2       17.3980   33.1410   13.4760 C.ar   17  TYR17      -0.0009
     17  CE1       14.8450   34.1500   13.2860 C.ar   17  TYR17       0.0417
     18  CE2       16.9960   33.7800   12.3120 C.ar   17  TYR17       0.0417
     19  CZ        15.7160   34.2830   12.2260 C.ar   17  TYR17       0.1957
     20  OH        15.2920   34.9180   11.0760 O.3    17  TYR17      -0.2866
     21  N         -1.7510   21.9080   28.4120 N.3    76  GLY76      -0.1225
     22  CA        -1.5260   23.2990   28.0460 C.3    76  GLY76       0.1811
     23  C         -0.6550   23.3850   26.8080 C.2    76  GLY76       0.2280
     24  O         -0.7800   24.2960   25.9800 O.2    76  GLY76      -0.2866
     25  N         -2.7380   22.7130   23.6480 N.3    79  ILE79      -0.1231
     26  CA        -3.5230   23.8960   23.2910 C.3    79  ILE79       0.1692
     27  C         -2.6400   24.9700   22.6520 C.2    79  ILE79       0.2592
     28  O         -3.0250   25.6030   21.6690 O.2    79  ILE79      -0.2718
     29  CB        -4.2700   24.4590   24.5260 C.3    79  ILE79       0.0266
     30  CG1       -5.4110   23.4960   24.9130 C.3    79  ILE79       0.0019
     31  CG2       -4.7950   25.8620   24.2170 C.3    79  ILE79       0.0020
     32  CD1       -6.0160   23.7510   26.2980 C.3    79  ILE79       0.0001
     33  N         -1.4610   25.1700   23.2230 N.am   80  CYS80      -0.1970
     34  CA        -0.4540   26.0550   22.6320 C.3    80  CYS80       0.1712
     35  C         -0.0720   25.6250   21.2030 C.2    80  CYS80       0.2296
     36  O          0.0430   26.4660   20.3000 O.2    80  CYS80      -0.2864
     37  CB         0.8010   26.0970   23.5180 C.3    80  CYS80       0.0983
     38  SG         2.0550   27.3440   22.9840 S.3    80  CYS80      -0.0798
     39  N         -1.5320   28.6240   19.0530 N.3    84  LEU84      -0.1245
     40  CA        -0.4550   29.5480   18.7330 C.3    84  LEU84       0.1561
     41  C          0.4710   29.0370   17.6310 C.2    84  LEU84       0.2260
     42  O          0.7170   29.7280   16.6470 O.2    84  LEU84      -0.2867
     43  CB         0.3660   29.8370   19.9970 C.3    84  LEU84       0.0270
     44  CG         1.5960   30.7380   19.8080 C.3    84  LEU84       0.0019
     45  CD1        1.1740   32.1590   19.4930 C.3    84  LEU84       0.0001
     46  CD2        2.4690   30.7180   21.0660 C.3    84  LEU84       0.0001
     47  N         -0.0750   30.6920   13.9410 N.3    88  LEU88      -0.1245
     48  CA         0.9270   31.5200   13.2710 C.3    88  LEU88       0.1561
     49  C          1.4520   30.8750   11.9880 C.2    88  LEU88       0.2260
     50  O          1.5770   31.5380   10.9490 O.2    88  LEU88      -0.2867
     51  CB         2.1060   31.7690   14.2010 C.3    88  LEU88       0.0270
     52  CG         1.8780   32.6150   15.4470 C.3    88  LEU88       0.0019
     53  CD1        3.1410   32.6000   16.2810 C.3    88  LEU88       0.0001
     54  CD2        1.5230   34.0470   15.0650 C.3    88  LEU88       0.0001
     55  N          2.1230   29.2250   35.1850 N.3   196  THR196     -0.1203
     56  CA         1.2260   29.4310   34.0510 C.3   196  THR196      0.1994
     57  C          1.9760   29.2520   32.7270 C.2   196  THR196      0.2617
     58  O          1.4240   28.7340   31.7550 O.2   196  THR196     -0.2717
     59  CB         0.6200   30.8450   34.0640 C.3   196  THR196      0.1784
     60  OG1       -0.1160   31.0400   35.2820 O.3   196  THR196     -0.2211
     61  CG2       -0.3090   31.0230   32.8650 C.3   196  THR196      0.0376
     62  N          3.2380   29.6800   32.7120 N.am  197  LEU197     -0.1979
     63  CA         4.0740   29.7240   31.5050 C.3   197  LEU197      0.1596
     64  C          4.8970   28.4540   31.2450 C.2   197  LEU197      0.2287
     65  O          5.6320   28.3770   30.2580 O.2   197  LEU197     -0.2864
     66  CB         5.0280   30.9200   31.5790 C.3   197  LEU197      0.0297
     67  CG         4.3750   32.3120   31.6230 C.3   197  LEU197      0.0022
     68  CD1        5.4340   33.4070   31.6900 C.3   197  LEU197      0.0001
     69  CD2        3.4990   32.5120   30.3970 C.3   197  LEU197      0.0001
     70  N          4.0050   25.4670   30.1970 N.3   199  ALA199     -0.1231
     71  CA         3.6710   24.8140   28.9270 C.3   199  ALA199      0.1694
     72  C          4.2310   25.6090   27.7480 C.2   199  ALA199      0.2592
     73  O          4.6710   25.0350   26.7650 O.2   199  ALA199     -0.2718
     74  CB         2.1780   24.6340   28.7890 C.3   199  ALA199      0.0304
     75  N          4.2120   26.9300   27.8360 N.am  200  PHE200     -0.1976
     76  CA         4.7690   27.7470   26.7590 C.3   200  PHE200      0.1639
     77  C          6.2730   27.5480   26.6490 C.2   200  PHE200      0.2290
     78  O          6.8050   27.3890   25.5550 O.2   200  PHE200     -0.2864
     79  CB         4.4840   29.2410   26.9740 C.3   200  PHE200      0.0560
     80  CG         5.2410   30.1370   26.0210 C.ar  200  PHE200     -0.0200
     81  CD1        4.8230   30.2860   24.7030 C.ar  200  PHE200     -0.0042
     82  CD2        6.3900   30.7970   26.4340 C.ar  200  PHE200     -0.0042
     83  CE1        5.5300   31.0980   23.8170 C.ar  200  PHE200     -0.0003
     84  CE2        7.1010   31.6040   25.5590 C.ar  200  PHE200     -0.0003
     85  CZ         6.6680   31.7580   24.2490 C.ar  200  PHE200     -0.0000
     86  N          7.3770   25.8410   18.6110 N.3   207  LEU207     -0.1231
     87  CA         7.1120   27.1540   18.0570 C.3   207  LEU207      0.1693
     88  C          8.1470   27.5180   16.9990 C.2   207  LEU207      0.2591
     89  O          7.7960   27.8830   15.8680 O.2   207  LEU207     -0.2718
     90  CB         7.1220   28.2040   19.1730 C.3   207  LEU207      0.0284
     91  CG         6.9130   29.6420   18.7130 C.3   207  LEU207      0.0019
     92  CD1        5.5790   29.7660   17.9780 C.3   207  LEU207      0.0001
     93  CD2        6.9900   30.5750   19.9210 C.3   207  LEU207      0.0001
     94  N          9.4230   27.4280   17.3600 N.am  208  MET208     -0.1979
     95  CA        10.4770   27.9420   16.4760 C.3   208  MET208      0.1605
     96  C         10.7170   27.0040   15.3050 C.2   208  MET208      0.2287
     97  O         10.9930   27.4400   14.1720 O.2   208  MET208     -0.2864
     98  CB        11.7760   28.1640   17.2650 C.3   208  MET208      0.0413
     99  CG        11.6460   29.2560   18.3250 C.3   208  MET208      0.0598
    100  SD        11.2830   30.8610   17.6000 S.3   208  MET208     -0.1393
    101  CE        12.8520   31.2750   16.8570 C.3   208  MET208      0.0692
    102  N          7.7620   27.5370   12.8840 N.3   211  LEU211     -0.1245
    103  CA         7.9020   28.7860   12.1580 C.3   211  LEU211      0.1561
    104  C          8.9940   28.6690   11.0920 C.2   211  LEU211      0.2260
    105  O          8.8260   29.1710    9.9840 O.2   211  LEU211     -0.2867
    106  CB         8.1970   29.9500   13.1140 C.3   211  LEU211      0.0270
    107  CG         6.9880   30.3790   13.9670 C.3   211  LEU211      0.0019
    108  CD1        7.3710   31.4880   14.9470 C.3   211  LEU211      0.0001
    109  CD2        5.8320   30.8210   13.0920 C.3   211  LEU211      0.0001
    110  N         -6.8630   30.8440   20.9100 N.3   285  TYR285     -0.1241
    111  CA        -5.7210   30.7980   21.8270 C.3   285  TYR285      0.1605
    112  C         -5.6870   32.0060   22.7640 C.2   285  TYR285      0.2264
    113  O         -5.4840   31.8640   23.9660 O.2   285  TYR285     -0.2867
    114  CB        -4.3940   30.7170   21.0670 C.3   285  TYR285      0.0534
    115  CG        -3.2050   30.6390   22.0050 C.ar  285  TYR285     -0.0201
    116  CD1       -2.9690   29.5010   22.7630 C.ar  285  TYR285     -0.0009
    117  CD2       -2.3450   31.7180   22.1620 C.ar  285  TYR285     -0.0009
    118  CE1       -1.8940   29.4370   23.6540 C.ar  285  TYR285      0.0417
    119  CE2       -1.2600   31.6580   23.0300 C.ar  285  TYR285      0.0417
    120  CZ        -1.0470   30.5180   23.7790 C.ar  285  TYR285      0.1957
    121  OH         0.0210   30.4610   24.6490 O.3   285  TYR285     -0.2866
    122  N         -6.0000   32.0420   26.8500 N.3   289  ILE289     -0.1245
    123  CA        -5.0510   32.5660   27.8220 C.3   289  ILE289      0.1561
    124  C         -5.6520   33.7220   28.6160 C.2   289  ILE289      0.2260
    125  O         -5.2100   34.0010   29.7310 O.2   289  ILE289     -0.2867
    126  CB        -3.6920   32.9510   27.2040 C.3   289  ILE289      0.0252
    127  CG1       -3.8800   34.0080   26.1240 C.3   289  ILE289      0.0019
    128  CG2       -2.9960   31.7010   26.6540 C.3   289  ILE289      0.0019
    129  CD1       -2.5750   34.6240   25.6480 C.3   289  ILE289      0.0001
@<TRIPOS>BOND
     1   105   104    2
     2    50    49    2
     3    20    19    1
     4   104   103    1
     5    49    48    1
     6   103   102    1
     7   103   106    1
     8    19    18   ar
     9    19    17   ar
    10    18    16   ar
    11   109   107    1
    12   106   107    1
    13    48    47    1
    14    48    51    1
    15    17    15   ar
    16    16    14   ar
    17    12    11    2
    18   107   108    1
    19    97    96    2
    20    51    52    1
    21    15    14   ar
    22    14    13    1
    23    11    10    1
    24    54    52    1
    25    96    95    1
    26    52    53    1
    27    13    10    1
    28    89    88    2
    29    10     9    1
    30    95    98    1
    31    95    94    1
    32    42    41    2
    33   101   100    1
    34    88    94   am
    35    88    87    1
    36    98    99    1
    37   100    99    1
    38    41    40    1
    39    92    91    1
    40    87    86    1
    41    87    90    1
    42    91    90    1
    43    91    93    1
    44    40    39    1
    45    40    43    1
    46     4     3    2
    47    45    44    1
    48    44    43    1
    49    44    46    1
    50     3     2    1
    51    36    35    2
    52   110   111    1
    53   114   111    1
    54   114   115    1
    55    35    34    1
    56     2     5    1
    57     2     1    1
    58     5     6    1
    59     8     6    1
    60    28    27    2
    61   111   112    1
    62   115   117   ar
    63   115   116   ar
    64     7     6    1
    65   117   119   ar
    66    34    33    1
    67    34    37    1
    68    27    33   am
    69    27    26    1
    70   116   118   ar
    71   112   113    2
    72    38    37    1
    73   119   120   ar
    74    26    25    1
    75    26    29    1
    76   118   120   ar
    77   120   121    1
    78    83    85   ar
    79    83    81   ar
    80    31    29    1
    81    85    84   ar
    82    29    30    1
    83    81    80   ar
    84    30    32    1
    85    78    77    2
    86    84    82   ar
    87   129   127    1
    88    24    23    2
    89    80    82   ar
    90    80    79    1
    91   127   126    1
    92    77    76    1
    93   128   126    1
    94    76    79    1
    95    76    75    1
    96    73    72    2
    97    23    22    1
    98   122   123    1
    99   126   123    1
   100    72    75   am
   101    72    71    1
   102   123   124    1
   103    22    21    1
   104   124   125    2
   105    74    71    1
   106    71    70    1
   107    65    64    2
   108    69    67    1
   109    64    63    1
   110    63    66    1
   111    63    62    1
   112    66    67    1
   113    67    68    1
   114    58    57    2
   115    62    57   am
   116    57    56    1
   117    61    59    1
   118    56    59    1
   119    56    55    1
   120    59    60    1
