@<TRIPOS>MOLECULE
tmp/3v5uA05.pdb
 132 128 0 0 0
SMALL
GASTEIGER

@<TRIPOS>ATOM
      1  N         19.2420   34.6470   28.1480 N.3     9  PHE9       -0.1241
      2  CA        18.0940   35.0620   27.3540 C.3     9  PHE9        0.1605
      3  C         18.4450   35.2360   25.8730 C.2     9  PHE9        0.2264
      4  O         17.8250   34.6240   24.9970 O.2     9  PHE9       -0.2867
      5  CB        17.5380   36.3690   27.9200 C.3     9  PHE9        0.0534
      6  CG        16.2710   36.8310   27.2650 C.ar    9  PHE9       -0.0203
      7  CD1       15.0420   36.4020   27.7310 C.ar    9  PHE9       -0.0042
      8  CD2       16.3080   37.7010   26.1920 C.ar    9  PHE9       -0.0042
      9  CE1       13.8680   36.8340   27.1330 C.ar    9  PHE9       -0.0003
     10  CE2       15.1380   38.1320   25.5810 C.ar    9  PHE9       -0.0003
     11  CZ        13.9180   37.7010   26.0530 C.ar    9  PHE9       -0.0000
     12  N         16.8980   30.3340   27.2840 N.3   175  PHE175     -0.1227
     13  CA        15.9300   31.4060   27.1680 C.3   175  PHE175      0.1736
     14  C         15.0570   31.4840   28.4250 C.2   175  PHE175      0.2595
     15  O         14.8120   32.5750   28.9780 O.2   175  PHE175     -0.2718
     16  CB        15.0710   31.1630   25.9300 C.3   175  PHE175      0.0547
     17  CG        13.9990   32.1780   25.7280 C.ar  175  PHE175     -0.0202
     18  CD1       14.2580   33.3480   25.0340 C.ar  175  PHE175     -0.0042
     19  CD2       12.7310   31.9720   26.2330 C.ar  175  PHE175     -0.0042
     20  CE1       13.2670   34.2830   24.8430 C.ar  175  PHE175     -0.0003
     21  CE2       11.7350   32.9090   26.0450 C.ar  175  PHE175     -0.0003
     22  CZ        11.9990   34.0580   25.3510 C.ar  175  PHE175     -0.0000
     23  N         14.5770   30.3250   28.8630 N.am  176  VAL176     -0.1980
     24  CA        13.7100   30.2420   30.0300 C.3   176  VAL176      0.1595
     25  C         14.4650   30.5500   31.3250 C.2   176  VAL176      0.2287
     26  O         13.9730   31.2890   32.1830 O.2   176  VAL176     -0.2864
     27  CB        13.0460   28.8640   30.1350 C.3   176  VAL176      0.0276
     28  CG1       12.3920   28.6880   31.5100 C.3   176  VAL176      0.0022
     29  CG2       12.0230   28.6880   29.0110 C.3   176  VAL176      0.0022
     30  N         15.2000   34.2950   31.3970 N.3   179  ALA179     -0.1231
     31  CA        14.0090   35.0490   31.7810 C.3   179  ALA179      0.1694
     32  C         13.7970   34.9820   33.2870 C.2   179  ALA179      0.2591
     33  O         13.4990   36.0020   33.9170 O.2   179  ALA179     -0.2718
     34  CB        12.7710   34.5370   31.0510 C.3   179  ALA179      0.0304
     35  N         13.9350   33.7810   33.8520 N.am  180  LYS180     -0.1980
     36  CA        13.7410   33.5700   35.2810 C.3   180  LYS180      0.1596
     37  C         14.7840   34.3240   36.1100 C.2   180  LYS180      0.2287
     38  O         14.4620   34.9000   37.1490 O.2   180  LYS180     -0.2864
     39  CB        13.7760   32.0800   35.6250 C.3   180  LYS180      0.0298
     40  CG        12.5820   31.2850   35.1070 C.3   180  LYS180      0.0038
     41  CD        12.5180   29.8870   35.7440 C.3   180  LYS180      0.0206
     42  CE        13.7380   29.0310   35.4050 C.3   180  LYS180      0.1093
     43  NZ        13.6530   27.6470   35.9820 N.3   180  LYS180     -0.1314
     44  N         13.8590   38.0220   35.9950 N.3   183  ALA183     -0.1245
     45  CA        12.7000   38.3160   36.8200 C.3   183  ALA183      0.1562
     46  C         13.1170   38.3330   38.2800 C.2   183  ALA183      0.2260
     47  O         12.7330   39.2180   39.0420 O.2   183  ALA183     -0.2867
     48  CB        11.5960   37.2870   36.5820 C.3   183  ALA183      0.0290
     49  N         10.6650   40.8430   40.3360 N.3   188  ILE188     -0.1231
     50  CA         9.3130   40.6630   39.8280 C.3   188  ILE188      0.1692
     51  C          8.9840   39.1830   39.6080 C.2   188  ILE188      0.2593
     52  O          8.0800   38.8520   38.8490 O.2   188  ILE188     -0.2718
     53  CB         9.0830   41.4600   38.5280 C.3   188  ILE188      0.0266
     54  CG1       10.0430   40.9840   37.4410 C.3   188  ILE188      0.0019
     55  CG2        9.2710   42.9560   38.7840 C.3   188  ILE188      0.0020
     56  CD1        9.7150   41.5110   36.0510 C.3   188  ILE188      0.0001
     57  N          9.7140   38.2970   40.2780 N.am  189  SER189     -0.1938
     58  CA         9.4250   36.8660   40.1920 C.3   189  SER189      0.2055
     59  C          8.0400   36.5910   40.7470 C.2   189  SER189      0.2643
     60  O          7.6670   37.1010   41.8030 O.2   189  SER189     -0.2714
     61  CB        10.4500   36.0320   40.9630 C.3   189  SER189      0.2130
     62  OG        11.7350   36.1360   40.3870 O.3   189  SER189     -0.2179
     63  N          7.2830   35.7740   40.0320 N.am  190  ASP190     -0.1957
     64  CA         5.9300   35.4500   40.4390 C.3   190  ASP190      0.1840
     65  C          5.6870   33.9740   40.1580 C.2   190  ASP190      0.2621
     66  O          5.6010   33.5750   38.9970 O.2   190  ASP190     -0.2715
     67  CB         4.9490   36.3160   39.6510 C.3   190  ASP190      0.1450
     68  CG         3.5240   36.2020   40.1590 C.2   190  ASP190      0.3671
     69  OD1        2.9270   37.2550   40.4870 O.co2 190  ASP190     -0.2456
     70  OD2        2.9980   35.0680   40.2260 O.co2 190  ASP190     -0.2456
     71  N          5.5820   33.1630   41.2100 N.am  191  LYS191     -0.1977
     72  CA         5.4070   31.7190   41.0340 C.3   191  LYS191      0.1596
     73  C          4.1750   31.3760   40.1940 C.2   191  LYS191      0.2287
     74  O          4.2200   30.4800   39.3510 O.2   191  LYS191     -0.2864
     75  CB         5.3310   30.9930   42.3890 C.3   191  LYS191      0.0298
     76  CG         6.5510   31.1920   43.2710 C.3   191  LYS191      0.0038
     77  CD         6.3820   30.5090   44.6280 C.3   191  LYS191      0.0206
     78  CE         6.3570   28.9880   44.4910 C.3   191  LYS191      0.1093
     79  NZ         6.4080   28.2980   45.8200 N.3   191  LYS191     -0.1314
     80  N          2.6070   33.1320   37.8780 N.3   193  ILE193     -0.1231
     81  CA         2.8400   33.4360   36.4670 C.3   193  ILE193      0.1692
     82  C          3.8190   32.4380   35.8620 C.2   193  ILE193      0.2593
     83  O          3.6090   31.9490   34.7470 O.2   193  ILE193     -0.2718
     84  CB         3.3520   34.8650   36.2610 C.3   193  ILE193      0.0266
     85  CG1        2.2640   35.8650   36.6530 C.3   193  ILE193      0.0019
     86  CG2        3.7540   35.0730   34.8040 C.3   193  ILE193      0.0020
     87  CD1        1.0220   35.7820   35.7860 C.3   193  ILE193      0.0001
     88  N          4.8860   32.1430   36.6020 N.am  194  GLY194     -0.1942
     89  CA         5.8780   31.1730   36.1720 C.3   194  GLY194      0.2014
     90  C          5.2720   29.8180   35.8320 C.2   194  GLY194      0.2638
     91  O          5.5240   29.2660   34.7620 O.2   194  GLY194     -0.2714
     92  N          4.4610   29.2770   36.7290 N.am  195  PHE195     -0.1973
     93  CA         3.8170   27.9940   36.4510 C.3   195  PHE195      0.1639
     94  C          2.7840   28.0780   35.3200 C.2   195  PHE195      0.2290
     95  O          2.6100   27.1260   34.5630 O.2   195  PHE195     -0.2864
     96  CB         3.2230   27.3810   37.7210 C.3   195  PHE195      0.0560
     97  CG         4.2620   26.8760   38.6730 C.ar  195  PHE195     -0.0200
     98  CD1        5.1310   25.8660   38.2920 C.ar  195  PHE195     -0.0042
     99  CD2        4.3840   27.4200   39.9410 C.ar  195  PHE195     -0.0042
    100  CE1        6.1020   25.3980   39.1630 C.ar  195  PHE195     -0.0003
    101  CE2        5.3540   26.9600   40.8170 C.ar  195  PHE195     -0.0003
    102  CZ         6.2140   25.9500   40.4270 C.ar  195  PHE195     -0.0000
    103  N          3.2380   29.6800   32.7120 N.3   197  LEU197     -0.1231
    104  CA         4.0740   29.7240   31.5050 C.3   197  LEU197      0.1693
    105  C          4.8970   28.4540   31.2450 C.2   197  LEU197      0.2591
    106  O          5.6320   28.3770   30.2580 O.2   197  LEU197     -0.2718
    107  CB         5.0280   30.9200   31.5790 C.3   197  LEU197      0.0284
    108  CG         4.3750   32.3120   31.6230 C.3   197  LEU197      0.0019
    109  CD1        5.4340   33.4070   31.6900 C.3   197  LEU197      0.0001
    110  CD2        3.4990   32.5120   30.3970 C.3   197  LEU197      0.0001
    111  N          4.7870   27.4690   32.1270 N.am  198  VAL198     -0.1980
    112  CA         5.5430   26.2340   31.9380 C.3   198  VAL198      0.1595
    113  C          5.2760   25.6170   30.5580 C.2   198  VAL198      0.2287
    114  O          6.2130   25.3050   29.8170 O.2   198  VAL198     -0.2864
    115  CB         5.2650   25.2130   33.0710 C.3   198  VAL198      0.0276
    116  CG1        5.8020   23.8390   32.7120 C.3   198  VAL198      0.0022
    117  CG2        5.8870   25.7030   34.3810 C.3   198  VAL198      0.0022
    118  N          4.2120   26.9300   27.8360 N.3   200  PHE200     -0.1227
    119  CA         4.7690   27.7470   26.7590 C.3   200  PHE200      0.1736
    120  C          6.2730   27.5480   26.6490 C.2   200  PHE200      0.2596
    121  O          6.8050   27.3890   25.5550 O.2   200  PHE200     -0.2718
    122  CB         4.4840   29.2410   26.9740 C.3   200  PHE200      0.0547
    123  CG         5.2410   30.1370   26.0210 C.ar  200  PHE200     -0.0202
    124  CD1        4.8230   30.2860   24.7030 C.ar  200  PHE200     -0.0042
    125  CD2        6.3900   30.7970   26.4340 C.ar  200  PHE200     -0.0042
    126  CE1        5.5300   31.0980   23.8170 C.ar  200  PHE200     -0.0003
    127  CE2        7.1010   31.6040   25.5590 C.ar  200  PHE200     -0.0003
    128  CZ         6.6680   31.7580   24.2490 C.ar  200  PHE200     -0.0000
    129  N          6.9570   27.5560   27.7910 N.am  201  GLY201     -0.1957
    130  CA         8.3960   27.3680   27.8080 C.3   201  GLY201      0.1869
    131  C          8.8020   26.0350   27.1780 C.2   201  GLY201      0.2309
    132  O          9.7550   25.9630   26.3980 O.2   201  GLY201     -0.2863
@<TRIPOS>BOND
     1   126   128   ar
     2   126   124   ar
     3   128   127   ar
     4   124   123   ar
     5    20    18   ar
     6    20    22   ar
     7     4     3    2
     8    18    17   ar
     9    22    21   ar
    10   121   120    2
    11   127   125   ar
    12    10    11   ar
    13    10     8   ar
    14    17    16    1
    15    17    19   ar
    16     3     2    1
    17    16    13    1
    18   123   125   ar
    19   123   122    1
    20    21    19   ar
    21    11     9   ar
    22     8     6   ar
    23   132   131    2
    24   120   119    1
    25   120   129   am
    26   119   122    1
    27   119   118    1
    28     9     7   ar
    29    13    12    1
    30    13    14    1
    31   131   130    1
    32     6     7   ar
    33     6     5    1
    34     2     5    1
    35     2     1    1
    36   129   130    1
    37    14    23   am
    38    14    15    2
    39    23    24    1
    40    29    27    1
    41   114   113    2
    42    24    27    1
    43    24    25    1
    44    27    28    1
    45   106   105    2
    46   110   108    1
    47   113   112    1
    48    34    31    1
    49   105   104    1
    50   105   111   am
    51    25    26    2
    52    30    31    1
    53   104   107    1
    54   104   103    1
    55   107   108    1
    56   108   109    1
    57    31    32    1
    58   112   111    1
    59   112   115    1
    60   116   115    1
    61   115   117    1
    62    32    35   am
    63    32    33    2
    64    35    36    1
    65    95    94    2
    66    83    82    2
    67    91    90    2
    68    86    84    1
    69    40    39    1
    70    40    41    1
    71    36    39    1
    72    36    37    1
    73    94    93    1
    74    42    41    1
    75    42    43    1
    76    87    85    1
    77    90    89    1
    78    90    92   am
    79    82    81    1
    80    82    88   am
    81    44    45    1
    82    56    54    1
    83    37    38    2
    84    89    88    1
    85    84    81    1
    86    84    85    1
    87    93    92    1
    88    93    96    1
    89    81    80    1
    90    48    45    1
    91    45    46    1
    92    54    53    1
    93    96    97    1
    94    46    47    2
    95    98    97   ar
    96    98   100   ar
    97    53    55    1
    98    53    50    1
    99    97    99   ar
   100    52    51    2
   101    66    65    2
   102   100   102   ar
   103    74    73    2
   104    51    50    1
   105    51    57   am
   106    67    68    1
   107    67    64    1
   108    50    49    1
   109    99   101   ar
   110    63    64    1
   111    63    59   am
   112    65    64    1
   113    65    71   am
   114    68    70   ar
   115    68    69   ar
   116    58    57    1
   117    58    59    1
   118    58    61    1
   119    73    72    1
   120    62    61    1
   121   102   101   ar
   122    59    60    2
   123    72    71    1
   124    72    75    1
   125    75    76    1
   126    76    77    1
   127    78    77    1
   128    78    79    1
