@<TRIPOS>MOLECULE
tmp/3v5uA01.pdb
 101 94 0 0 0
SMALL
GASTEIGER

@<TRIPOS>ATOM
      1  N         10.5510   16.3400   24.1720 N.3    52  LEU52      -0.1231
      2  CA        11.3780   15.8620   25.2820 C.3    52  LEU52       0.1678
      3  C         11.2720   16.7710   26.5220 C.2    52  LEU52       0.2434
      4  O         11.2010   16.2730   27.6410 O.2    52  LEU52      -0.2733
      5  CB        12.8440   15.7170   24.8590 C.3    52  LEU52       0.0284
      6  CG        13.1140   14.6220   23.8180 C.3    52  LEU52       0.0019
      7  CD1       14.5650   14.6700   23.3460 C.3    52  LEU52       0.0001
      8  CD2       12.7370   13.2400   24.3530 C.3    52  LEU52       0.0001
      9  N         11.2640   18.1000   26.3270 N.am   53  PRO53      -0.2729
     10  CA        11.0100   18.9730   27.4870 C.3    53  PRO53       0.1401
     11  C          9.6730   18.6940   28.1820 C.2    53  PRO53       0.2269
     12  O          9.6450   18.6390   29.4140 O.2    53  PRO53      -0.2865
     13  CB        10.9920   20.3790   26.8770 C.3    53  PRO53       0.0296
     14  CG        11.8120   20.2670   25.6470 C.3    53  PRO53       0.0237
     15  CD        11.5930   18.8700   25.1180 C.3    53  PRO53       0.0939
     16  N          9.9680   15.2230   30.1600 N.3    56  LEU56      -0.1231
     17  CA        10.7830   15.3390   31.3680 C.3    56  LEU56       0.1693
     18  C         10.0810   16.1630   32.4420 C.2    56  LEU56       0.2592
     19  O         10.1060   15.8110   33.6160 O.2    56  LEU56      -0.2718
     20  CB        12.1460   15.9380   31.0230 C.3    56  LEU56       0.0284
     21  CG        13.0180   14.9390   30.2550 C.3    56  LEU56       0.0019
     22  CD1       14.2640   15.5980   29.6840 C.3    56  LEU56       0.0001
     23  CD2       13.3860   13.7600   31.1480 C.3    56  LEU56       0.0001
     24  N          9.4510   17.2640   32.0290 N.am   57  THR57      -0.1953
     25  CA         8.7560   18.1670   32.9490 C.3    57  THR57       0.1897
     26  C          7.5760   17.4790   33.6170 C.2    57  THR57       0.2313
     27  O          7.3620   17.6080   34.8190 O.2    57  THR57      -0.2863
     28  CB         8.2330   19.4240   32.1820 C.3    57  THR57       0.1794
     29  OG1        9.3480   20.1550   31.6660 O.3    57  THR57      -0.2208
     30  CG2        7.4260   20.3420   33.1030 C.3    57  THR57       0.0378
     31  N         20.6730   16.6030   14.3210 N.3   162  ILE162     -0.1245
     32  CA        21.0290   16.4330   15.7220 C.3   162  ILE162      0.1561
     33  C         21.5300   17.7330   16.3680 C.2   162  ILE162      0.2260
     34  O         21.1230   18.0770   17.4840 O.2   162  ILE162     -0.2867
     35  CB        22.0530   15.2920   15.9110 C.3   162  ILE162      0.0252
     36  CG1       21.4380   13.9650   15.4720 C.3   162  ILE162      0.0019
     37  CG2       22.4800   15.1900   17.3660 C.3   162  ILE162      0.0019
     38  CD1       22.4500   12.8420   15.3250 C.3   162  ILE162      0.0001
     39  N         18.6490   20.0160   16.7750 N.3   165  LEU165     -0.1231
     40  CA        17.8150   19.6180   17.9010 C.3   165  LEU165      0.1693
     41  C         18.4650   20.0520   19.2140 C.2   165  LEU165      0.2591
     42  O         17.8130   20.6260   20.0830 O.2   165  LEU165     -0.2718
     43  CB        17.5370   18.1160   17.8920 C.3   165  LEU165      0.0284
     44  CG        16.6930   17.6240   19.0700 C.3   165  LEU165      0.0019
     45  CD1       15.4220   18.4590   19.1870 C.3   165  LEU165      0.0001
     46  CD2       16.3570   16.1530   18.9540 C.3   165  LEU165      0.0001
     47  N         19.7560   19.7850   19.3570 N.am  166  ILE166     -0.1980
     48  CA        20.4990   20.2840   20.5140 C.3   166  ILE166      0.1595
     49  C         20.3410   21.7930   20.6660 C.2   166  ILE166      0.2287
     50  O         20.1010   22.3050   21.7780 O.2   166  ILE166     -0.2864
     51  CB        21.9880   19.9170   20.4250 C.3   166  ILE166      0.0276
     52  CG1       22.1390   18.4000   20.5090 C.3   166  ILE166      0.0022
     53  CG2       22.7710   20.5960   21.5590 C.3   166  ILE166      0.0022
     54  CD1       23.5060   17.8900   20.1150 C.3   166  ILE166      0.0001
     55  N         16.7410   22.7310   21.9010 N.3   169  LEU169     -0.1245
     56  CA        16.4790   22.3080   23.2840 C.3   169  LEU169      0.1561
     57  C         17.3210   23.0810   24.3110 C.2   169  LEU169      0.2260
     58  O         16.8090   23.5400   25.3530 O.2   169  LEU169     -0.2867
     59  CB        16.6700   20.7960   23.4460 C.3   169  LEU169      0.0270
     60  CG        15.6650   19.9150   22.6880 C.3   169  LEU169      0.0019
     61  CD1       15.8740   18.4470   23.0350 C.3   169  LEU169      0.0001
     62  CD2       14.2310   20.3380   22.9920 C.3   169  LEU169      0.0001
     63  N         15.9910   26.7360   24.2050 N.3   172  ALA172     -0.1231
     64  CA        14.7700   26.9470   24.9730 C.3   172  ALA172      0.1694
     65  C         15.0930   27.0130   26.4730 C.2   172  ALA172      0.2591
     66  O         14.5720   27.8630   27.2090 O.2   172  ALA172     -0.2718
     67  CB        13.7630   25.8450   24.6810 C.3   172  ALA172      0.0304
     68  N         15.9680   26.1260   26.9250 N.am  173  GLU173     -0.1979
     69  CA        16.3270   26.0890   28.3430 C.3   173  GLU173      0.1602
     70  C         17.0250   27.3760   28.8020 C.2   173  GLU173      0.2287
     71  O         16.7010   27.9240   29.8630 O.2   173  GLU173     -0.2864
     72  CB        17.1980   24.8630   28.6470 C.3   173  GLU173      0.0415
     73  CG        17.5250   24.7010   30.1160 C.3   173  GLU173      0.1163
     74  CD        16.2750   24.5470   30.9740 C.2   173  GLU173      0.3649
     75  OE1       15.2420   24.0760   30.4460 O.co2 173  GLU173     -0.2457
     76  OE2       16.3230   24.9030   32.1740 O.co2 173  GLU173     -0.2457
     77  N         14.5770   30.3250   28.8630 N.3   176  VAL176     -0.1245
     78  CA        13.7100   30.2420   30.0300 C.3   176  VAL176      0.1561
     79  C         14.4650   30.5500   31.3250 C.2   176  VAL176      0.2260
     80  O         13.9730   31.2890   32.1830 O.2   176  VAL176     -0.2867
     81  CB        13.0460   28.8640   30.1350 C.3   176  VAL176      0.0252
     82  CG1       12.3920   28.6880   31.5100 C.3   176  VAL176      0.0019
     83  CG2       12.0230   28.6880   29.0110 C.3   176  VAL176      0.0019
     84  N          6.9570   27.5560   27.7910 N.3   201  GLY201     -0.1210
     85  CA         8.3960   27.3680   27.8080 C.3   201  GLY201      0.1956
     86  C          8.8020   26.0350   27.1780 C.2   201  GLY201      0.2612
     87  O          9.7550   25.9630   26.3980 O.2   201  GLY201     -0.2717
     88  N          8.0850   24.9700   27.4990 N.am  202  THR202     -0.1952
     89  CA         8.4480   23.6870   26.9080 C.3   202  THR202      0.1897
     90  C          8.0480   23.6200   25.4270 C.2   202  THR202      0.2313
     91  O          8.5810   22.8090   24.7010 O.2   202  THR202     -0.2863
     92  CB         7.9100   22.4840   27.7060 C.3   202  THR202      0.1794
     93  OG1        6.4930   22.5840   27.8290 O.3   202  THR202     -0.2208
     94  CG2        8.5170   22.4340   29.1190 C.3   202  THR202      0.0378
     95  N         10.5560   24.9730   21.5430 N.3   205  PRO205     -0.2116
     96  CA        11.0440   24.2240   20.3740 C.3   205  PRO205      0.1372
     97  C          9.9820   24.0470   19.2730 C.2   205  PRO205      0.2244
     98  O         10.2970   24.3190   18.1200 O.2   205  PRO205     -0.2868
     99  CB        11.4470   22.8660   20.9690 C.3   205  PRO205      0.0268
    100  CG        11.8480   23.2070   22.3880 C.3   205  PRO205      0.0207
    101  CD        10.8230   24.2650   22.8020 C.3   205  PRO205      0.0892
@<TRIPOS>BOND
     1    31    32    1
     2    38    36    1
     3    36    35    1
     4    32    35    1
     5    32    33    1
     6    35    37    1
     7    33    34    2
     8    39    40    1
     9    43    40    1
    10    43    44    1
    11    40    41    1
    12    98    97    2
    13    46    44    1
    14    44    45    1
    15    41    47   am
    16    41    42    2
    17    97    96    1
    18    47    48    1
    19    54    52    1
    20    96    99    1
    21    96    95    1
    22    51    52    1
    23    51    48    1
    24    51    53    1
    25    48    49    1
    26    49    50    2
    27    99   100    1
    28    95   101    1
    29    55    56    1
    30   100   101    1
    31    60    62    1
    32    60    61    1
    33    60    59    1
    34    56    59    1
    35    56    57    1
    36     7     6    1
    37     6     8    1
    38     6     5    1
    39     1     2    1
    40    63    64    1
    41    57    58    2
    42    67    64    1
    43    91    90    2
    44     5     2    1
    45    64    65    1
    46    15    14    1
    47    15     9    1
    48     2     3    1
    49    90    89    1
    50    14    13    1
    51     9     3   am
    52     9    10    1
    53    87    86    2
    54    65    68   am
    55    65    66    2
    56     3     4    2
    57    13    10    1
    58    89    88    1
    59    89    92    1
    60    68    69    1
    61    86    88   am
    62    86    85    1
    63    10    11    1
    64    92    93    1
    65    92    94    1
    66    84    85    1
    67    11    12    2
    68    69    72    1
    69    69    70    1
    70    72    73    1
    71    70    71    2
    72    77    78    1
    73    83    81    1
    74    22    21    1
    75    78    81    1
    76    78    79    1
    77    73    74    1
    78    81    82    1
    79    16    17    1
    80    21    20    1
    81    21    23    1
    82    75    74   ar
    83    74    76   ar
    84    20    17    1
    85    79    80    2
    86    17    18    1
    87    29    28    1
    88    24    18   am
    89    24    25    1
    90    28    25    1
    91    28    30    1
    92    18    19    2
    93    25    26    1
    94    26    27    2
