@<TRIPOS>MOLECULE
tmp/3v5vB00.pdb
 118 112 0 0 0
SMALL
GASTEIGER

@<TRIPOS>ATOM
      1  N          3.2090   -1.4360   34.7900 N.3    23  ASN23      -0.1240
      2  CA         4.0040   -2.2580   33.9010 C.3    23  ASN23       0.1653
      3  C          3.8720   -3.7780   33.8980 C.2    23  ASN23       0.2266
      4  O          4.5620   -4.4780   33.1410 O.2    23  ASN23      -0.2867
      5  CB         5.3870   -1.6880   33.6090 C.3    23  ASN23       0.1155
      6  CG         5.3350   -0.2390   33.1250 C.2    23  ASN23       0.2627
      7  OD1        4.6330    0.0890   32.1600 O.2    23  ASN23      -0.2716
      8  ND2        6.0810    0.6330   33.7960 N.am   23  ASN23      -0.0877
      9  N          1.0450   -5.7440   30.3830 N.3    27  PRO27      -0.2116
     10  CA         1.2650   -6.9950   29.6610 C.3    27  PRO27       0.1372
     11  C          0.2260   -8.0490   30.0200 C.2    27  PRO27       0.2244
     12  O         -0.1860   -8.8230   29.1550 O.2    27  PRO27      -0.2868
     13  CB         2.6800   -7.3800   30.0710 C.3    27  PRO27       0.0268
     14  CG         2.8090   -6.7810   31.4290 C.3    27  PRO27       0.0207
     15  CD         2.1890   -5.4310   31.2520 C.3    27  PRO27       0.0892
     16  N          2.5310    2.8330   23.2280 N.3    90  ARG90      -0.1231
     17  CA         3.3980    1.8090   22.6530 C.3    90  ARG90       0.1694
     18  C          3.1530    0.3730   23.0720 C.2    90  ARG90       0.2591
     19  O          3.3580   -0.5490   22.2890 O.2    90  ARG90      -0.2718
     20  CB         4.8710    2.1950   22.5550 C.3    90  ARG90       0.0321
     21  CG         5.1180    3.5040   21.8170 C.3    90  ARG90       0.0489
     22  CD         4.2270    3.6240   20.5680 C.3    90  ARG90       0.2205
     23  NE         4.3480    4.9270   19.9080 N.pl3  90  ARG90      -0.0865
     24  CZ         4.1260    6.1060   20.4950 C.cat  90  ARG90       0.5346
     25  NH1        3.7620    6.1760   21.7750 N.pl3  90  ARG90       0.1354
     26  NH2        4.2740    7.2240   19.7960 N.pl3  90  ARG90       0.1354
     27  N          2.7090    0.1980   24.3130 N.am   91  ALA91      -0.1980
     28  CA         2.4290   -1.1220   24.8680 C.3    91  ALA91       0.1597
     29  C          1.3930   -1.8960   24.0280 C.2    91  ALA91       0.2287
     30  O          1.2900   -3.1330   24.1100 O.2    91  ALA91      -0.2864
     31  CB         1.9470   -0.9770   26.3120 C.3    91  ALA91       0.0319
     32  N          1.4460   -2.8650   21.2170 N.3    93  ILE93      -0.1231
     33  CA         2.0480   -3.8860   20.3820 C.3    93  ILE93       0.1692
     34  C          1.7470   -5.2440   21.0140 C.2    93  ILE93       0.2592
     35  O          1.7700   -6.2580   20.3360 O.2    93  ILE93      -0.2718
     36  CB         3.5740   -3.6870   20.2820 C.3    93  ILE93       0.0266
     37  CG1        4.1840   -4.7300   19.3480 C.3    93  ILE93       0.0019
     38  CG2        4.1970   -3.8080   21.6590 C.3    93  ILE93       0.0020
     39  CD1        3.5240   -4.7890   18.0120 C.3    93  ILE93       0.0001
     40  N          1.4640   -5.2490   22.3150 N.am   94  TRP94      -0.1976
     41  CA         1.1450   -6.4770   23.0520 C.3    94  TRP94       0.1640
     42  C         -0.1100   -7.2260   22.6190 C.2    94  TRP94       0.2290
     43  O         -0.3290   -8.3680   22.9900 O.2    94  TRP94      -0.2864
     44  CB         1.2860   -6.3570   24.5680 C.3    94  TRP94       0.0576
     45  CG         2.7050   -6.3330   25.0840 C.ar   94  TRP94       0.0006
     46  CD1        3.7470   -7.0900   24.6440 C.ar   94  TRP94       0.0946
     47  CD2        3.1920   -5.6070   26.2220 C.ar   94  TRP94       0.0152
     48  NE1        4.8530   -6.8910   25.4390 N.ar   94  TRP94      -0.2442
     49  CE2        4.5370   -5.9890   26.4180 C.ar   94  TRP94       0.0810
     50  CE3        2.6180   -4.6770   27.0990 C.ar   94  TRP94       0.0012
     51  CZ2        5.3170   -5.4790   27.4590 C.ar   94  TRP94       0.0191
     52  CZ3        3.3940   -4.1680   28.1320 C.ar   94  TRP94       0.0001
     53  CH2        4.7290   -4.5720   28.3030 C.ar   94  TRP94       0.0015
     54  N          9.7880   -7.9810   18.5030 N.3   124  HIS124     -0.1241
     55  CA         8.4570   -8.5700   18.5220 C.3   124  HIS124      0.1621
     56  C          8.2560   -9.3010   17.1870 C.2   124  HIS124      0.2264
     57  O          7.9280  -10.4840   17.1510 O.2   124  HIS124     -0.2867
     58  CB         7.3550   -7.5430   18.7670 C.3   124  HIS124      0.0745
     59  CG         7.4770   -6.7990   20.0610 C.ar  124  HIS124      0.0817
     60  ND1        6.6920   -7.0820   21.1570 N.ar  124  HIS124     -0.2268
     61  CD2        8.2290   -5.7280   20.4060 C.ar  124  HIS124      0.1154
     62  CE1        6.9470   -6.2110   22.1150 C.ar  124  HIS124      0.1986
     63  NE2        7.8750   -5.3780   21.6840 N.ar  124  HIS124     -0.2212
     64  N         12.2530   -6.4060   27.3970 N.3   162  VAL162     -0.1231
     65  CA        11.0490   -6.6880   28.1550 C.3   162  VAL162      0.1692
     66  C          9.8510   -6.8080   27.2180 C.2   162  VAL162      0.2592
     67  O          8.9590   -7.6300   27.4370 O.2   162  VAL162     -0.2718
     68  CB        10.7590   -5.5960   29.2050 C.3   162  VAL162      0.0266
     69  CG1        9.4010   -5.8260   29.8090 C.3   162  VAL162      0.0020
     70  CG2       11.8140   -5.6230   30.2970 C.3   162  VAL162      0.0020
     71  N          9.8560   -5.9930   26.1670 N.am  163  GLY163     -0.1957
     72  CA         8.7750   -6.0020   25.2020 C.3   163  GLY163      0.1869
     73  C          8.7210   -7.3150   24.4630 C.2   163  GLY163      0.2309
     74  O          7.7610   -8.0780   24.6310 O.2   163  GLY163     -0.2863
     75  N          7.9390  -10.5200   26.4720 N.3   166  VAL166     -0.1245
     76  CA         6.5200  -10.7140   26.7970 C.3   166  VAL166      0.1561
     77  C          5.7200  -11.2010   25.5810 C.2   166  VAL166      0.2260
     78  O          4.9060  -12.1190   25.6800 O.2   166  VAL166     -0.2867
     79  CB         5.9040   -9.4010   27.3680 C.3   166  VAL166      0.0252
     80  CG1        4.4170   -9.5470   27.5720 C.3   166  VAL166      0.0019
     81  CG2        6.5730   -9.0690   28.6930 C.3   166  VAL166      0.0019
     82  N         12.8860   -8.8340   34.5120 N.3   187  GLU187     -0.1245
     83  CA        11.9440   -7.9920   35.2620 C.3   187  GLU187      0.1567
     84  C         10.8120   -8.6380   36.0680 C.2   187  GLU187      0.2260
     85  O         10.1520   -9.5640   35.5920 O.2   187  GLU187     -0.2867
     86  CB        11.5160   -6.7040   34.5350 C.3   187  GLU187      0.0388
     87  CG        12.4930   -5.5440   34.5790 C.3   187  GLU187      0.1160
     88  CD        13.6250   -5.6550   33.5630 C.2   187  GLU187      0.3649
     89  OE1       14.4470   -4.7040   33.4890 O.co2 187  GLU187     -0.2457
     90  OE2       13.6980   -6.6780   32.8410 O.co2 187  GLU187     -0.2457
     91  N          8.0660   -7.6960   36.5080 N.3   189  GLU189     -0.1231
     92  CA         6.9100   -7.5660   35.6330 C.3   189  GLU189      0.1699
     93  C          6.7150   -8.7830   34.7010 C.2   189  GLU189      0.2592
     94  O          5.5850   -9.2010   34.4200 O.2   189  GLU189     -0.2718
     95  CB         6.8520   -6.2160   34.9230 C.3   189  GLU189      0.0402
     96  CG         6.7500   -4.9880   35.8440 C.3   189  GLU189      0.1161
     97  CD         8.0200   -4.7020   36.6540 C.2   189  GLU189      0.3649
     98  OE1        9.1400   -4.8030   36.0980 O.co2 189  GLU189     -0.2457
     99  OE2        7.8940   -4.3530   37.8480 O.co2 189  GLU189     -0.2457
    100  N          7.8270   -9.3430   34.2310 N.am  190  ILE190     -0.1980
    101  CA         7.8000  -10.5050   33.3560 C.3   190  ILE190      0.1595
    102  C          7.4380  -11.7490   34.1710 C.2   190  ILE190      0.2287
    103  O          6.7090  -12.6120   33.7080 O.2   190  ILE190     -0.2864
    104  CB         9.1620  -10.6800   32.6500 C.3   190  ILE190      0.0276
    105  CG1        9.2760   -9.6300   31.5500 C.3   190  ILE190      0.0022
    106  CG2        9.3040  -12.0790   32.1000 C.3   190  ILE190      0.0022
    107  CD1       10.5800   -9.6190   30.8460 C.3   190  ILE190      0.0001
    108  N          7.0780   -1.6470   42.3100 N.3   231  ARG231     -0.1245
    109  CA         8.3870   -1.5040   42.9460 C.3   231  ARG231      0.1563
    110  C          8.9660   -0.0960   42.9660 C.2   231  ARG231      0.2260
    111  O          9.6020    0.3140   43.9350 O.2   231  ARG231     -0.2867
    112  CB         9.3980   -2.5620   42.5300 C.3   231  ARG231      0.0307
    113  CG         9.7890   -2.4780   41.0710 C.3   231  ARG231      0.0489
    114  CD        10.4790   -3.7410   40.6380 C.3   231  ARG231      0.2205
    115  NE        10.5310   -3.8340   39.1900 N.pl3 231  ARG231     -0.0865
    116  CZ        11.4490   -3.2430   38.4390 C.cat 231  ARG231      0.5346
    117  NH1       12.3990   -2.5170   39.0090 N.pl3 231  ARG231      0.1354
    118  NH2       11.4090   -3.3690   37.1180 N.pl3 231  ARG231      0.1354
@<TRIPOS>BOND
     1    57    56    2
     2    56    55    1
     3    39    37    1
     4    54    55    1
     5    55    58    1
     6    58    59    1
     7    37    36    1
     8    26    24    1
     9    23    24    2
    10    23    22    1
    11    59    61   ar
    12    59    60   ar
    13    36    33    1
    14    36    38    1
    15    35    34    2
    16    33    34    1
    17    33    32    1
    18    61    63   ar
    19    24    25    1
    20    22    21    1
    21    34    40   am
    22    60    62   ar
    23    63    62   ar
    24    21    20    1
    25    19    18    2
    26    40    41    1
    27    20    17    1
    28    42    43    2
    29    42    41    1
    30    17    18    1
    31    17    16    1
    32    41    44    1
    33    18    27   am
    34    29    30    2
    35    29    28    1
    36    27    28    1
    37    73    74    2
    38    73    72    1
    39    44    45    1
    40    46    45   ar
    41    46    48   ar
    42    28    31    1
    43    45    47   ar
    44    72    71    1
    45    48    49   ar
    46    77    78    2
    47    77    76    1
    48    71    66   am
    49    47    49   ar
    50    47    50   ar
    51    49    51   ar
    52    75    76    1
    53    76    79    1
    54    50    52   ar
    55    66    67    2
    56    66    65    1
    57    79    80    1
    58    79    81    1
    59    64    65    1
    60    51    53   ar
    61    52    53   ar
    62    65    68    1
    63    12    11    2
    64    68    69    1
    65    68    70    1
    66    10    11    1
    67    10    13    1
    68    10     9    1
    69    13    14    1
    70     9    15    1
    71   107   105    1
    72    15    14    1
    73   105   104    1
    74   106   104    1
    75     7     6    2
    76   104   101    1
    77    90    88   ar
    78     6     5    1
    79     6     8   am
    80     4     3    2
    81   101   102    1
    82   101   100    1
    83    89    88   ar
    84    88    87    1
    85     5     2    1
    86   103   102    2
    87     3     2    1
    88     2     1    1
    89   100    93   am
    90    94    93    2
    91    82    83    1
    92    86    87    1
    93    86    83    1
    94    93    92    1
    95    95    92    1
    96    95    96    1
    97    83    84    1
    98    85    84    2
    99    92    91    1
   100    96    97    1
   101    98    97   ar
   102    97    99   ar
   103   118   116    1
   104   116   117    1
   105   116   115    2
   106   115   114    1
   107   114   113    1
   108   113   112    1
   109   108   109    1
   110   112   109    1
   111   109   110    1
   112   110   111    2
