@<TRIPOS>MOLECULE
tmp/3v5vC00.pdb
 83 82 0 0 0
SMALL
GASTEIGER

@<TRIPOS>ATOM
      1  N         40.4380   27.7670   17.0470 N.3   231  ARG231     -0.1245
      2  CA        39.6050   26.9840   16.1410 C.3   231  ARG231      0.1563
      3  C         38.1070   26.9460   16.4350 C.2   231  ARG231      0.2260
      4  O         37.2940   27.1140   15.5250 O.2   231  ARG231     -0.2867
      5  CB        40.1890   25.6160   15.7930 C.3   231  ARG231      0.0307
      6  CG        40.0740   24.5770   16.8990 C.3   231  ARG231      0.0489
      7  CD        41.2020   23.5630   16.7960 C.3   231  ARG231      0.2205
      8  NE        41.3570   22.7460   17.9990 N.pl3 231  ARG231     -0.0865
      9  CZ        40.5840   21.7090   18.3160 C.cat 231  ARG231      0.5346
     10  NH1       39.5790   21.3440   17.5170 N.pl3 231  ARG231      0.1354
     11  NH2       40.8260   21.0240   19.4310 N.pl3 231  ARG231      0.1354
     12  N         43.4530   25.3690    8.1570 N.3   256  ASP256     -0.1225
     13  CA        43.8490   23.9750    8.3270 C.3   256  ASP256      0.1805
     14  C         43.4430   23.2300    9.6190 C.2   256  ASP256      0.2598
     15  O         43.4790   22.0000    9.6630 O.2   256  ASP256     -0.2718
     16  CB        45.2550   23.6640    7.8100 C.3   256  ASP256      0.1424
     17  CG        46.3430   24.0950    8.7830 C.2   256  ASP256      0.3668
     18  OD1       47.5410   23.9570    8.4430 O.co2 256  ASP256     -0.2456
     19  OD2       46.0010   24.5630    9.8970 O.co2 256  ASP256     -0.2456
     20  N         43.0740   23.9830   10.6570 N.am  257  THR257     -0.1939
     21  CA        42.6400   23.4210   11.9400 C.3   257  THR257      0.2028
     22  C         41.1100   23.2740   11.9450 C.2   257  THR257      0.2642
     23  O         40.5110   22.8240   12.9290 O.2   257  THR257     -0.2714
     24  CB        43.0270   24.3470   13.1220 C.3   257  THR257      0.1808
     25  OG1       42.2730   25.5620   13.0410 O.3   257  THR257     -0.2208
     26  CG2       44.5220   24.6840   13.0990 C.3   257  THR257      0.0379
     27  N         40.4970   23.6480   10.8250 N.am  258  LEU258     -0.1963
     28  CA        39.0570   23.6100   10.6510 C.3   258  LEU258      0.1728
     29  C         38.4680   22.7740    9.5220 C.2   258  LEU258      0.2616
     30  O         37.2830   22.9230    9.1960 O.2   258  LEU258     -0.2715
     31  CB        38.4120   24.9820   10.7490 C.3   258  LEU258      0.0311
     32  CG        38.3850   25.6080   12.1330 C.3   258  LEU258      0.0022
     33  CD1       37.8560   27.0350   12.0220 C.3   258  LEU258      0.0001
     34  CD2       37.5200   24.7490   13.0610 C.3   258  LEU258      0.0001
     35  N         39.2800   21.9130    8.9150 N.am  259  ASP259     -0.1957
     36  CA        38.7990   21.0730    7.8230 C.3   259  ASP259      0.1840
     37  C         37.3640   20.5180    7.8920 C.2   259  ASP259      0.2622
     38  O         36.5650   20.7060    6.9630 O.2   259  ASP259     -0.2715
     39  CB        39.8430   20.0910    7.2730 C.3   259  ASP259      0.1450
     40  CG        41.1990   20.7530    7.0040 C.2   259  ASP259      0.3671
     41  OD1       41.2140   21.9120    6.5370 O.co2 259  ASP259     -0.2456
     42  OD2       42.2540   20.1170    7.2450 O.co2 259  ASP259     -0.2456
     43  N         37.0410   19.8610    9.0060 N.am  260  ALA260     -0.1963
     44  CA        35.7390   19.2400    9.2000 C.3   260  ALA260      0.1728
     45  C         34.5930   20.2000    9.3830 C.2   260  ALA260      0.2616
     46  O         33.4900   19.9300    8.9090 O.2   260  ALA260     -0.2715
     47  CB        35.7900   18.2780   10.3610 C.3   260  ALA260      0.0334
     48  N         34.8330   21.3090   10.0800 N.am  261  VAL261     -0.1977
     49  CA        33.7820   22.3050   10.2810 C.3   261  VAL261      0.1596
     50  C         33.4710   22.9930    8.9400 C.2   261  VAL261      0.2287
     51  O         32.3020   23.2760    8.6390 O.2   261  VAL261     -0.2864
     52  CB        34.1820   23.3530   11.3670 C.3   261  VAL261      0.0276
     53  CG1       33.2970   24.5910   11.2680 C.3   261  VAL261      0.0022
     54  CG2       34.0300   22.7350   12.7660 C.3   261  VAL261      0.0022
     55  N         39.8330   14.4950   16.7610 N.3   298  HIS298     -0.1227
     56  CA        40.4980   15.3290   15.7630 C.3   298  HIS298      0.1737
     57  C         41.2440   14.3740   14.8330 C.2   298  HIS298      0.2438
     58  O         41.7950   13.3760   15.2890 O.2   298  HIS298     -0.2733
     59  CB        41.4210   16.3520   16.4240 C.3   298  HIS298      0.0758
     60  CG        42.0910   17.2870   15.4690 C.ar  298  HIS298      0.0818
     61  ND1       41.4260   18.3300   14.8570 N.ar  298  HIS298     -0.2268
     62  CD2       43.3740   17.3570   15.0460 C.ar  298  HIS298      0.1154
     63  CE1       42.2750   19.0030   14.1010 C.ar  298  HIS298      0.1986
     64  NE2       43.4640   18.4350   14.1980 N.ar  298  HIS298     -0.2212
     65  N         41.3170   14.6800   13.5320 N.am  299  PRO299     -0.2718
     66  CA        40.7710   15.8470   12.8290 C.3   299  PRO299      0.1535
     67  C         39.3200   15.7570   12.3900 C.2   299  PRO299      0.2598
     68  O         38.9060   16.5170   11.5230 O.2   299  PRO299     -0.2715
     69  CB        41.7080   15.9850   11.6360 C.3   299  PRO299      0.0310
     70  CG        41.9690   14.5210   11.2780 C.3   299  PRO299      0.0237
     71  CD        42.1800   13.8770   12.6390 C.3   299  PRO299      0.0939
     72  N         38.5510   14.8330   12.9540 N.am  300  ALA300     -0.1978
     73  CA        37.1420   14.7200   12.5790 C.3   300  ALA300      0.1597
     74  C         36.3550   15.8680   13.2290 C.2   300  ALA300      0.2287
     75  O         36.9400   16.7360   13.8820 O.2   300  ALA300     -0.2864
     76  CB        36.5910   13.3800   13.0290 C.3   300  ALA300      0.0319
     77  N         34.8260   18.3290   15.5650 N.3   302  PRO302     -0.2116
     78  CA        35.0750   18.6140   16.9800 C.3   302  PRO302      0.1372
     79  C         33.8250   18.6580   17.8540 C.2   302  PRO302      0.2244
     80  O         32.8550   19.3730   17.5750 O.2   302  PRO302     -0.2868
     81  CB        35.7890   19.9520   16.9260 C.3   302  PRO302      0.0268
     82  CG        35.0300   20.6390   15.8500 C.3   302  PRO302      0.0207
     83  CD        34.9020   19.5690   14.7730 C.3   302  PRO302      0.0892
@<TRIPOS>BOND
     1    41    40   ar
     2    38    37    2
     3    40    42   ar
     4    40    39    1
     5    39    36    1
     6    16    13    1
     7    16    17    1
     8    36    37    1
     9    36    35    1
    10    37    43   am
    11    12    13    1
    12    13    14    1
    13    18    17   ar
    14    51    50    2
    15    17    19   ar
    16    46    45    2
    17    35    29   am
    18    50    49    1
    19    43    44    1
    20    30    29    2
    21    44    45    1
    22    44    47    1
    23    45    48   am
    24    29    28    1
    25    14    15    2
    26    14    20   am
    27    48    49    1
    28    49    52    1
    29    28    31    1
    30    28    27    1
    31    20    21    1
    32    31    32    1
    33    27    22   am
    34    53    52    1
    35    70    69    1
    36    70    71    1
    37    52    54    1
    38    68    67    2
    39    69    66    1
    40    21    22    1
    41    21    24    1
    42    22    23    2
    43    33    32    1
    44    32    34    1
    45    67    66    1
    46    67    72   am
    47    73    72    1
    48    73    76    1
    49    73    74    1
    50    71    65    1
    51    66    65    1
    52    25    24    1
    53    26    24    1
    54    74    75    2
    55    65    57   am
    56    63    64   ar
    57    63    61   ar
    58    64    62   ar
    59    83    77    1
    60    83    82    1
    61    57    58    2
    62    57    56    1
    63    61    60   ar
    64    62    60   ar
    65    60    59    1
    66     4     3    2
    67    77    78    1
    68    56    59    1
    69    56    55    1
    70     5     2    1
    71     5     6    1
    72    82    81    1
    73     2     3    1
    74     2     1    1
    75     7     6    1
    76     7     8    1
    77    81    78    1
    78    78    79    1
    79    10     9    1
    80    80    79    2
    81     8     9    2
    82     9    11    1
