@<TRIPOS>MOLECULE
tmp/3v5wA00.pdb
 176 165 0 0 0
SMALL
GASTEIGER

@<TRIPOS>ATOM
      1  N         22.5210   -7.7580   50.9230 N.3   168  ILE168     -0.1231
      2  CA        22.0840   -7.7540   52.3250 C.3   168  ILE168      0.1692
      3  C         21.1780   -8.9410   52.6640 C.2   168  ILE168      0.2593
      4  O         20.6020   -8.9910   53.7410 O.2   168  ILE168     -0.2718
      5  CB        21.3920   -6.4160   52.7220 C.3   168  ILE168      0.0266
      6  CG1       20.1530   -6.1140   51.8640 C.3   168  ILE168      0.0019
      7  CG2       22.3620   -5.2490   52.6150 C.3   168  ILE168      0.0020
      8  CD1       19.4080   -4.8760   52.3080 C.3   168  ILE168      0.0001
      9  N         21.0670   -9.9080   51.7620 N.am  169  GLY169     -0.1942
     10  CA        20.2830  -11.1030   52.0360 C.3   169  GLY169      0.2014
     11  C         20.4170  -12.0990   50.9120 C.2   169  GLY169      0.2639
     12  O         20.7180  -11.7160   49.7890 O.2   169  GLY169     -0.2714
     13  N         20.2050  -13.3790   51.2060 N.am  170  ARG170     -0.1963
     14  CA        20.2330  -14.4200   50.1720 C.3   170  ARG170      0.1729
     15  C         19.2230  -15.5150   50.4410 C.2   170  ARG170      0.2617
     16  O         19.1170  -16.0180   51.5560 O.2   170  ARG170     -0.2715
     17  CB        21.6090  -15.0600   50.0680 C.3   170  ARG170      0.0348
     18  CG        22.6980  -14.1650   49.5040 C.3   170  ARG170      0.0492
     19  CD        24.0430  -14.8730   49.5820 C.3   170  ARG170      0.2205
     20  NE        25.1000  -13.9920   50.0920 N.pl3 170  ARG170     -0.0865
     21  CZ        26.0860  -13.4650   49.3620 C.cat 170  ARG170      0.5346
     22  NH1       26.1980  -13.7160   48.0540 N.pl3 170  ARG170      0.1354
     23  NH2       26.9770  -12.6760   49.9530 N.pl3 170  ARG170      0.1354
     24  N         18.5010  -15.8960   49.3940 N.am  171  GLY171     -0.1940
     25  CA        17.4730  -16.9110   49.4990 C.3   171  GLY171      0.2014
     26  C         17.5010  -17.8130   48.2950 C.2   171  GLY171      0.2639
     27  O         18.3980  -17.7200   47.4470 O.2   171  GLY171     -0.2714
     28  N         16.5020  -18.6870   48.2240 N.am  172  GLY172     -0.1939
     29  CA        16.3950  -19.6720   47.1550 C.3   172  GLY172      0.2014
     30  C         16.2250  -19.0730   45.7760 C.2   172  GLY172      0.2639
     31  O         16.7810  -19.5980   44.8110 O.2   172  GLY172     -0.2714
     32  N         15.4670  -17.9790   45.6720 N.am  173  PHE173     -0.1959
     33  CA        15.1470  -17.3960   44.3610 C.3   173  PHE173      0.1774
     34  C         15.9760  -16.1740   43.9740 C.2   173  PHE173      0.2659
     35  O         16.0860  -15.8500   42.7960 O.2   173  PHE173     -0.2711
     36  CB        13.6570  -17.0910   44.2770 C.3   173  PHE173      0.0574
     37  CG        12.8030  -18.3180   44.3320 C.ar  173  PHE173     -0.0200
     38  CD1       12.4140  -18.9630   43.1680 C.ar  173  PHE173     -0.0042
     39  CD2       12.4200  -18.8540   45.5550 C.ar  173  PHE173     -0.0042
     40  CE1       11.6320  -20.1090   43.2200 C.ar  173  PHE173     -0.0003
     41  CE2       11.6400  -20.0010   45.6150 C.ar  173  PHE173     -0.0003
     42  CZ        11.2450  -20.6300   44.4440 C.ar  173  PHE173     -0.0000
     43  N         16.5660  -15.4950   44.9470 N.am  174  GLY174     -0.1716
     44  CA        17.4510  -14.3920   44.6200 C.2   174  GLY174      0.1480
     45  C         18.1500  -13.7600   45.8020 C.2   174  GLY174      0.2820
     46  O         18.3480  -14.3950   46.8380 O.2   174  GLY174     -0.2669
     47  N         18.5200  -12.4950   45.6200 N.am  175  GLU175     -0.1929
     48  CA        19.2470  -11.7330   46.6160 C.3   175  GLU175      0.1736
     49  C         18.6440  -10.3550   46.8370 C.2   175  GLU175      0.2616
     50  O         17.9290   -9.8360   45.9970 O.2   175  GLU175     -0.2715
     51  CB        20.7380  -11.5970   46.2570 C.3   175  GLU175      0.0429
     52  CG        21.0980  -11.6870   44.7820 C.3   175  GLU175      0.1163
     53  CD        21.2290  -13.1190   44.2860 C.2   175  GLU175      0.3649
     54  OE1       21.6930  -13.9910   45.0590 O.co2 175  GLU175     -0.2457
     55  OE2       20.8680  -13.3700   43.1170 O.co2 175  GLU175     -0.2457
     56  N         18.9590   -9.7930   48.0000 N.am  176  VAL176     -0.1977
     57  CA        18.5550   -8.4640   48.4010 C.3   176  VAL176      0.1596
     58  C         19.7890   -7.5620   48.3870 C.2   176  VAL176      0.2287
     59  O         20.8490   -7.9680   48.8340 O.2   176  VAL176     -0.2864
     60  CB        17.9380   -8.4990   49.8180 C.3   176  VAL176      0.0276
     61  CG1       17.2420   -7.1790   50.1300 C.3   176  VAL176      0.0022
     62  CG2       16.9680   -9.6730   49.9510 C.3   176  VAL176      0.0022
     63  N         15.8850   -1.2280   50.0370 N.3   189  ALA189     -0.1245
     64  CA        16.3200   -2.5830   49.7190 C.3   189  ALA189      0.1562
     65  C         15.7360   -3.0000   48.3680 C.2   189  ALA189      0.2260
     66  O         14.5620   -2.7470   48.0960 O.2   189  ALA189     -0.2867
     67  CB        15.8720   -3.5480   50.8010 C.3   189  ALA189      0.0290
     68  N         15.0370   -6.3900   46.2920 N.3   191  LYS191     -0.1245
     69  CA        14.9790   -7.8480   46.2950 C.3   191  LYS191      0.1561
     70  C         14.8220   -8.3630   44.8720 C.2   191  LYS191      0.2260
     71  O         13.7170   -8.3490   44.3430 O.2   191  LYS191     -0.2867
     72  CB        13.7960   -8.2900   47.1520 C.3   191  LYS191      0.0271
     73  CG        13.5050   -9.7780   47.1820 C.3   191  LYS191      0.0035
     74  CD        12.6620  -10.1040   48.4070 C.3   191  LYS191      0.0206
     75  CE        12.1320  -11.5310   48.4030 C.3   191  LYS191      0.1093
     76  NZ        11.5230  -11.8590   49.7260 N.3   191  LYS191     -0.1314
     77  N         14.5320  -11.2640   42.4530 N.3   193  LEU193     -0.1245
     78  CA        14.2750  -12.6810   42.2430 C.3   193  LEU193      0.1561
     79  C         14.5920  -13.0520   40.7930 C.2   193  LEU193      0.2260
     80  O         14.2570  -12.3100   39.8680 O.2   193  LEU193     -0.2867
     81  CB        12.8210  -13.0290   42.5700 C.3   193  LEU193      0.0270
     82  CG        12.2950  -12.7200   43.9710 C.3   193  LEU193      0.0019
     83  CD1       10.8980  -13.3030   44.1190 C.3   193  LEU193      0.0001
     84  CD2       13.2210  -13.2580   45.0560 C.3   193  LEU193      0.0001
     85  N          8.2530   -5.1340   56.4340 N.3   226  VAL226     -0.1245
     86  CA         9.0310   -4.6680   55.3000 C.3   226  VAL226      0.1561
     87  C          8.0840   -4.4840   54.1190 C.2   226  VAL226      0.2260
     88  O          7.6880   -5.4570   53.4740 O.2   226  VAL226     -0.2867
     89  CB        10.1320   -5.6680   54.9080 C.3   226  VAL226      0.0252
     90  CG1       10.8460   -5.2040   53.6450 C.3   226  VAL226      0.0019
     91  CG2       11.1100   -5.8660   56.0640 C.3   226  VAL226      0.0019
     92  N         11.8900   -2.3180   48.5500 N.3   242  LEU242     -0.1231
     93  CA        11.3600   -2.4310   49.9200 C.3   242  LEU242      0.1693
     94  C         12.1270   -1.6040   50.9720 C.2   242  LEU242      0.2592
     95  O         13.1860   -1.0510   50.7120 O.2   242  LEU242     -0.2718
     96  CB        11.4020   -3.9020   50.3580 C.3   242  LEU242      0.0284
     97  CG        10.9530   -4.9920   49.3900 C.3   242  LEU242      0.0019
     98  CD1       11.6180   -6.3080   49.7630 C.3   242  LEU242      0.0001
     99  CD2        9.4400   -5.1260   49.3800 C.3   242  LEU242      0.0001
    100  N         11.5760   -1.5650   52.1780 N.am  243  ASP243     -0.1974
    101  CA        12.2410   -0.9810   53.3610 C.3   243  ASP243      0.1709
    102  C         13.6200   -1.5950   53.5870 C.2   243  ASP243      0.2293
    103  O         13.7350   -2.8060   53.6900 O.2   243  ASP243     -0.2864
    104  CB        11.4090   -1.2360   54.6260 C.3   243  ASP243      0.1436
    105  CG        10.0900   -0.4750   54.6360 C.2   243  ASP243      0.3671
    106  OD1       10.0930    0.7500   54.3890 O.co2 243  ASP243     -0.2456
    107  OD2        9.0470   -1.1030   54.9180 O.co2 243  ASP243     -0.2456
    108  N         16.6520   -3.0660   55.2330 N.3   245  MET245     -0.1245
    109  CA        16.9760   -3.7540   56.4730 C.3   245  MET245      0.1570
    110  C         18.3390   -4.4200   56.3400 C.2   245  MET245      0.2261
    111  O         18.4420   -5.5470   55.8820 O.2   245  MET245     -0.2867
    112  CB        15.9110   -4.8030   56.7860 C.3   245  MET245      0.0387
    113  CG        14.5180   -4.2310   56.9270 C.3   245  MET245      0.0595
    114  SD        14.3550   -3.2280   58.3970 S.3   245  MET245     -0.1393
    115  CE        14.0330   -4.4900   59.6200 C.3   245  MET245      0.0692
    116  N         18.8480  -11.2850   59.7090 N.3   249  ASP249     -0.1239
    117  CA        17.6350  -11.8620   60.2940 C.3   249  ASP249      0.1674
    118  C         17.8850  -12.4010   61.6920 C.2   249  ASP249      0.2266
    119  O         19.0140  -12.4640   62.1430 O.2   249  ASP249     -0.2867
    120  CB        17.0060  -12.9400   59.3860 C.3   249  ASP249      0.1410
    121  CG        17.9380  -14.1140   59.0860 C.2   249  ASP249      0.3668
    122  OD1       17.5270  -15.0040   58.2990 O.co2 249  ASP249     -0.2456
    123  OD2       19.0730  -14.1560   59.6110 O.co2 249  ASP249     -0.2456
    124  N         13.8430  -16.6290   60.8040 N.3   292  ALA292     -0.1231
    125  CA        14.4940  -16.2730   59.5340 C.3   292  ALA292      0.1694
    126  C         13.7400  -15.1560   58.8180 C.2   292  ALA292      0.2592
    127  O         14.3200  -14.4290   58.0140 O.2   292  ALA292     -0.2718
    128  CB        14.6180  -17.4840   58.6210 C.3   292  ALA292      0.0304
    129  N         12.4490  -15.0250   59.1200 N.am  293  ASN293     -0.1974
    130  CA        11.5900  -14.0120   58.5040 C.3   293  ASN293      0.1688
    131  C         11.4590  -12.6860   59.2670 C.2   293  ASN293      0.2292
    132  O         10.6850  -11.8200   58.8670 O.2   293  ASN293     -0.2864
    133  CB        10.2050  -14.6150   58.2770 C.3   293  ASN293      0.1181
    134  CG        10.1820  -15.5850   57.1180 C.2   293  ASN293      0.2629
    135  OD1       11.0330  -15.5280   56.2300 O.2   293  ASN293     -0.2716
    136  ND2        9.2000  -16.4720   57.1110 N.am  293  ASN293     -0.0877
    137  N         13.4860   -9.4950   60.1170 N.3   295  LEU295     -0.1245
    138  CA        14.7170   -8.7610   59.8150 C.3   295  LEU295      0.1561
    139  C         15.0180   -7.7160   60.8820 C.2   295  LEU295      0.2260
    140  O         14.1410   -7.3210   61.6240 O.2   295  LEU295     -0.2867
    141  CB        14.6450   -8.1240   58.4210 C.3   295  LEU295      0.0270
    142  CG        14.9610   -9.0550   57.2580 C.3   295  LEU295      0.0019
    143  CD1       16.4130   -9.4970   57.3490 C.3   295  LEU295      0.0001
    144  CD2       14.0320  -10.2590   57.2320 C.3   295  LEU295      0.0001
    145  N          9.1990   -9.9280   57.3020 N.3   305  SER305     -0.1202
    146  CA         9.5390   -9.9410   55.8780 C.3   305  SER305      0.2020
    147  C          9.0690  -11.2050   55.1640 C.2   305  SER305      0.2618
    148  O          8.7020  -12.1800   55.8020 O.2   305  SER305     -0.2717
    149  CB        11.0430   -9.8210   55.6950 C.3   305  SER305      0.2103
    150  OG        11.3570   -9.7270   54.3140 O.3   305  SER305     -0.2182
    151  N          9.0970  -11.1670   53.8320 N.am  306  ASP306     -0.1973
    152  CA         8.7190  -12.3020   52.9680 C.3   306  ASP306      0.1709
    153  C          7.2530  -12.7220   53.0950 C.2   306  ASP306      0.2293
    154  O          6.9180  -13.6640   53.8190 O.2   306  ASP306     -0.2864
    155  CB         9.6470  -13.4990   53.1880 C.3   306  ASP306      0.1436
    156  CG        11.0580  -13.2240   52.7230 C.2   306  ASP306      0.3671
    157  OD1       11.7450  -14.1960   52.3510 O.co2 306  ASP306     -0.2456
    158  OD2       11.4740  -12.0410   52.7140 O.co2 306  ASP306     -0.2456
    159  N         22.0040  -12.3570   56.5260 N.3   451  ALA451     -0.1231
    160  CA        20.6020  -12.6140   56.1560 C.3   451  ALA451      0.1694
    161  C         20.4830  -13.6790   55.0760 C.2   451  ALA451      0.2592
    162  O         19.7750  -13.4930   54.0840 O.2   451  ALA451     -0.2718
    163  CB        19.9200  -11.3280   55.7020 C.3   451  ALA451      0.0304
    164  N         21.1660  -14.8000   55.2890 N.am  452  ASP452     -0.1960
    165  CA        21.1740  -15.9050   54.3390 C.3   452  ASP452      0.1840
    166  C         20.2320  -17.0110   54.8050 C.2   452  ASP452      0.2621
    167  O         20.0810  -17.2420   56.0040 O.2   452  ASP452     -0.2715
    168  CB        22.5990  -16.4420   54.1710 C.3   452  ASP452      0.1450
    169  CG        23.5360  -15.4370   53.4970 C.2   452  ASP452      0.3671
    170  OD1       23.1120  -14.2920   53.2220 O.co2 452  ASP452     -0.2456
    171  OD2       24.7070  -15.7960   53.2370 O.co2 452  ASP452     -0.2456
    172  N         19.5790  -17.6720   53.8520 N.am  453  ALA453     -0.1977
    173  CA        18.7270  -18.8220   54.1530 C.3   453  ALA453      0.1597
    174  C         19.6180  -20.0330   54.4280 C.2   453  ALA453      0.2287
    175  O         20.8380  -19.9530   54.2790 O.2   453  ALA453     -0.2864
    176  CB        17.7760  -19.0980   53.0010 C.3   453  ALA453      0.0319
@<TRIPOS>BOND
     1    80    79    2
     2    79    78    1
     3    78    77    1
     4    78    81    1
     5    81    82    1
     6    35    34    2
     7    55    53   ar
     8    38    40   ar
     9    38    37   ar
    10    40    42   ar
    11    82    83    1
    12    82    84    1
    13    34    33    1
    14    34    43    1
    15    36    37    1
    16    36    33    1
    17    53    52    1
    18    53    54   ar
    19    37    39   ar
    20    71    70    2
    21    33    32    1
    22    42    41   ar
    23    44    43    2
    24    44    45    1
    25    52    51    1
    26    31    30    2
    27    70    69    1
    28    39    41   ar
    29    47    45   am
    30    47    48    1
    31    32    30   am
    32    30    29    1
    33    45    46    2
    34    50    49    2
    35    51    48    1
    36    68    69    1
    37    69    72    1
    38    48    49    1
    39    49    56   am
    40    72    73    1
    41    29    28    1
    42    73    74    1
    43    27    26    2
    44    56    57    1
    45    22    21    1
    46    66    65    2
    47    28    26   am
    48    26    25    1
    49    65    64    1
    50    58    57    1
    51    58    59    2
    52    57    60    1
    53    75    74    1
    54    75    76    1
    55    92    93    1
    56    21    23    1
    57    21    20    2
    58    99    97    1
    59    97    98    1
    60    97    96    1
    61    24    25    1
    62    24    15   am
    63    18    19    1
    64    18    17    1
    65    19    20    1
    66    64    63    1
    67    64    67    1
    68    12    11    2
    69    60    62    1
    70    60    61    1
    71    93    96    1
    72    93    94    1
    73    17    14    1
    74    14    15    1
    75    14    13    1
    76    15    16    2
    77    95    94    2
    78    11    13   am
    79    11    10    1
    80     1     2    1
    81    94   100   am
    82     9    10    1
    83     9     3   am
    84     6     8    1
    85     6     5    1
    86   100   101    1
    87     2     3    1
    88     2     5    1
    89   157   156   ar
    90     7     5    1
    91     3     4    2
    92   158   156   ar
    93   156   155    1
    94   152   153    1
    95   152   155    1
    96   152   151    1
    97   176   173    1
    98   153   154    2
    99   170   169   ar
   100   171   169   ar
   101   101   102    1
   102   101   104    1
   103    88    87    2
   104   169   168    1
   105   102   103    2
   106    90    89    1
   107   151   147   am
   108   172   173    1
   109   172   166   am
   110   162   161    2
   111    87    86    1
   112   173   174    1
   113   168   165    1
   114   175   174    2
   115   150   149    1
   116   165   166    1
   117   165   164    1
   118   106   105   ar
   119   104   105    1
   120   105   107   ar
   121   166   167    2
   122    89    86    1
   123    89    91    1
   124   161   164   am
   125   161   160    1
   126   147   148    2
   127   147   146    1
   128   108   109    1
   129    86    85    1
   130   149   146    1
   131   163   160    1
   132   146   145    1
   133   111   110    2
   134   160   159    1
   135   135   134    2
   136   110   109    1
   137   109   112    1
   138   112   113    1
   139   113   114    1
   140   136   134   am
   141   134   133    1
   142   144   142    1
   143   142   143    1
   144   142   141    1
   145   127   126    2
   146   133   130    1
   147   122   121   ar
   148   114   115    1
   149   141   138    1
   150   130   129    1
   151   130   131    1
   152   128   125    1
   153   126   129   am
   154   126   125    1
   155   132   131    2
   156   121   120    1
   157   121   123   ar
   158   120   117    1
   159   125   124    1
   160   116   117    1
   161   138   137    1
   162   138   139    1
   163   117   118    1
   164   139   140    2
   165   118   119    2
