@<TRIPOS>MOLECULE
tmp/3v62B00.pdb
 100 92 0 0 0
SMALL
GASTEIGER

@<TRIPOS>ATOM
      1  N         10.2010   30.5600   77.5950 N.3    15  ILE15      -0.1245
      2  CA        11.2910   29.7980   78.1890 C.3    15  ILE15       0.1561
      3  C         11.3270   28.3410   77.6860 C.2    15  ILE15       0.2260
      4  O         12.3430   27.8940   77.1460 O.2    15  ILE15      -0.2867
      5  CB        11.2120   29.8340   79.7210 C.3    15  ILE15       0.0252
      6  CG1       11.5350   31.2340   80.2160 C.3    15  ILE15       0.0019
      7  CG2       12.1440   28.8030   80.3450 C.3    15  ILE15       0.0019
      8  CD1       11.1510   31.4730   81.6550 C.3    15  ILE15       0.0001
      9  N         12.3960   28.0890   73.8630 N.3    18  GLY18      -0.1210
     10  CA        13.8460   28.2830   73.7970 C.3    18  GLY18       0.1956
     11  C         14.5770   26.9780   74.0460 C.2    18  GLY18       0.2611
     12  O         15.3170   26.4940   73.1920 O.2    18  GLY18      -0.2717
     13  N         14.3240   26.3800   75.2020 N.am   19  PHE19      -0.1976
     14  CA        15.0090   25.1620   75.6130 C.3    19  PHE19       0.1639
     15  C         14.7730   24.0020   74.6700 C.2    19  PHE19       0.2290
     16  O         15.6100   23.1130   74.5670 O.2    19  PHE19      -0.2864
     17  CB        14.5750   24.7490   77.0190 C.3    19  PHE19       0.0560
     18  CG        15.3830   25.3700   78.1150 C.ar   19  PHE19      -0.0200
     19  CD1       14.9130   26.4810   78.7970 C.ar   19  PHE19      -0.0042
     20  CD2       16.6110   24.8290   78.4880 C.ar   19  PHE19      -0.0042
     21  CE1       15.6610   27.0580   79.8200 C.ar   19  PHE19      -0.0003
     22  CE2       17.3590   25.3930   79.5170 C.ar   19  PHE19      -0.0003
     23  CZ        16.8850   26.5170   80.1820 C.ar   19  PHE19      -0.0000
     24  N         14.7790   23.8030   71.5630 N.3    21  ASP21      -0.1225
     25  CA        15.6660   23.8420   70.4130 C.3    21  ASP21       0.1805
     26  C         16.9950   23.1600   70.6900 C.2    21  ASP21       0.2598
     27  O         17.7200   22.8260   69.7590 O.2    21  ASP21      -0.2718
     28  CB        15.9110   25.2910   70.0060 C.3    21  ASP21       0.1424
     29  CG        14.6450   25.9810   69.5520 C.2    21  ASP21       0.3668
     30  OD1       13.5650   25.6880   70.1180 O.co2  21  ASP21      -0.2456
     31  OD2       14.7220   26.8110   68.6220 O.co2  21  ASP21      -0.2456
     32  N         17.3150   22.9570   71.9630 N.am   22  CYS22      -0.1970
     33  CA        18.6150   22.4150   72.3400 C.3    22  CYS22       0.1712
     34  C         18.5020   21.1180   73.1340 C.2    22  CYS22       0.2296
     35  O         19.2780   20.1880   72.9170 O.2    22  CYS22      -0.2864
     36  CB        19.4180   23.4430   73.1410 C.3    22  CYS22       0.0983
     37  SG        19.2950   25.1430   72.5350 S.3    22  CYS22      -0.0798
     38  N         23.2370   24.6720   79.1480 N.3    48  VAL48      -0.1245
     39  CA        22.5180   25.9290   79.1900 C.3    48  VAL48       0.1561
     40  C         22.0400   26.1970   80.6250 C.2    48  VAL48       0.2260
     41  O         21.7280   25.2710   81.3770 O.2    48  VAL48      -0.2867
     42  CB        21.4340   26.0010   78.0930 C.3    48  VAL48       0.0252
     43  CG1       20.5860   24.7400   78.1110 C.3    48  VAL48       0.0019
     44  CG2       20.6030   27.2780   78.1900 C.3    48  VAL48       0.0019
     45  N         19.7510   29.1220   82.6750 N.3    50  LEU50      -0.1245
     46  CA        18.9290   30.3030   82.6990 C.3    50  LEU50       0.1561
     47  C         18.5530   30.6690   84.1360 C.2    50  LEU50       0.2260
     48  O         18.1600   29.8130   84.9360 O.2    50  LEU50      -0.2867
     49  CB        17.7050   30.0800   81.8250 C.3    50  LEU50       0.0270
     50  CG        16.6700   31.2010   81.8270 C.3    50  LEU50       0.0019
     51  CD1       17.0680   32.3970   80.9750 C.3    50  LEU50       0.0001
     52  CD2       15.3800   30.5870   81.3300 C.3    50  LEU50       0.0001
     53  N         22.9920   27.1080   67.7730 N.3   214  ASP214     -0.1239
     54  CA        22.0410   27.1520   68.8800 C.3   214  ASP214      0.1674
     55  C         22.3210   28.3560   69.7630 C.2   214  ASP214      0.2266
     56  O         21.5130   29.2830   69.8620 O.2   214  ASP214     -0.2867
     57  CB        22.1430   25.8810   69.7030 C.3   214  ASP214      0.1410
     58  CG        21.2550   24.7700   69.1730 C.2   214  ASP214      0.3668
     59  OD1       20.3070   25.0590   68.3940 O.co2 214  ASP214     -0.2456
     60  OD2       21.5010   23.5970   69.5510 O.co2 214  ASP214     -0.2456
     61  N         20.9350   31.9300   69.0560 N.3   217  LYS217     -0.1231
     62  CA        19.5230   32.2230   69.2240 C.3   217  LYS217      0.1693
     63  C         19.2530   33.0960   70.4480 C.2   217  LYS217      0.2592
     64  O         18.1760   33.6820   70.5720 O.2   217  LYS217     -0.2718
     65  CB        18.7510   30.9260   69.3290 C.3   217  LYS217      0.0285
     66  CG        18.6110   30.2130   67.9990 C.3   217  LYS217      0.0035
     67  CD        18.5590   28.7120   68.1960 C.3   217  LYS217      0.0206
     68  CE        18.3390   27.9830   66.8910 C.3   217  LYS217      0.1093
     69  NZ        18.2330   26.5270   67.1880 N.3   217  LYS217     -0.1314
     70  N         20.2290   33.1850   71.3460 N.am  218  GLY218     -0.1957
     71  CA        20.1000   34.0160   72.5310 C.3   218  GLY218      0.1869
     72  C         20.0040   35.5020   72.2190 C.2   218  GLY218      0.2309
     73  O         19.7510   36.3190   73.1120 O.2   218  GLY218     -0.2863
     74  N         17.0310   37.7300   72.8980 N.3   221  LEU221     -0.1245
     75  CA        16.8520   38.0920   74.2910 C.3   221  LEU221      0.1561
     76  C         17.7200   39.2450   74.7870 C.2   221  LEU221      0.2260
     77  O         17.3600   39.9260   75.7450 O.2   221  LEU221     -0.2867
     78  CB        17.1200   36.8730   75.1570 C.3   221  LEU221      0.0270
     79  CG        16.1190   35.7570   74.9530 C.3   221  LEU221      0.0019
     80  CD1       16.7610   34.5900   74.2270 C.3   221  LEU221      0.0001
     81  CD2       15.6440   35.3350   76.3220 C.3   221  LEU221      0.0001
     82  N         21.2430   34.2610   80.7990 N.3   246  LEU246     -0.1245
     83  CA        21.2860   33.0520   80.0340 C.3   246  LEU246      0.1561
     84  C         22.7530   32.7530   79.8260 C.2   246  LEU246      0.2260
     85  O         23.5240   33.6620   79.5220 O.2   246  LEU246     -0.2867
     86  CB        20.5630   33.2500   78.7090 C.3   246  LEU246      0.0270
     87  CG        20.5740   32.0130   77.8210 C.3   246  LEU246      0.0019
     88  CD1       20.1280   30.7460   78.5430 C.3   246  LEU246      0.0001
     89  CD2       19.7140   32.3030   76.6130 C.3   246  LEU246      0.0001
     90  N         25.6220   29.7050   78.2600 N.3   248  PHE248     -0.1241
     91  CA        25.9920   28.4650   77.6180 C.3   248  PHE248      0.1605
     92  C         27.4150   28.1140   77.9870 C.2   248  PHE248      0.2264
     93  O         28.2730   28.9950   78.0790 O.2   248  PHE248     -0.2867
     94  CB        25.8840   28.6080   76.1030 C.3   248  PHE248      0.0534
     95  CG        24.4880   28.8420   75.6250 C.ar  248  PHE248     -0.0203
     96  CD1       23.9620   30.1500   75.5540 C.ar  248  PHE248     -0.0042
     97  CD2       23.6730   27.7600   75.2600 C.ar  248  PHE248     -0.0042
     98  CE1       22.6620   30.3720   75.1280 C.ar  248  PHE248     -0.0003
     99  CE2       22.3720   27.9860   74.8240 C.ar  248  PHE248     -0.0003
    100  CZ        21.8760   29.2940   74.7520 C.ar  248  PHE248     -0.0000
@<TRIPOS>BOND
     1    68    69    1
     2    68    67    1
     3    53    54    1
     4    66    67    1
     5    66    65    1
     6    59    58   ar
     7    31    29   ar
     8    54    57    1
     9    54    55    1
    10    61    62    1
    11    58    60   ar
    12    58    57    1
    13    62    65    1
    14    62    63    1
    15    29    28    1
    16    29    30   ar
    17    27    26    2
    18    55    56    2
    19    28    25    1
    20    25    26    1
    21    25    24    1
    22    63    64    2
    23    63    70   am
    24    26    32   am
    25    70    71    1
    26    32    33    1
    27    72    71    1
    28    72    73    2
    29    33    34    1
    30    33    36    1
    31    37    36    1
    32    74    75    1
    33    35    34    2
    34    12    11    2
    35    10     9    1
    36    10    11    1
    37    11    13   am
    38    80    79    1
    39    75    76    1
    40    75    78    1
    41    16    15    2
    42    15    14    1
    43   100    99   ar
    44   100    98   ar
    45    76    77    2
    46    99    97   ar
    47    79    78    1
    48    79    81    1
    49    98    96   ar
    50    13    14    1
    51    97    95   ar
    52    96    95   ar
    53    14    17    1
    54    95    94    1
    55    94    91    1
    56    89    87    1
    57    17    18    1
    58     4     3    2
    59     1     2    1
    60    91    92    1
    61    91    90    1
    62     3     2    1
    63    87    88    1
    64    87    86    1
    65    92    93    2
    66    42    43    1
    67    42    44    1
    68    42    39    1
    69    18    20   ar
    70    18    19   ar
    71     2     5    1
    72    20    22   ar
    73    86    83    1
    74    19    21   ar
    75    38    39    1
    76    39    40    1
    77    22    23   ar
    78    85    84    2
    79     5     6    1
    80     5     7    1
    81    21    23   ar
    82    84    83    1
    83    83    82    1
    84     6     8    1
    85    40    41    2
    86    51    50    1
    87    52    50    1
    88    49    50    1
    89    49    46    1
    90    45    46    1
    91    46    47    1
    92    47    48    2
