@<TRIPOS>MOLECULE
tmp/3v6rB00.pdb
 208 195 0 0 0
SMALL
GASTEIGER

@<TRIPOS>ATOM
      1  N         31.1570  -60.2790  -17.0970 N.3    26  ILE26      -0.1231
      2  CA        29.9860  -59.5710  -16.5480 C.3    26  ILE26       0.1692
      3  C         28.7890  -60.5140  -16.4020 C.2    26  ILE26       0.2592
      4  O         28.0280  -60.3690  -15.4430 O.2    26  ILE26      -0.2718
      5  CB        29.5680  -58.2690  -17.3110 C.3    26  ILE26       0.0266
      6  CG1       29.3210  -58.4980  -18.8250 C.3    26  ILE26       0.0019
      7  CG2       30.5470  -57.1210  -17.0400 C.3    26  ILE26       0.0020
      8  CD1       28.5950  -57.3680  -19.5810 C.3    26  ILE26       0.0001
      9  N         28.6310  -61.4490  -17.3480 N.am   27  GLY27      -0.1957
     10  CA        27.5120  -62.3890  -17.3690 C.3    27  GLY27       0.1869
     11  C         27.8480  -63.8470  -17.6330 C.2    27  GLY27       0.2309
     12  O         28.3250  -64.1990  -18.7170 O.2    27  GLY27      -0.2863
     13  N         25.6380  -67.3060  -16.6500 N.3    29  GLY29      -0.1225
     14  CA        24.4550  -67.9610  -16.1020 C.3    29  GLY29       0.1811
     15  C         23.1910  -67.1290  -16.2630 C.2    29  GLY29       0.2280
     16  O         23.2380  -65.9120  -16.0640 O.2    29  GLY29      -0.2866
     17  N         22.2870  -68.6550  -19.2790 N.3    31  GLN31      -0.1245
     18  CA        22.6380  -68.9500  -20.6730 C.3    31  GLN31       0.1566
     19  C         23.3850  -67.7870  -21.3430 C.2    31  GLN31       0.2260
     20  O         23.0490  -66.6160  -21.1380 O.2    31  GLN31      -0.2867
     21  CB        21.3850  -69.3160  -21.4900 C.3    31  GLN31       0.0367
     22  CG        21.6410  -70.3520  -22.5900 C.3    31  GLN31       0.0905
     23  CD        21.8560  -71.7560  -22.0610 C.2    31  GLN31       0.2608
     24  OE1       20.9460  -72.3930  -21.5200 O.2    31  GLN31      -0.2717
     25  NE2       23.0620  -72.2790  -22.2360 N.am   31  GLN31      -0.0878
     26  N         28.7410  -63.8330  -21.4590 N.3    34  VAL34      -0.1245
     27  CA        28.8490  -62.3920  -21.7450 C.3    34  VAL34       0.1561
     28  C         30.0180  -61.7880  -20.9780 C.2    34  VAL34       0.2260
     29  O         30.2430  -62.1210  -19.8130 O.2    34  VAL34      -0.2867
     30  CB        27.5380  -61.5960  -21.4430 C.3    34  VAL34       0.0252
     31  CG1       27.5740  -60.1980  -22.0480 C.3    34  VAL34       0.0019
     32  CG2       26.3070  -62.3420  -21.9260 C.3    34  VAL34       0.0019
     33  N         29.5240  -54.8180  -24.9720 N.3    47  ALA47      -0.1245
     34  CA        29.2430  -56.0970  -24.3370 C.3    47  ALA47       0.1562
     35  C         29.3050  -57.1730  -25.4270 C.2    47  ALA47       0.2260
     36  O         28.6490  -57.0230  -26.4670 O.2    47  ALA47      -0.2867
     37  CB        27.8820  -56.0690  -23.6510 C.3    47  ALA47       0.0290
     38  N         28.7640  -61.1750  -26.3330 N.3    49  LYS49      -0.1245
     39  CA        28.1260  -62.4340  -25.9480 C.3    49  LYS49       0.1561
     40  C         28.5520  -63.5540  -26.9400 C.2    49  LYS49       0.2260
     41  O         28.4190  -63.3800  -28.1490 O.2    49  LYS49      -0.2867
     42  CB        26.5960  -62.2500  -25.9030 C.3    49  LYS49       0.0271
     43  CG        25.8210  -63.4980  -25.5070 C.3    49  LYS49       0.0035
     44  CD        24.3580  -63.2920  -25.7950 C.3    49  LYS49       0.0206
     45  CE        23.5110  -64.4450  -25.3370 C.3    49  LYS49       0.1093
     46  NZ        22.0760  -64.1440  -25.5260 N.3    49  LYS49      -0.1314
     47  N         17.9080  -53.6250  -27.0370 N.3    80  ILE80      -0.1245
     48  CA        19.3510  -53.7390  -27.2820 C.3    80  ILE80       0.1561
     49  C         19.6280  -53.9960  -28.7960 C.2    80  ILE80       0.2260
     50  O         18.9760  -54.8300  -29.4400 O.2    80  ILE80      -0.2867
     51  CB        20.0230  -54.8030  -26.3520 C.3    80  ILE80       0.0252
     52  CG1       21.5410  -54.6050  -26.2320 C.3    80  ILE80       0.0019
     53  CG2       19.6670  -56.2550  -26.7080 C.3    80  ILE80       0.0019
     54  CD1       21.9730  -53.5950  -25.1490 C.3    80  ILE80       0.0001
     55  N         27.1780  -55.8010  -28.6170 N.3   102  MET102     -0.1230
     56  CA        26.1320  -54.8180  -28.3410 C.3   102  MET102      0.1702
     57  C         26.6660  -53.6970  -27.4120 C.2   102  MET102      0.2592
     58  O         27.7730  -53.8080  -26.8810 O.2   102  MET102     -0.2718
     59  CB        24.8710  -55.4950  -27.7640 C.3   102  MET102      0.0401
     60  CG        25.0690  -56.1780  -26.4180 C.3   102  MET102      0.0596
     61  SD        24.0080  -57.6320  -26.2230 S.3   102  MET102     -0.1393
     62  CE        25.1220  -58.8990  -26.7880 C.3   102  MET102      0.0692
     63  N         25.8880  -52.6130  -27.2580 N.am  103  GLU103     -0.1966
     64  CA        26.2230  -51.4710  -26.4080 C.3   103  GLU103      0.1733
     65  C         26.3360  -51.9280  -24.9550 C.2   103  GLU103      0.2616
     66  O         25.5450  -52.7570  -24.5120 O.2   103  GLU103     -0.2715
     67  CB        25.1410  -50.3840  -26.5490 C.3   103  GLU103      0.0429
     68  CG        25.5550  -49.0110  -26.0320 C.3   103  GLU103      0.1163
     69  CD        24.4640  -47.9640  -25.8820 C.2   103  GLU103      0.3649
     70  OE1       23.2640  -48.3160  -25.9640 O.co2 103  GLU103     -0.2457
     71  OE2       24.8170  -46.7830  -25.6640 O.co2 103  GLU103     -0.2457
     72  N         27.3260  -51.4170  -24.2220 N.am  104  LEU104     -0.1963
     73  CA        27.4870  -51.7970  -22.8260 C.3   104  LEU104      0.1728
     74  C         26.6250  -50.9050  -21.9590 C.2   104  LEU104      0.2616
     75  O         26.7120  -49.6750  -22.0250 O.2   104  LEU104     -0.2715
     76  CB        28.9600  -51.7620  -22.3620 C.3   104  LEU104      0.0311
     77  CG        29.2820  -52.3130  -20.9550 C.3   104  LEU104      0.0022
     78  CD1       29.0020  -53.7800  -20.8600 C.3   104  LEU104      0.0001
     79  CD2       30.7160  -52.0890  -20.5840 C.3   104  LEU104      0.0001
     80  N         25.7720  -51.5340  -21.1690 N.am  105  MET105     -0.1963
     81  CA        24.9140  -50.8340  -20.2330 C.3   105  MET105      0.1736
     82  C         25.5690  -50.9130  -18.8580 C.2   105  MET105      0.2616
     83  O         26.4210  -51.7700  -18.6280 O.2   105  MET105     -0.2715
     84  CB        23.4910  -51.3950  -20.2580 C.3   105  MET105      0.0427
     85  CG        22.8570  -51.3590  -21.6470 C.3   105  MET105      0.0599
     86  SD        22.4840  -49.7160  -22.2650 S.3   105  MET105     -0.1393
     87  CE        20.9760  -49.3470  -21.3630 C.3   105  MET105      0.0692
     88  N         25.2210  -49.9970  -17.9680 N.am  106  ASP106     -0.1957
     89  CA        25.8720  -49.9070  -16.6670 C.3   106  ASP106      0.1840
     90  C         25.4550  -50.9950  -15.6880 C.2   106  ASP106      0.2622
     91  O         26.3200  -51.5100  -14.9870 O.2   106  ASP106     -0.2715
     92  CB        25.6740  -48.5010  -16.0710 C.3   106  ASP106      0.1450
     93  CG        26.2870  -47.4550  -16.9760 C.2   106  ASP106      0.3671
     94  OD1       27.3780  -47.7150  -17.5330 O.co2 106  ASP106     -0.2456
     95  OD2       25.6520  -46.4190  -17.1890 O.co2 106  ASP106     -0.2456
     96  N         24.1680  -51.3460  -15.6300 N.am  107  ALA107     -0.1963
     97  CA        23.6840  -52.3580  -14.6910 C.3   107  ALA107      0.1728
     98  C         22.4590  -53.0980  -15.2330 C.2   107  ALA107      0.2616
     99  O         21.8160  -52.6410  -16.1850 O.2   107  ALA107     -0.2715
    100  CB        23.3360  -51.6990  -13.3530 C.3   107  ALA107      0.0334
    101  N         22.1480  -54.2410  -14.6140 N.am  108  ASN108     -0.1972
    102  CA        20.9770  -55.0400  -14.9180 C.3   108  ASN108      0.1688
    103  C         19.8390  -54.5550  -14.0110 C.2   108  ASN108      0.2292
    104  O         20.1340  -54.0890  -12.9080 O.2   108  ASN108     -0.2864
    105  CB        21.3110  -56.5060  -14.6890 C.3   108  ASN108      0.1181
    106  CG        20.2400  -57.4580  -15.1190 C.2   108  ASN108      0.2629
    107  OD1       19.2290  -57.6170  -14.4430 O.2   108  ASN108     -0.2716
    108  ND2       20.4660  -58.1520  -16.2270 N.am  108  ASN108     -0.0877
    109  N         17.9450  -56.1460  -12.1490 N.3   110  CYS110     -0.1221
    110  CA        18.0500  -56.9360  -10.9170 C.3   110  CYS110      0.1808
    111  C         18.8480  -56.2210   -9.8080 C.2   110  CYS110      0.2601
    112  O         18.6390  -56.4990   -8.6260 O.2   110  CYS110     -0.2717
    113  CB        18.7780  -58.2450  -11.2240 C.3   110  CYS110      0.0970
    114  SG        17.6560  -59.4260  -11.8940 S.3   110  CYS110     -0.0800
    115  N         19.7630  -55.3590  -10.2190 N.am  111  GLN111     -0.1979
    116  CA        20.5800  -54.5450   -9.3340 C.3   111  GLN111      0.1601
    117  C         20.1190  -53.0940   -9.2650 C.2   111  GLN111      0.2287
    118  O         20.8770  -52.2230   -8.9680 O.2   111  GLN111     -0.2864
    119  CB        22.0360  -54.6220   -9.7830 C.3   111  GLN111      0.0394
    120  CG        22.3640  -55.8750  -10.5570 C.3   111  GLN111      0.0908
    121  CD        23.6020  -55.7350  -11.4040 C.2   111  GLN111      0.2608
    122  OE1       23.9340  -54.6690  -11.8410 O.2   111  GLN111     -0.2717
    123  NE2       24.2800  -56.8170  -11.6350 N.am  111  GLN111     -0.0878
    124  N         11.4310  -60.1910  -17.5680 N.3   147  LYS147     -0.1231
    125  CA        11.9270  -60.2830  -16.1990 C.3   147  LYS147      0.1678
    126  C         13.0580  -59.2760  -15.9780 C.2   147  LYS147      0.2434
    127  O         13.7050  -58.9070  -16.9460 O.2   147  LYS147     -0.2733
    128  CB        12.3840  -61.7310  -15.8500 C.3   147  LYS147      0.0284
    129  CG        13.4250  -62.3420  -16.7740 C.3   147  LYS147      0.0035
    130  CD        13.8030  -63.7480  -16.3220 C.3   147  LYS147      0.0206
    131  CE        13.1380  -64.8640  -17.0880 C.3   147  LYS147      0.1093
    132  NZ        13.7240  -65.0280  -18.4430 N.3   147  LYS147     -0.1314
    133  N         13.3180  -58.8470  -14.7170 N.am  148  PRO148     -0.2718
    134  CA        14.4110  -57.8960  -14.4490 C.3   148  PRO148      0.1535
    135  C         15.7780  -58.2660  -15.0380 C.2   148  PRO148      0.2599
    136  O         16.4680  -57.3720  -15.4920 O.2   148  PRO148     -0.2715
    137  CB        14.4940  -57.8940  -12.9260 C.3   148  PRO148      0.0310
    138  CG        13.1410  -58.2210  -12.4840 C.3   148  PRO148      0.0237
    139  CD        12.6220  -59.2050  -13.4660 C.3   148  PRO148      0.0939
    140  N         16.1610  -59.5600  -15.0590 N.am  149  SER149     -0.1950
    141  CA        17.4510  -60.0240  -15.5980 C.3   149  SER149      0.1924
    142  C         17.5480  -59.8230  -17.1310 C.2   149  SER149      0.2314
    143  O         18.6580  -59.7200  -17.6600 O.2   149  SER149     -0.2863
    144  CB        17.7180  -61.4810  -15.2220 C.3   149  SER149      0.2116
    145  OG        16.8620  -62.3940  -15.8830 O.3   149  SER149     -0.2180
    146  N         18.4040  -54.1540  -18.9790 N.3   152  VAL152     -0.1245
    147  CA        19.6230  -53.4480  -18.6230 C.3   152  VAL152      0.1561
    148  C         19.3530  -51.9310  -18.6160 C.2   152  VAL152      0.2260
    149  O         18.4690  -51.4480  -19.3290 O.2   152  VAL152     -0.2867
    150  CB        20.8180  -53.8360  -19.5420 C.3   152  VAL152      0.0252
    151  CG1       21.3660  -55.2240  -19.1850 C.3   152  VAL152      0.0019
    152  CG2       20.4480  -53.7380  -21.0280 C.3   152  VAL152      0.0019
    153  N         16.8230  -56.8540  -23.3140 N.3   162  LEU162     -0.1245
    154  CA        17.8820  -57.7060  -23.8920 C.3   162  LEU162      0.1561
    155  C         17.4090  -58.8040  -24.8790 C.2   162  LEU162      0.2260
    156  O         18.1050  -59.0700  -25.8710 O.2   162  LEU162     -0.2867
    157  CB        18.7060  -58.4040  -22.7860 C.3   162  LEU162      0.0270
    158  CG        19.6030  -57.5620  -21.9110 C.3   162  LEU162      0.0019
    159  CD1       20.1330  -58.3930  -20.7730 C.3   162  LEU162      0.0001
    160  CD2       20.7530  -56.9690  -22.7050 C.3   162  LEU162      0.0001
    161  N         13.9030  -68.4980  -14.5960 N.3   176  THR176     -0.1218
    162  CA        13.1150  -67.6260  -13.7010 C.3   176  THR176      0.1862
    163  C         11.6740  -67.5600  -14.2350 C.2   176  THR176      0.2287
    164  O         11.4810  -67.2850  -15.4200 O.2   176  THR176     -0.2866
    165  CB        13.7590  -66.2320  -13.6030 C.3   176  THR176      0.1770
    166  OG1       15.1480  -66.3510  -13.2870 O.3   176  THR176     -0.2211
    167  CG2       13.0600  -65.3320  -12.5920 C.3   176  THR176      0.0375
    168  N          8.7770  -66.2870  -12.0010 N.3   178  TYR178     -0.1227
    169  CA         7.9370  -65.5190  -11.0700 C.3   178  TYR178      0.1736
    170  C          7.1710  -64.3700  -11.7380 C.2   178  TYR178      0.2595
    171  O          6.2950  -63.7730  -11.1080 O.2   178  TYR178     -0.2718
    172  CB         8.7560  -64.8960   -9.9120 C.3   178  TYR178      0.0548
    173  CG         9.8800  -65.7060   -9.3060 C.ar  178  TYR178     -0.0200
    174  CD1        9.6170  -66.8420   -8.5510 C.ar  178  TYR178     -0.0009
    175  CD2       11.1920  -65.2410   -9.3410 C.ar  178  TYR178     -0.0009
    176  CE1       10.6440  -67.5510   -7.9290 C.ar  178  TYR178      0.0417
    177  CE2       12.2230  -65.9350   -8.7170 C.ar  178  TYR178      0.0417
    178  CZ        11.9410  -67.0770   -7.9940 C.ar  178  TYR178      0.1957
    179  OH        12.9620  -67.7430   -7.3800 O.3   178  TYR178     -0.2866
    180  N          7.5510  -64.0160  -12.9720 N.am  179  TYR179     -0.1976
    181  CA         7.0180  -62.8860  -13.7150 C.3   179  TYR179      0.1639
    182  C          6.0770  -63.3150  -14.8410 C.2   179  TYR179      0.2290
    183  O          5.4840  -62.4550  -15.4940 O.2   179  TYR179     -0.2864
    184  CB         8.1910  -62.0690  -14.2650 C.3   179  TYR179      0.0560
    185  CG         9.1680  -61.6960  -13.1760 C.ar  179  TYR179     -0.0198
    186  CD1        8.9320  -60.6020  -12.3450 C.ar  179  TYR179     -0.0009
    187  CD2       10.2920  -62.4810  -12.9210 C.ar  179  TYR179     -0.0009
    188  CE1        9.8080  -60.2730  -11.3210 C.ar  179  TYR179      0.0417
    189  CE2       11.1720  -62.1630  -11.8900 C.ar  179  TYR179      0.0417
    190  CZ        10.9210  -61.0600  -11.0930 C.ar  179  TYR179      0.1957
    191  OH        11.7800  -60.7260  -10.0850 O.3   179  TYR179     -0.2866
    192  N          7.7600  -54.9280   -7.5060 N.3   205  GLU205     -0.1245
    193  CA         9.0740  -55.2400   -6.9660 C.3   205  GLU205      0.1567
    194  C          9.8800  -53.9630   -6.7680 C.2   205  GLU205      0.2260
    195  O         10.5690  -53.8700   -5.7660 O.2   205  GLU205     -0.2867
    196  CB         9.8080  -56.2200   -7.8760 C.3   205  GLU205      0.0388
    197  CG        10.9780  -56.8950   -7.1940 C.3   205  GLU205      0.1160
    198  CD        11.6630  -57.9760   -7.9970 C.2   205  GLU205      0.3649
    199  OE1       10.9540  -58.7740   -8.6550 O.co2 205  GLU205     -0.2457
    200  OE2       12.9050  -58.0830   -7.8860 O.co2 205  GLU205     -0.2457
    201  N         10.4780  -59.7340   -4.3600 N.3   211  ILE211     -0.1245
    202  CA         9.7450  -60.4470   -5.4090 C.3   211  ILE211      0.1561
    203  C          8.2850  -60.6910   -4.9510 C.2   211  ILE211      0.2260
    204  O          8.0590  -61.2550   -3.8730 O.2   211  ILE211     -0.2867
    205  CB        10.4900  -61.7630   -5.7500 C.3   211  ILE211      0.0252
    206  CG1       11.9370  -61.4500   -6.2320 C.3   211  ILE211      0.0019
    207  CG2        9.6840  -62.6050   -6.7770 C.3   211  ILE211      0.0019
    208  CD1       12.9170  -62.6170   -6.2400 C.3   211  ILE211      0.0001
@<TRIPOS>BOND
     1    50    49    2
     2    49    48    1
     3    55    56    1
     4    56    59    1
     5    56    57    1
     6    41    40    2
     7    59    60    1
     8    57    63   am
     9    57    58    2
    10    48    47    1
    11    48    51    1
    12    63    64    1
    13    40    39    1
    14    62    61    1
    15    53    51    1
    16    67    64    1
    17    67    68    1
    18    36    35    2
    19    60    61    1
    20    64    65    1
    21    51    52    1
    22    38    39    1
    23    52    54    1
    24    68    69    1
    25    70    69   ar
    26    39    42    1
    27    42    43    1
    28    69    71   ar
    29   156   155    2
    30    44    43    1
    31    44    45    1
    32    46    45    1
    33    35    34    1
    34    33    34    1
    35    65    66    2
    36    65    72   am
    37   155   154    1
    38    34    37    1
    39    72    73    1
    40   154   153    1
    41   154   157    1
    42    73    76    1
    43    73    74    1
    44   157   158    1
    45   160   158    1
    46    22    23    1
    47    22    21    1
    48    76    77    1
    49    86    85    1
    50    86    87    1
    51    25    23   am
    52    23    24    2
    53    31    30    1
    54    75    74    2
    55    74    80   am
    56    32    30    1
    57   158   159    1
    58    27    26    1
    59    27    30    1
    60    27    28    1
    61    85    84    1
    62    21    18    1
    63    19    20    2
    64    19    18    1
    65    80    81    1
    66   152   150    1
    67    28    29    2
    68    77    78    1
    69    77    79    1
    70    18    17    1
    71    84    81    1
    72    81    82    1
    73     8     6    1
    74   150   151    1
    75   150   147    1
    76   149   148    2
    77   146   147    1
    78    82    83    2
    79    82    88   am
    80     6     5    1
    81    12    11    2
    82   147   148    1
    83   132   131    1
    84    88    89    1
    85   143   142    2
    86    11    10    1
    87   124   125    1
    88    94    93   ar
    89    10     9    1
    90     9     3   am
    91     5     7    1
    92     5     2    1
    93    95    93   ar
    94   142   141    1
    95     1     2    1
    96   131   130    1
    97    93    92    1
    98   127   126    2
    99   129   130    1
   100   129   128    1
   101    89    92    1
   102    89    90    1
   103    13    14    1
   104     2     3    1
   105     3     4    2
   106    15    14    1
   107    15    16    2
   108   108   106   am
   109   125   126    1
   110   125   128    1
   111    99    98    2
   112   126   133   am
   113   145   144    1
   114    90    96   am
   115    90    91    2
   116    96    97    1
   117   141   144    1
   118   141   140    1
   119   183   182    2
   120   136   135    2
   121   164   163    2
   122    98    97    1
   123    98   101   am
   124   106   105    1
   125   106   107    2
   126   140   135   am
   127   135   134    1
   128   102   105    1
   129   102   101    1
   130   102   103    1
   131   182   181    1
   132   133   134    1
   133   133   139    1
   134    97   100    1
   135   161   162    1
   136   134   137    1
   137   184   181    1
   138   184   185    1
   139   163   162    1
   140   103   104    2
   141   181   180    1
   142   162   165    1
   143   165   166    1
   144   165   167    1
   145   139   138    1
   146   185   187   ar
   147   185   186   ar
   148   180   170   am
   149   137   138    1
   150   187   189   ar
   151   186   188   ar
   152   109   110    1
   153   168   169    1
   154   114   113    1
   155   189   190   ar
   156   122   121    2
   157   170   171    2
   158   170   169    1
   159   123   121   am
   160   121   120    1
   161   188   190   ar
   162   113   110    1
   163   190   191    1
   164   169   172    1
   165   110   111    1
   166   120   119    1
   167   115   111   am
   168   115   116    1
   169   172   173    1
   170   111   112    2
   171   119   116    1
   172   175   173   ar
   173   175   177   ar
   174   116   117    1
   175   173   174   ar
   176   117   118    2
   177   177   178   ar
   178   199   198   ar
   179   174   176   ar
   180   198   200   ar
   181   198   197    1
   182   178   176   ar
   183   178   179    1
   184   196   197    1
   185   196   193    1
   186   192   193    1
   187   193   194    1
   188   207   205    1
   189   194   195    2
   190   208   206    1
   191   206   205    1
   192   205   202    1
   193   202   203    1
   194   202   201    1
   195   203   204    2
