@<TRIPOS>MOLECULE
tmp/3v6sB00.pdb
 213 200 0 0 0
SMALL
GASTEIGER

@<TRIPOS>ATOM
      1  N         30.7930  -60.0180  -17.1480 N.3    26  ILE26      -0.1231
      2  CA        29.6220  -59.3160  -16.5820 C.3    26  ILE26       0.1692
      3  C         28.4500  -60.2890  -16.3930 C.2    26  ILE26       0.2592
      4  O         27.7500  -60.2190  -15.3870 O.2    26  ILE26      -0.2718
      5  CB        29.1530  -58.0320  -17.3450 C.3    26  ILE26       0.0266
      6  CG1       28.9050  -58.2760  -18.8530 C.3    26  ILE26       0.0019
      7  CG2       30.1440  -56.8770  -17.1050 C.3    26  ILE26       0.0020
      8  CD1       28.2300  -57.1530  -19.6000 C.3    26  ILE26       0.0001
      9  N         28.2510  -61.1610  -17.3980 N.am   27  GLY27      -0.1957
     10  CA        27.1800  -62.1500  -17.4730 C.3    27  GLY27       0.1869
     11  C         27.5460  -63.5850  -17.1180 C.2    27  GLY27       0.2309
     12  O         28.7060  -64.0130  -17.2190 O.2    27  GLY27      -0.2863
     13  N         21.8410  -66.0520  -18.6530 N.3    31  GLN31      -0.1245
     14  CA        21.6820  -65.6790  -20.0780 C.3    31  GLN31       0.1566
     15  C         23.0220  -65.5110  -20.8480 C.2    31  GLN31       0.2260
     16  O         23.6340  -64.4570  -20.7180 O.2    31  GLN31      -0.2867
     17  CB        20.8980  -64.3540  -20.1780 C.3    31  GLN31       0.0367
     18  CG        19.5050  -64.3710  -19.5480 C.3    31  GLN31       0.0905
     19  CD        19.0420  -63.0650  -18.9370 C.2    31  GLN31       0.2608
     20  OE1       19.7330  -62.0370  -18.9440 O.2    31  GLN31      -0.2717
     21  NE2       17.8520  -63.0960  -18.3630 N.am   31  GLN31      -0.0878
     22  N         28.3940  -63.5590  -21.5690 N.3    34  VAL34      -0.1245
     23  CA        28.5260  -62.1150  -21.8390 C.3    34  VAL34       0.1561
     24  C         29.6710  -61.5450  -21.0460 C.2    34  VAL34       0.2260
     25  O         29.8610  -61.8870  -19.8750 O.2    34  VAL34      -0.2867
     26  CB        27.2180  -61.3000  -21.5480 C.3    34  VAL34       0.0252
     27  CG1       27.2700  -59.9060  -22.1510 C.3    34  VAL34       0.0019
     28  CG2       25.9870  -62.0270  -22.0410 C.3    34  VAL34       0.0019
     29  N         29.2590  -54.5340  -24.9790 N.3    47  ALA47      -0.1245
     30  CA        28.9770  -55.8250  -24.3670 C.3    47  ALA47       0.1562
     31  C         29.0470  -56.8860  -25.4800 C.2    47  ALA47       0.2260
     32  O         28.3950  -56.7300  -26.5190 O.2    47  ALA47      -0.2867
     33  CB        27.6130  -55.8160  -23.6820 C.3    47  ALA47       0.0290
     34  N         28.4650  -60.8550  -26.4150 N.3    49  LYS49      -0.1245
     35  CA        27.8150  -62.1070  -26.0540 C.3    49  LYS49       0.1561
     36  C         28.2390  -63.1970  -27.0530 C.2    49  LYS49       0.2260
     37  O         28.1130  -63.0030  -28.2650 O.2    49  LYS49      -0.2867
     38  CB        26.2920  -61.9220  -26.0200 C.3    49  LYS49       0.0271
     39  CG        25.5140  -63.1680  -25.6120 C.3    49  LYS49       0.0035
     40  CD        24.0580  -62.9610  -25.8980 C.3    49  LYS49       0.0206
     41  CE        23.2030  -64.0980  -25.4280 C.3    49  LYS49       0.1093
     42  NZ        21.7660  -63.7640  -25.5890 N.3    49  LYS49      -0.1314
     43  N         17.7160  -53.1290  -26.9940 N.3    80  ILE80      -0.1245
     44  CA        19.1630  -53.2490  -27.2280 C.3    80  ILE80       0.1561
     45  C         19.4450  -53.4970  -28.7440 C.2    80  ILE80       0.2260
     46  O         18.7900  -54.3350  -29.4130 O.2    80  ILE80      -0.2867
     47  CB        19.8090  -54.3280  -26.3030 C.3    80  ILE80       0.0252
     48  CG1       21.3140  -54.1630  -26.1760 C.3    80  ILE80       0.0019
     49  CG2       19.4440  -55.7650  -26.6780 C.3    80  ILE80       0.0019
     50  CD1       21.7260  -53.2270  -25.0670 C.3    80  ILE80       0.0001
     51  N         26.8970  -55.4410  -28.6320 N.3   102  MET102     -0.1230
     52  CA        25.8640  -54.4630  -28.3330 C.3   102  MET102      0.1702
     53  C         26.4090  -53.3760  -27.3830 C.2   102  MET102      0.2592
     54  O         27.5070  -53.5130  -26.8410 O.2   102  MET102     -0.2718
     55  CB        24.6010  -55.1430  -27.7770 C.3   102  MET102      0.0401
     56  CG        24.7850  -55.8570  -26.4540 C.3   102  MET102      0.0596
     57  SD        23.7100  -57.3270  -26.2980 S.3   102  MET102     -0.1393
     58  CE        24.8260  -58.5830  -26.8630 C.3   102  MET102      0.0692
     59  N         25.6450  -52.2840  -27.2220 N.am  103  GLU103     -0.1966
     60  CA        25.9790  -51.1650  -26.3530 C.3   103  GLU103      0.1733
     61  C         26.0960  -51.6430  -24.9200 C.2   103  GLU103      0.2616
     62  O         25.3030  -52.4700  -24.4870 O.2   103  GLU103     -0.2715
     63  CB        24.8910  -50.0830  -26.4620 C.3   103  GLU103      0.0429
     64  CG        25.3380  -48.7100  -25.9790 C.3   103  GLU103      0.1163
     65  CD        24.2420  -47.6720  -25.8720 C.2   103  GLU103      0.3649
     66  OE1       23.0530  -48.0390  -26.0200 O.co2 103  GLU103     -0.2457
     67  OE2       24.5750  -46.4880  -25.6330 O.co2 103  GLU103     -0.2457
     68  N         27.0910  -51.1490  -24.1830 N.am  104  LEU104     -0.1963
     69  CA        27.2380  -51.5530  -22.7890 C.3   104  LEU104      0.1728
     70  C         26.3830  -50.6600  -21.9240 C.2   104  LEU104      0.2616
     71  O         26.4980  -49.4280  -21.9810 O.2   104  LEU104     -0.2715
     72  CB        28.7080  -51.5520  -22.3060 C.3   104  LEU104      0.0311
     73  CG        28.9910  -52.1370  -20.9110 C.3   104  LEU104      0.0022
     74  CD1       28.6890  -53.5910  -20.8540 C.3   104  LEU104      0.0001
     75  CD2       30.4160  -51.9300  -20.5080 C.3   104  LEU104      0.0001
     76  N         25.5010  -51.2900  -21.1520 N.am  105  MET105     -0.1963
     77  CA        24.6420  -50.5800  -20.2210 C.3   105  MET105      0.1736
     78  C         25.2690  -50.6810  -18.8450 C.2   105  MET105      0.2616
     79  O         26.0870  -51.5760  -18.6020 O.2   105  MET105     -0.2715
     80  CB        23.2120  -51.1020  -20.2580 C.3   105  MET105      0.0427
     81  CG        22.5930  -51.0550  -21.6450 C.3   105  MET105      0.0599
     82  SD        22.2650  -49.3930  -22.2490 S.3   105  MET105     -0.1393
     83  CE        20.7680  -48.9830  -21.3950 C.3   105  MET105      0.0692
     84  N         24.9480  -49.7290  -17.9660 N.am  106  ASP106     -0.1957
     85  CA        25.5930  -49.6260  -16.6680 C.3   106  ASP106      0.1840
     86  C         25.1170  -50.6820  -15.6700 C.2   106  ASP106      0.2622
     87  O         25.9410  -51.2810  -14.9640 O.2   106  ASP106     -0.2715
     88  CB        25.4270  -48.1980  -16.1230 C.3   106  ASP106      0.1450
     89  CG        26.0880  -47.2050  -17.0360 C.2   106  ASP106      0.3671
     90  OD1       27.1800  -47.5140  -17.5480 O.co2 106  ASP106     -0.2456
     91  OD2       25.4900  -46.1540  -17.2940 O.co2 106  ASP106     -0.2456
     92  N         23.8180  -50.9120  -15.6110 N.am  107  ALA107     -0.1963
     93  CA        23.2610  -51.8290  -14.6360 C.3   107  ALA107      0.1728
     94  C         22.0530  -52.5470  -15.1730 C.2   107  ALA107      0.2616
     95  O         21.4380  -52.1370  -16.1510 O.2   107  ALA107     -0.2715
     96  CB        22.8800  -51.0600  -13.3640 C.3   107  ALA107      0.0334
     97  N         21.7330  -53.6340  -14.5280 N.am  108  ASN108     -0.1972
     98  CA        20.5790  -54.4600  -14.8130 C.3   108  ASN108      0.1688
     99  C         19.4210  -53.9350  -13.9540 C.2   108  ASN108      0.2292
    100  O         19.6730  -53.3910  -12.8830 O.2   108  ASN108     -0.2864
    101  CB        20.9390  -55.9020  -14.4830 C.3   108  ASN108      0.1181
    102  CG        19.9330  -56.8840  -14.9200 C.2   108  ASN108      0.2629
    103  OD1       18.9250  -57.0440  -14.2620 O.2   108  ASN108     -0.2716
    104  ND2       20.2020  -57.5900  -16.0110 N.am  108  ASN108     -0.0877
    105  N         17.5110  -55.4900  -12.0990 N.3   110  CYS110     -0.1221
    106  CA        17.5780  -56.2120  -10.8350 C.3   110  CYS110      0.1808
    107  C         18.3450  -55.4700   -9.7370 C.2   110  CYS110      0.2601
    108  O         18.0940  -55.7090   -8.5580 O.2   110  CYS110     -0.2717
    109  CB        18.2020  -57.5880  -10.9840 C.3   110  CYS110      0.0970
    110  SG        17.5220  -58.3950   -9.5570 S.3   110  CYS110     -0.0800
    111  N         19.3120  -54.6200  -10.1310 N.am  111  GLN111     -0.1979
    112  CA        20.1500  -53.8210   -9.2400 C.3   111  GLN111      0.1601
    113  C         19.6780  -52.3600   -9.2450 C.2   111  GLN111      0.2287
    114  O         20.4430  -51.4510   -8.9300 O.2   111  GLN111     -0.2864
    115  CB        21.6490  -53.9560   -9.6070 C.3   111  GLN111      0.0394
    116  CG        22.0250  -53.5940  -11.0220 C.3   111  GLN111      0.0908
    117  CD        23.4410  -53.9430  -11.3690 C.2   111  GLN111      0.2608
    118  OE1       23.7090  -54.7670  -12.2530 O.2   111  GLN111     -0.2717
    119  NE2       24.3700  -53.4360  -10.5690 N.am  111  GLN111     -0.0878
    120  N         15.9930  -52.1640   -6.0440 N.3   114  GLN114     -0.1245
    121  CA        16.3700  -51.9570   -4.6440 C.3   114  GLN114      0.1566
    122  C         16.5120  -50.4760   -4.2810 C.2   114  GLN114      0.2260
    123  O         16.4420  -50.1390   -3.0960 O.2   114  GLN114     -0.2867
    124  CB        17.6900  -52.6710   -4.3410 C.3   114  GLN114      0.0367
    125  CG        17.6070  -54.1930   -4.3610 C.3   114  GLN114      0.0905
    126  CD        18.9770  -54.8120   -4.3510 C.2   114  GLN114      0.2608
    127  OE1       19.7240  -54.7170   -3.3710 O.2   114  GLN114     -0.2717
    128  NE2       19.3360  -55.4770   -5.4360 N.am  114  GLN114     -0.0878
    129  N         11.2880  -59.6970  -17.5710 N.3   147  LYS147     -0.1231
    130  CA        11.7570  -59.7810  -16.1850 C.3   147  LYS147      0.1678
    131  C         12.8730  -58.7630  -15.9500 C.2   147  LYS147      0.2434
    132  O         13.5250  -58.3760  -16.9170 O.2   147  LYS147     -0.2733
    133  CB        12.2200  -61.2160  -15.8250 C.3   147  LYS147      0.0284
    134  CG        13.2880  -61.8150  -16.7200 C.3   147  LYS147      0.0035
    135  CD        13.6730  -63.2200  -16.2660 C.3   147  LYS147      0.0206
    136  CE        13.0240  -64.3370  -17.0440 C.3   147  LYS147      0.1093
    137  NZ        13.6800  -64.5370  -18.3610 N.3   147  LYS147     -0.1314
    138  N         13.1150  -58.3300  -14.6860 N.am  148  PRO148     -0.2718
    139  CA        14.1810  -57.3570  -14.4160 C.3   148  PRO148      0.1535
    140  C         15.5550  -57.7280  -14.9770 C.2   148  PRO148      0.2599
    141  O         16.2350  -56.8350  -15.4460 O.2   148  PRO148     -0.2715
    142  CB        14.2420  -57.3240  -12.8910 C.3   148  PRO148      0.0310
    143  CG        12.9080  -57.6870  -12.4680 C.3   148  PRO148      0.0237
    144  CD        12.4310  -58.7020  -13.4330 C.3   148  PRO148      0.0939
    145  N         15.9530  -59.0190  -14.9620 N.am  149  SER149     -0.1950
    146  CA        17.2490  -59.4630  -15.4950 C.3   149  SER149      0.1924
    147  C         17.3610  -59.2740  -17.0520 C.2   149  SER149      0.2314
    148  O         18.4710  -59.1570  -17.5710 O.2   149  SER149     -0.2863
    149  CB        17.5370  -60.9080  -15.0980 C.3   149  SER149      0.2116
    150  OG        16.7000  -61.8210  -15.7800 O.3   149  SER149     -0.2180
    151  N         18.1030  -53.6590  -18.9650 N.3   152  VAL152     -0.1245
    152  CA        19.3070  -52.9710  -18.5930 C.3   152  VAL152      0.1561
    153  C         19.0530  -51.4580  -18.6150 C.2   152  VAL152      0.2260
    154  O         18.1850  -50.9760  -19.3400 O.2   152  VAL152     -0.2867
    155  CB        20.5080  -53.4020  -19.5000 C.3   152  VAL152      0.0252
    156  CG1       21.0550  -54.7910  -19.1130 C.3   152  VAL152      0.0019
    157  CG2       20.1510  -53.3230  -20.9850 C.3   152  VAL152      0.0019
    158  N         16.6160  -56.3850  -23.2950 N.3   162  LEU162     -0.1245
    159  CA        17.6830  -57.2360  -23.8640 C.3   162  LEU162      0.1561
    160  C         17.2350  -58.3310  -24.8580 C.2   162  LEU162      0.2260
    161  O         17.9440  -58.5920  -25.8410 O.2   162  LEU162     -0.2867
    162  CB        18.4850  -57.9420  -22.7550 C.3   162  LEU162      0.0270
    163  CG        19.3750  -57.1150  -21.8710 C.3   162  LEU162      0.0019
    164  CD1       19.8930  -57.9480  -20.7180 C.3   162  LEU162      0.0001
    165  CD2       20.5260  -56.5590  -22.6690 C.3   162  LEU162      0.0001
    166  N         13.5430  -67.8530  -14.5620 N.3   169  THR169     -0.1218
    167  CA        13.1670  -67.1190  -13.3460 C.3   169  THR169      0.1862
    168  C         11.6630  -67.3770  -12.9340 C.2   169  THR169      0.2287
    169  O         11.4470  -67.7760  -11.7880 O.2   169  THR169     -0.2866
    170  CB        13.6030  -65.6610  -13.4930 C.3   169  THR169      0.1770
    171  OG1       15.0070  -65.6410  -13.2450 O.3   169  THR169     -0.2211
    172  CG2       12.9420  -64.7340  -12.5100 C.3   169  THR169      0.0375
    173  N          8.7240  -65.7610  -11.9780 N.3   171  TYR171     -0.1227
    174  CA         7.8580  -65.0060  -11.0450 C.3   171  TYR171      0.1736
    175  C          7.0760  -63.8590  -11.7260 C.2   171  TYR171      0.2595
    176  O          6.1700  -63.2880  -11.1150 O.2   171  TYR171     -0.2718
    177  CB         8.6580  -64.3790   -9.8770 C.3   171  TYR171      0.0548
    178  CG         9.7800  -65.1840   -9.2610 C.ar  171  TYR171     -0.0200
    179  CD1        9.5150  -66.3350   -8.5230 C.ar  171  TYR171     -0.0009
    180  CD2       11.0840  -64.6980   -9.2510 C.ar  171  TYR171     -0.0009
    181  CE1       10.5360  -67.0410   -7.8860 C.ar  171  TYR171      0.0417
    182  CE2       12.1130  -65.3910   -8.6140 C.ar  171  TYR171      0.0417
    183  CZ        11.8340  -66.5620   -7.9290 C.ar  171  TYR171      0.1957
    184  OH        12.8390  -67.2460   -7.2880 O.3   171  TYR171     -0.2866
    185  N          7.4720  -63.4890  -12.9550 N.am  172  TYR172     -0.1976
    186  CA         6.9270  -62.3740  -13.7170 C.3   172  TYR172      0.1639
    187  C          6.0170  -62.8250  -14.8610 C.2   172  TYR172      0.2290
    188  O          5.4360  -61.9780  -15.5280 O.2   172  TYR172     -0.2864
    189  CB         8.0950  -61.5430  -14.2490 C.3   172  TYR172      0.0560
    190  CG         9.0570  -61.1650  -13.1440 C.ar  172  TYR172     -0.0198
    191  CD1        8.8090  -60.0690  -12.3250 C.ar  172  TYR172     -0.0009
    192  CD2       10.1740  -61.9480  -12.8650 C.ar  172  TYR172     -0.0009
    193  CE1        9.6720  -59.7360  -11.2800 C.ar  172  TYR172      0.0417
    194  CE2       11.0410  -61.6290  -11.8180 C.ar  172  TYR172      0.0417
    195  CZ        10.7830  -60.5260  -11.0240 C.ar  172  TYR172      0.1957
    196  OH        11.6390  -60.2130   -9.9990 O.3   172  TYR172     -0.2866
    197  N          7.5250  -54.4670   -7.4970 N.3   198  GLU198     -0.1245
    198  CA         8.8270  -54.7730   -6.9310 C.3   198  GLU198      0.1567
    199  C          9.6380  -53.4870   -6.7390 C.2   198  GLU198      0.2260
    200  O         10.3310  -53.3920   -5.7390 O.2   198  GLU198     -0.2867
    201  CB         9.5680  -55.7680   -7.8200 C.3   198  GLU198      0.0388
    202  CG        10.7090  -56.4620   -7.1040 C.3   198  GLU198      0.1160
    203  CD        11.4320  -57.5180   -7.9090 C.2   198  GLU198      0.3649
    204  OE1       10.7360  -58.3160   -8.5770 O.co2 198  GLU198     -0.2457
    205  OE2       12.6810  -57.5980   -7.8150 O.co2 198  GLU198     -0.2457
    206  N         10.2790  -59.2270   -4.2540 N.3   204  ILE204     -0.1245
    207  CA         9.5640  -59.9520   -5.3100 C.3   204  ILE204      0.1561
    208  C          8.1110  -60.1890   -4.8730 C.2   204  ILE204      0.2260
    209  O          7.8690  -60.7230   -3.7900 O.2   204  ILE204     -0.2867
    210  CB        10.3120  -61.2750   -5.6410 C.3   204  ILE204      0.0252
    211  CG1       11.7430  -60.9860   -6.1090 C.3   204  ILE204      0.0019
    212  CG2        9.5480  -62.1050   -6.6910 C.3   204  ILE204      0.0019
    213  CD1       12.6910  -62.1600   -6.0150 C.3   204  ILE204      0.0001
@<TRIPOS>BOND
     1    46    45    2
     2    45    44    1
     3    51    52    1
     4    52    55    1
     5    52    53    1
     6    37    36    2
     7    55    56    1
     8    53    59   am
     9    53    54    2
    10    44    43    1
    11    44    47    1
    12    59    60    1
    13    36    35    1
    14    58    57    1
    15    49    47    1
    16    32    31    2
    17    63    60    1
    18    63    64    1
    19    56    57    1
    20    34    35    1
    21    60    61    1
    22    47    48    1
    23    48    50    1
    24    35    38    1
    25    38    39    1
    26    66    65   ar
    27    64    65    1
    28    40    39    1
    29    40    41    1
    30    65    67   ar
    31   161   160    2
    32    42    41    1
    33    31    30    1
    34    29    30    1
    35    61    62    2
    36    61    68   am
    37   160   159    1
    38    30    33    1
    39    68    69    1
    40   159   158    1
    41   159   162    1
    42    69    72    1
    43    69    70    1
    44   162   163    1
    45   165   163    1
    46    72    73    1
    47    82    81    1
    48    82    83    1
    49    27    26    1
    50    28    26    1
    51    71    70    2
    52    70    76   am
    53   163   164    1
    54    23    22    1
    55    23    26    1
    56    23    24    1
    57    81    80    1
    58    76    77    1
    59    24    25    2
    60   157   155    1
    61    73    74    1
    62    73    75    1
    63    15    16    2
    64    15    14    1
    65    80    77    1
    66    77    78    1
    67    17    14    1
    68    17    18    1
    69    14    13    1
    70     8     6    1
    71    18    19    1
    72   155   156    1
    73   155   152    1
    74   154   153    2
    75   151   152    1
    76    20    19    2
    77    19    21   am
    78     6     5    1
    79    78    79    2
    80    78    84   am
    81   153   152    1
    82   137   136    1
    83    84    85    1
    84   148   147    2
    85   129   130    1
    86    90    89   ar
    87    10     9    1
    88    10    11    1
    89     9     3   am
    90     5     7    1
    91     5     2    1
    92    91    89   ar
    93    12    11    2
    94     1     2    1
    95   147   146    1
    96   136   135    1
    97    89    88    1
    98   132   131    2
    99   134   135    1
   100   134   133    1
   101    85    88    1
   102    85    86    1
   103     2     3    1
   104     3     4    2
   105   130   131    1
   106   130   133    1
   107    95    94    2
   108   104   102   am
   109   131   138   am
   110   150   149    1
   111    86    92   am
   112    86    87    2
   113    92    93    1
   114   188   187    2
   115   146   149    1
   116   146   145    1
   117   141   140    2
   118    94    93    1
   119    94    97   am
   120   140   145   am
   121   140   139    1
   122   102   101    1
   123   102   103    2
   124   187   186    1
   125    98    97    1
   126    98   101    1
   127    98    99    1
   128   138   139    1
   129   138   144    1
   130    93    96    1
   131   166   167    1
   132   139   142    1
   133   189   186    1
   134   189   190    1
   135    99   100    2
   136   186   185    1
   137   170   167    1
   138   170   171    1
   139   170   172    1
   140   144   143    1
   141   167   168    1
   142   190   192   ar
   143   190   191   ar
   144   185   175   am
   145   168   169    2
   146   142   143    1
   147   192   194   ar
   148   191   193   ar
   149   118   117    2
   150   105   106    1
   151   173   174    1
   152   194   195   ar
   153   175   176    2
   154   175   174    1
   155   117   116    1
   156   117   119   am
   157   193   195   ar
   158   174   177    1
   159   195   196    1
   160   116   115    1
   161   109   106    1
   162   109   110    1
   163   106   107    1
   164   111   107   am
   165   111   112    1
   166   177   178    1
   167   107   108    2
   168   115   112    1
   169   178   180   ar
   170   178   179   ar
   171   180   182   ar
   172   113   112    1
   173   113   114    2
   174   182   183   ar
   175   204   203   ar
   176   179   181   ar
   177   183   181   ar
   178   183   184    1
   179   203   205   ar
   180   203   202    1
   181   201   202    1
   182   201   198    1
   183   197   198    1
   184   198   199    1
   185   199   200    2
   186   212   210    1
   187   211   213    1
   188   211   210    1
   189   120   121    1
   190   210   207    1
   191   128   126   am
   192   207   208    1
   193   207   206    1
   194   208   209    2
   195   121   124    1
   196   121   122    1
   197   125   126    1
   198   125   124    1
   199   126   127    2
   200   122   123    2
