@<TRIPOS>MOLECULE
tmp/3v70A00.pdb
 121 116 0 0 0
SMALL
GASTEIGER

@<TRIPOS>ATOM
      1  N         21.7410   28.5120  120.5940 N.3    11  THR11      -0.1203
      2  CA        22.2210   28.8700  119.2690 C.3    11  THR11       0.1994
      3  C         23.7090   28.5770  119.1970 C.2    11  THR11       0.2618
      4  O         24.4430   28.8230  120.1510 O.2    11  THR11      -0.2717
      5  CB        22.0020   30.3670  118.9430 C.3    11  THR11       0.1784
      6  OG1       20.6400   30.7220  119.2200 O.3    11  THR11      -0.2211
      7  CG2       22.3340   30.6540  117.4360 C.3    11  THR11       0.0376
      8  N         24.1360   28.0290  118.0640 N.am   12  GLY12      -0.1942
      9  CA        25.5180   27.6460  117.8650 C.3    12  GLY12       0.2014
     10  C         25.9670   26.3820  118.6050 C.2    12  GLY12       0.2639
     11  O         27.1410   26.0870  118.6460 O.2    12  GLY12      -0.2714
     12  N         25.0470   25.6260  119.1730 N.am   13  ALA13      -0.1963
     13  CA        25.3930   24.3320  119.7590 C.3    13  ALA13       0.1728
     14  C         25.7330   23.2720  118.7030 C.2    13  ALA13       0.2617
     15  O         26.5050   22.3490  118.9620 O.2    13  ALA13      -0.2715
     16  CB        24.2540   23.8450  120.6370 C.3    13  ALA13       0.0334
     17  N         25.1810   23.4130  117.5020 N.am   14  GLY14      -0.1940
     18  CA        25.3510   22.4000  116.4620 C.3    14  GLY14       0.2014
     19  C         24.0940   21.5830  116.1920 C.2    14  GLY14       0.2639
     20  O         24.1870   20.4500  115.6840 O.2    14  GLY14      -0.2714
     21  N         22.9190   22.1630  116.4870 N.am   15  LYS15      -0.1963
     22  CA        21.6310   21.4920  116.2550 C.3    15  LYS15       0.1728
     23  C         21.4430   21.1700  114.7950 C.2    15  LYS15       0.2617
     24  O         21.1830   20.0350  114.4430 O.2    15  LYS15      -0.2715
     25  CB        20.4760   22.3570  116.7260 C.3    15  LYS15       0.0311
     26  CG        20.4460   22.5430  118.2450 C.3    15  LYS15       0.0038
     27  CD        19.1950   23.2430  118.7430 C.3    15  LYS15       0.0206
     28  CE        19.0480   24.6660  118.2230 C.3    15  LYS15       0.1093
     29  NZ        20.2210   25.5100  118.5790 N.3    15  LYS15      -0.1314
     30  N         21.5940   22.1770  113.9370 N.am   16  SER16      -0.1936
     31  CA        21.2910   22.0020  112.5320 C.3    16  SER16       0.2055
     32  C         22.2470   21.0000  111.8850 C.2    16  SER16       0.2642
     33  O         21.8240   20.1690  111.0980 O.2    16  SER16      -0.2714
     34  CB        21.2810   23.3480  111.7950 C.3    16  SER16       0.2130
     35  OG        20.1900   24.1570  112.2610 O.3    16  SER16      -0.2179
     36  N         23.5170   21.0650  112.2430 N.am   17  ALA17      -0.1977
     37  CA        24.4920   20.1260  111.7160 C.3    17  ALA17       0.1597
     38  C         24.2120   18.6970  112.1740 C.2    17  ALA17       0.2287
     39  O         24.3300   17.7410  111.3900 O.2    17  ALA17      -0.2864
     40  CB        25.9000   20.5440  112.0930 C.3    17  ALA17       0.0319
     41  N         15.2710   23.4200  115.6850 N.3    49  THR49      -0.1218
     42  CA        14.6900   24.5640  116.3960 C.3    49  THR49       0.1862
     43  C         15.4770   25.9130  116.2120 C.2    49  THR49       0.2287
     44  O         16.7000   25.9260  116.0630 O.2    49  THR49      -0.2866
     45  CB        14.4910   24.2560  117.8840 C.3    49  THR49       0.1770
     46  OG1       15.7340   23.8640  118.4790 O.3    49  THR49      -0.2211
     47  CG2       13.4190   23.1190  118.0690 C.3    49  THR49       0.0375
     48  N         28.2100   21.7320  122.5850 N.3    86  GLN86      -0.1245
     49  CA        29.5660   21.6330  122.0120 C.3    86  GLN86       0.1566
     50  C         30.5330   21.0610  123.0300 C.2    86  GLN86       0.2260
     51  O         30.6110   21.5520  124.1620 O.2    86  GLN86      -0.2867
     52  CB        30.0780   22.9920  121.4990 C.3    86  GLN86       0.0367
     53  CG        29.2250   23.5800  120.3220 C.3    86  GLN86       0.0905
     54  CD        29.8930   23.4390  118.9410 C.2    86  GLN86       0.2608
     55  OE1       31.0520   23.0160  118.8370 O.2    86  GLN86      -0.2717
     56  NE2       29.1570   23.8110  117.8740 N.am   86  GLN86      -0.0878
     57  N         28.5840   17.7420  120.0760 N.3   118  THR118     -0.1203
     58  CA        29.2050   18.0120  118.7990 C.3   118  THR118      0.1994
     59  C         30.7180   18.2430  118.9760 C.2   118  THR118      0.2617
     60  O         31.2110   18.4090  120.0820 O.2   118  THR118     -0.2717
     61  CB        28.5370   19.2320  118.1230 C.3   118  THR118      0.1784
     62  OG1       28.5520   20.3370  119.0270 O.3   118  THR118     -0.2211
     63  CG2       27.1050   18.9100  117.7480 C.3   118  THR118      0.0376
     64  N         31.4330   18.2600  117.8550 N.am  119  ARG119     -0.1979
     65  CA        32.8870   18.4090  117.8540 C.3   119  ARG119      0.1597
     66  C         33.5880   17.2200  118.5540 C.2   119  ARG119      0.2287
     67  O         34.4840   17.4110  119.3770 O.2   119  ARG119     -0.2864
     68  CB        33.2950   19.7600  118.4960 C.3   119  ARG119      0.0334
     69  CG        33.1570   20.9160  117.5970 C.3   119  ARG119      0.0492
     70  CD        34.0260   22.0880  118.2020 C.3   119  ARG119      0.2205
     71  NE        33.5980   23.1550  117.3040 N.pl3 119  ARG119     -0.0865
     72  CZ        34.1840   23.3810  116.1380 C.cat 119  ARG119      0.5346
     73  NH1       35.2620   22.7440  115.7280 N.pl3 119  ARG119      0.1354
     74  NH2       33.6140   24.3040  115.3940 N.pl3 119  ARG119      0.1354
     75  N         35.7000   15.1550  117.3800 N.3   121  GLU121     -0.1245
     76  CA        37.1220   15.1590  116.9900 C.3   121  GLU121      0.1567
     77  C         37.9960   15.8580  118.0320 C.2   121  GLU121      0.2260
     78  O         39.2050   15.6360  118.0780 O.2   121  GLU121     -0.2867
     79  CB        37.3100   15.8370  115.6210 C.3   121  GLU121      0.0388
     80  CG        36.8620   17.2990  115.5580 C.3   121  GLU121      0.1160
     81  CD        35.3340   17.4810  115.3690 C.2   121  GLU121      0.3649
     82  OE1       34.8980   18.6240  115.1890 O.co2 121  GLU121     -0.2457
     83  OE2       34.5680   16.4880  115.3930 O.co2 121  GLU121     -0.2457
     84  N         29.1790   13.3400  118.3100 N.3   154  PHE154     -0.1227
     85  CA        29.1070   13.4600  116.8540 C.3   154  PHE154      0.1736
     86  C         30.2560   14.3300  116.3450 C.2   154  PHE154      0.2595
     87  O         30.5870   15.3230  116.9550 O.2   154  PHE154     -0.2718
     88  CB        27.7900   14.1440  116.4280 C.3   154  PHE154      0.0547
     89  CG        26.6510   13.2070  116.0990 C.ar  154  PHE154     -0.0202
     90  CD1       26.1730   12.3050  117.0220 C.ar  154  PHE154     -0.0042
     91  CD2       26.0020   13.3040  114.8890 C.ar  154  PHE154     -0.0042
     92  CE1       25.0960   11.4710  116.7260 C.ar  154  PHE154     -0.0003
     93  CE2       24.9190   12.4760  114.5920 C.ar  154  PHE154     -0.0003
     94  CZ        24.4720   11.5570  115.5160 C.ar  154  PHE154     -0.0000
     95  N         30.8460   13.9180  115.2270 N.am  155  ASP155     -0.1960
     96  CA        31.6530   14.7760  114.3780 C.3   155  ASP155      0.1840
     97  C         30.8280   15.0190  113.1310 C.2   155  ASP155      0.2622
     98  O         30.7380   14.1590  112.2520 O.2   155  ASP155     -0.2715
     99  CB        32.9750   14.0770  114.0200 C.3   155  ASP155      0.1450
    100  CG        33.9040   14.9400  113.1460 C.2   155  ASP155      0.3671
    101  OD1       33.4690   15.9980  112.6180 O.co2 155  ASP155     -0.2456
    102  OD2       35.0850   14.5440  112.9790 O.co2 155  ASP155     -0.2456
    103  N         30.2160   16.1940  113.0510 N.am  156  ASN156     -0.1958
    104  CA        29.2830   16.4990  111.9720 C.3   156  ASN156      0.1819
    105  C         29.9140   16.7080  110.6070 C.2   156  ASN156      0.2621
    106  O         29.1960   16.9080  109.6260 O.2   156  ASN156     -0.2715
    107  CB        28.4010   17.6880  112.3620 C.3   156  ASN156      0.1195
    108  CG        27.3730   17.3050  113.4350 C.2   156  ASN156      0.2630
    109  OD1       26.6620   16.3030  113.2850 O.2   156  ASN156     -0.2716
    110  ND2       27.3030   18.0760  114.5090 N.am  156  ASN156     -0.0877
    111  N         31.2440   16.6340  110.5290 N.am  157  ARG157     -0.1977
    112  CA        31.9390   16.6220  109.2380 C.3   157  ARG157      0.1597
    113  C         32.1430   15.1950  108.7320 C.2   157  ARG157      0.2287
    114  O         32.5960   14.9960  107.5900 O.2   157  ARG157     -0.2864
    115  CB        33.3100   17.3060  109.3420 C.3   157  ARG157      0.0334
    116  CG        33.2990   18.7020  109.9900 C.3   157  ARG157      0.0492
    117  CD        34.7080   19.0750  110.4690 C.3   157  ARG157      0.2205
    118  NE        35.2160   18.0960  111.4430 N.pl3 157  ARG157     -0.0865
    119  CZ        36.5020   17.7670  111.6150 C.cat 157  ARG157      0.5346
    120  NH1       37.4670   18.3270  110.8880 N.pl3 157  ARG157      0.1354
    121  NH2       36.8290   16.8390  112.5180 N.pl3 157  ARG157      0.1354
@<TRIPOS>BOND
     1   114   113    2
     2   113   112    1
     3   112   115    1
     4   112   111    1
     5   115   116    1
     6   106   105    2
     7   116   117    1
     8   117   118    1
     9   111   105   am
    10   105   104    1
    11   120   119    1
    12    33    32    2
    13    39    38    2
    14   118   119    2
    15   119   121    1
    16    37    40    1
    17    37    38    1
    18    37    36    1
    19    34    35    1
    20    34    31    1
    21    32    36   am
    22    32    31    1
    23   104   107    1
    24   104   103    1
    25    98    97    2
    26   107   108    1
    27    31    30    1
    28   101   100   ar
    29   102   100   ar
    30   103    97   am
    31    97    96    1
    32   100    99    1
    33   109   108    2
    34   108   110   am
    35    30    23   am
    36    99    96    1
    37    96    95    1
    38    24    23    2
    39    93    91   ar
    40    93    94   ar
    41    23    22    1
    42    91    89   ar
    43    82    81   ar
    44    95    86   am
    45    81    83   ar
    46    81    80    1
    47    74    72    1
    48    94    92   ar
    49    80    79    1
    50    79    76    1
    51    20    19    2
    52    41    42    1
    53    73    72    1
    54    44    43    2
    55    89    88    1
    56    89    90   ar
    57    72    71    2
    58    19    18    1
    59    19    21   am
    60    43    42    1
    61    22    21    1
    62    22    25    1
    63    86    85    1
    64    86    87    2
    65    42    45    1
    66    88    85    1
    67    18    17    1
    68    92    90   ar
    69    25    26    1
    70    85    84    1
    71    76    75    1
    72    76    77    1
    73    71    70    1
    74     7     5    1
    75    17    14   am
    76    69    70    1
    77    69    68    1
    78    63    61    1
    79    65    64    1
    80    65    68    1
    81    65    66    1
    82    64    59   am
    83     9     8    1
    84     9    10    1
    85    56    54   am
    86    45    47    1
    87    45    46    1
    88    77    78    2
    89     8     3   am
    90    61    58    1
    91    61    62    1
    92    28    29    1
    93    28    27    1
    94    26    27    1
    95    66    67    2
    96    10    11    2
    97    10    12   am
    98    14    15    2
    99    14    13    1
   100    58    59    1
   101    58    57    1
   102    55    54    2
   103    54    53    1
   104     5     6    1
   105     5     2    1
   106    59    60    2
   107    12    13    1
   108     3     2    1
   109     3     4    2
   110     2     1    1
   111    13    16    1
   112    53    52    1
   113    52    49    1
   114    49    48    1
   115    49    50    1
   116    50    51    2
