@<TRIPOS>MOLECULE
tmp/3v77E00.pdb
 144 135 0 0 0
SMALL
GASTEIGER

@<TRIPOS>ATOM
      1  N         32.0150   -5.5190  -17.1230 N.3    20  VAL20      -0.1231
      2  CA        31.4880   -5.7080  -15.7740 C.3    20  VAL20       0.1692
      3  C         32.4220   -6.6150  -14.9750 C.2    20  VAL20       0.2593
      4  O         32.9920   -7.5760  -15.5220 O.2    20  VAL20      -0.2718
      5  CB        30.0480   -6.2620  -15.8120 C.3    20  VAL20       0.0266
      6  CG1       30.0340   -7.6520  -16.4490 C.3    20  VAL20       0.0020
      7  CG2       29.4210   -6.2860  -14.4110 C.3    20  VAL20       0.0020
      8  N         32.6020   -6.2900  -13.6950 N.am   21  GLY21      -0.1942
      9  CA        33.3750   -7.1340  -12.7870 C.3    21  GLY21       0.2014
     10  C         32.4420   -7.8690  -11.8460 C.2    21  GLY21       0.2639
     11  O         31.3810   -7.3560  -11.5080 O.2    21  GLY21      -0.2714
     12  N         32.8220   -9.0800  -11.4430 N.am   22  ARG22      -0.1963
     13  CA        32.0320   -9.8790  -10.4760 C.3    22  ARG22       0.1729
     14  C         30.5940  -10.2040  -10.9140 C.2    22  ARG22       0.2616
     15  O         29.6390  -10.0930  -10.1320 O.2    22  ARG22      -0.2715
     16  CB        32.0620   -9.2350   -9.0790 C.3    22  ARG22       0.0348
     17  CG        33.4790   -8.9730   -8.5790 C.3    22  ARG22       0.0492
     18  CD        33.5740   -8.5520   -7.1060 C.3    22  ARG22       0.2205
     19  NE        34.8250   -7.8350   -6.9500 N.pl3  22  ARG22      -0.0865
     20  CZ        35.1740   -7.0780   -5.9200 C.cat  22  ARG22       0.5346
     21  NH1       34.3720   -6.9490   -4.8660 N.pl3  22  ARG22       0.1354
     22  NH2       36.3500   -6.4640   -5.9500 N.pl3  22  ARG22       0.1354
     23  N         30.4410  -10.6170  -12.1710 N.am   23  ASN23      -0.1972
     24  CA        29.1250  -11.0300  -12.6540 C.3    23  ASN23       0.1688
     25  C         28.8550  -12.5310  -12.4610 C.2    23  ASN23       0.2292
     26  O         27.7420  -13.0010  -12.6820 O.2    23  ASN23      -0.2864
     27  CB        28.9040  -10.6040  -14.1120 C.3    23  ASN23       0.1181
     28  CG        27.4400  -10.3230  -14.4270 C.2    23  ASN23       0.2629
     29  OD1       26.6240  -10.1290  -13.5270 O.2    23  ASN23      -0.2716
     30  ND2       27.1030  -10.2960  -15.7150 N.am   23  ASN23      -0.0877
     31  N         33.2010  -16.5850   -9.3320 N.3    27  HIS27      -0.1241
     32  CA        34.4620  -15.8620   -9.5700 C.3    27  HIS27       0.1621
     33  C         34.8010  -14.8780   -8.4390 C.2    27  HIS27       0.2264
     34  O         35.9670  -14.7050   -8.0700 O.2    27  HIS27      -0.2867
     35  CB        34.4340  -15.1340  -10.9220 C.3    27  HIS27       0.0745
     36  CG        35.6060  -14.2270  -11.1430 C.ar   27  HIS27       0.0817
     37  ND1       36.9080  -14.6770  -11.1360 N.ar   27  HIS27      -0.2268
     38  CD2       35.6700  -12.8970  -11.3910 C.ar   27  HIS27       0.1154
     39  CE1       37.7260  -13.6610  -11.3580 C.ar   27  HIS27       0.1986
     40  NE2       36.9990  -12.5690  -11.5160 N.ar   27  HIS27      -0.2212
     41  N         38.3650  -15.5460   -5.5010 N.3    31  LEU31      -0.1245
     42  CA        39.3660  -14.5330   -5.1760 C.3    31  LEU31       0.1561
     43  C         39.0670  -13.8720   -3.8360 C.2    31  LEU31       0.2260
     44  O         39.7850  -12.9620   -3.4200 O.2    31  LEU31      -0.2867
     45  CB        39.4580  -13.4800   -6.2880 C.3    31  LEU31       0.0270
     46  CG        39.9440  -13.9250   -7.6700 C.3    31  LEU31       0.0019
     47  CD1       40.1280  -12.7180   -8.5730 C.3    31  LEU31       0.0001
     48  CD2       41.2310  -14.7220   -7.5660 C.3    31  LEU31       0.0001
     49  N         33.9920   -0.9420  -15.6060 N.3    42  PHE42      -0.1241
     50  CA        35.1810   -0.3180  -16.1790 C.3    42  PHE42       0.1605
     51  C         35.1610   -0.4200  -17.7210 C.2    42  PHE42       0.2264
     52  O         34.2850   -1.0580  -18.3090 O.2    42  PHE42      -0.2867
     53  CB        36.4830   -0.8890  -15.5840 C.3    42  PHE42       0.0534
     54  CG        36.6050   -2.4070  -15.6880 C.ar   42  PHE42      -0.0203
     55  CD1       37.4270   -2.9950  -16.6670 C.ar   42  PHE42      -0.0042
     56  CD2       35.8970   -3.2450  -14.8070 C.ar   42  PHE42      -0.0042
     57  CE1       37.5260   -4.3940  -16.7760 C.ar   42  PHE42      -0.0003
     58  CE2       35.9970   -4.6450  -14.9000 C.ar   42  PHE42      -0.0003
     59  CZ        36.8250   -5.2160  -15.8890 C.ar   42  PHE42      -0.0000
     60  N         41.0190  -14.0480  -18.5650 N.3    68  GLU68      -0.1245
     61  CA        39.6020  -13.9720  -18.1650 C.3    68  GLU68       0.1567
     62  C         38.7220  -14.0740  -19.4100 C.2    68  GLU68       0.2260
     63  O         38.4760  -13.0700  -20.0860 O.2    68  GLU68      -0.2867
     64  CB        39.2850  -12.6530  -17.4060 C.3    68  GLU68       0.0388
     65  CG        40.1460  -12.4000  -16.1490 C.3    68  GLU68       0.1160
     66  CD        39.6200  -11.2710  -15.2670 C.2    68  GLU68       0.3649
     67  OE1       40.0240  -11.2010  -14.0900 O.co2  68  GLU68      -0.2457
     68  OE2       38.7990  -10.4610  -15.7260 O.co2  68  GLU68      -0.2457
     69  N         35.4140  -14.1030  -21.4410 N.3    70  GLU70      -0.1245
     70  CA        34.0810  -13.5350  -21.2840 C.3    70  GLU70       0.1567
     71  C         33.2840  -13.5970  -22.5790 C.2    70  GLU70       0.2260
     72  O         33.8590  -13.5610  -23.6730 O.2    70  GLU70      -0.2867
     73  CB        34.1920  -12.0770  -20.7780 C.3    70  GLU70       0.0388
     74  CG        35.2990  -11.9860  -19.7130 C.3    70  GLU70       0.1160
     75  CD        35.3120  -10.7250  -18.8540 C.2    70  GLU70       0.3649
     76  OE1       34.4370   -9.8510  -18.9790 O.co2  70  GLU70      -0.2457
     77  OE2       36.2370  -10.6480  -18.0280 O.co2  70  GLU70      -0.2457
     78  N         39.5650  -10.6210  -21.1920 N.3    99  ASP99      -0.1239
     79  CA        39.8320   -9.4410  -20.3660 C.3    99  ASP99       0.1674
     80  C         41.1790   -9.6520  -19.6870 C.2    99  ASP99       0.2266
     81  O         41.2360   -9.9720  -18.4990 O.2    99  ASP99      -0.2867
     82  CB        38.7020   -9.2850  -19.3540 C.3    99  ASP99       0.1410
     83  CG        38.8470   -8.0550  -18.4280 C.2    99  ASP99       0.3668
     84  OD1       39.7310   -7.1840  -18.6220 O.co2  99  ASP99      -0.2456
     85  OD2       38.0350   -7.9870  -17.4810 O.co2  99  ASP99      -0.2456
     86  N         47.3210   -8.7980  -12.7860 N.3   103  ARG103     -0.1245
     87  CA        46.7320   -9.0200  -11.4650 C.3   103  ARG103      0.1563
     88  C         47.4390   -8.3080  -10.3240 C.2   103  ARG103      0.2260
     89  O         46.7800   -7.6910   -9.4890 O.2   103  ARG103     -0.2867
     90  CB        46.5800  -10.5060  -11.1480 C.3   103  ARG103      0.0307
     91  CG        45.7170  -10.7680   -9.8860 C.3   103  ARG103      0.0489
     92  CD        44.2330  -10.4420  -10.1240 C.3   103  ARG103      0.2205
     93  NE        43.6140  -11.4440  -10.9890 N.pl3 103  ARG103     -0.0865
     94  CZ        42.5270  -11.2590  -11.7400 C.cat 103  ARG103      0.5346
     95  NH1       41.8960  -10.0960  -11.7430 N.pl3 103  ARG103      0.1354
     96  NH2       42.0700  -12.2500  -12.4960 N.pl3 103  ARG103      0.1354
     97  N         46.8570   -4.7160  -10.5140 N.3   106  GLN106     -0.1245
     98  CA        45.4950   -4.4500  -10.0830 C.3   106  GLN106      0.1566
     99  C         45.3740   -4.4490   -8.5470 C.2   106  GLN106      0.2260
    100  O         44.6920   -3.5890   -7.9810 O.2   106  GLN106     -0.2867
    101  CB        44.5090   -5.4430  -10.7010 C.3   106  GLN106      0.0367
    102  CG        43.0550   -5.1970  -10.2840 C.3   106  GLN106      0.0905
    103  CD        42.1080   -6.2490  -10.8150 C.2   106  GLN106      0.2608
    104  OE1       41.0110   -5.9370  -11.2950 O.2   106  GLN106     -0.2717
    105  NE2       42.5130   -7.5040  -10.7200 N.am  106  GLN106     -0.0878
    106  N         44.0850   -1.1370   -6.3860 N.3   110  LYS110     -0.1245
    107  CA        43.0160   -1.2590   -5.4020 C.3   110  LYS110      0.1561
    108  C         43.4500   -0.7910   -4.0120 C.2   110  LYS110      0.2260
    109  O         42.6870   -0.1200   -3.3230 O.2   110  LYS110     -0.2867
    110  CB        42.5620   -2.7040   -5.2970 C.3   110  LYS110      0.0271
    111  CG        41.7970   -3.2050   -6.4910 C.3   110  LYS110      0.0035
    112  CD        41.7710   -4.7060   -6.4550 C.3   110  LYS110      0.0206
    113  CE        40.3520   -5.2030   -6.5580 C.3   110  LYS110      0.1093
    114  NZ        40.3400   -6.6940   -6.5380 N.3   110  LYS110     -0.1314
    115  N         41.9680    1.7500  -12.5380 N.3   116  TRP116     -0.1241
    116  CA        42.4300    0.4110  -12.9400 C.3   116  TRP116      0.1605
    117  C         43.0750    0.3560  -14.3310 C.2   116  TRP116      0.2264
    118  O         43.6210   -0.6840  -14.7320 O.2   116  TRP116     -0.2867
    119  CB        41.2530   -0.5550  -12.9220 C.3   116  TRP116      0.0550
    120  CG        40.7960   -0.9820  -11.5660 C.ar  116  TRP116      0.0003
    121  CD1       41.1430   -0.4270  -10.3500 C.ar  116  TRP116      0.0946
    122  CD2       39.8760   -2.0370  -11.2760 C.ar  116  TRP116      0.0152
    123  NE1       40.5010   -1.0960   -9.3260 N.ar  116  TRP116     -0.2442
    124  CE2       39.7210   -2.0860   -9.8650 C.ar  116  TRP116      0.0810
    125  CE3       39.1670   -2.9530  -12.0660 C.ar  116  TRP116      0.0012
    126  CZ2       38.8940   -3.0230   -9.2360 C.ar  116  TRP116      0.0191
    127  CZ3       38.3410   -3.8630  -11.4460 C.ar  116  TRP116      0.0001
    128  CH2       38.2150   -3.9030  -10.0390 C.ar  116  TRP116      0.0015
    129  N         44.2680   -2.8570  -16.8690 N.3   120  LYS120     -0.1245
    130  CA        43.2090   -3.3380  -17.7620 C.3   120  LYS120      0.1561
    131  C         43.2910   -2.8620  -19.2220 C.2   120  LYS120      0.2260
    132  O         42.7410   -3.5100  -20.1140 O.2   120  LYS120     -0.2867
    133  CB        41.8440   -2.9610  -17.1970 C.3   120  LYS120      0.0271
    134  CG        41.4440   -3.7200  -15.9180 C.3   120  LYS120      0.0035
    135  CD        40.9370   -5.1260  -16.2400 C.3   120  LYS120      0.0206
    136  CE        40.5370   -5.8800  -14.9790 C.3   120  LYS120      0.1093
    137  NZ        39.9290   -7.1670  -15.3510 N.3   120  LYS120     -0.1314
    138  N         33.8770  -12.4690  -16.2720 N.3   189  THR189     -0.1218
    139  CA        34.5040  -13.7750  -16.3340 C.3   189  THR189      0.1862
    140  C         33.9130  -14.7180  -15.2740 C.2   189  THR189      0.2287
    141  O         33.5710  -14.2770  -14.1650 O.2   189  THR189     -0.2866
    142  CB        36.0560  -13.7000  -16.2500 C.3   189  THR189      0.1770
    143  OG1       36.6340  -14.9120  -16.7460 O.3   189  THR189     -0.2211
    144  CG2       36.5640  -13.4620  -14.8220 C.3   189  THR189      0.0375
@<TRIPOS>BOND
     1    72    71    2
     2    71    70    1
     3    69    70    1
     4    70    73    1
     5    78    79    1
     6    73    74    1
     7    79    80    1
     8    79    82    1
     9   132   131    2
    10    63    62    2
    11    74    75    1
    12    80    81    2
    13    62    61    1
    14    82    83    1
    15   131   130    1
    16    76    75   ar
    17    75    77   ar
    18    84    83   ar
    19    60    61    1
    20    83    85   ar
    21    52    51    2
    22    61    64    1
    23   130   133    1
    24   130   129    1
    25    51    50    1
    26    64    65    1
    27   133   134    1
    28     1     2    1
    29    57    55   ar
    30    57    59   ar
    31   143   142    1
    32    55    54   ar
    33     6     5    1
    34   139   138    1
    35   139   142    1
    36   139   140    1
    37   142   144    1
    38   135   134    1
    39   135   136    1
    40    50    49    1
    41    50    53    1
    42    65    66    1
    43    59    58   ar
    44     5     2    1
    45     5     7    1
    46     2     3    1
    47    68    66   ar
    48    30    28   am
    49    54    53    1
    50    54    56   ar
    51     4     3    2
    52   137   136    1
    53   140   141    2
    54    66    67   ar
    55     3     8   am
    56    58    56   ar
    57   118   117    2
    58    28    27    1
    59    28    29    2
    60   117   116    1
    61    27    24    1
    62     8     9    1
    63   116   119    1
    64   116   115    1
    65   119   120    1
    66     9    10    1
    67    86    87    1
    68    26    25    2
    69    24    25    1
    70    24    23    1
    71    96    94    1
    72    23    14   am
    73   125   127   ar
    74   125   122   ar
    75    10    11    2
    76    10    12   am
    77    95    94    1
    78    94    93    2
    79   120   122   ar
    80   120   121   ar
    81    40    38   ar
    82    40    39   ar
    83    87    90    1
    84    87    88    1
    85   127   128   ar
    86    12    13    1
    87    38    36   ar
    88    39    37   ar
    89   104   103    2
    90   122   124   ar
    91    90    91    1
    92    36    37   ar
    93    36    35    1
    94    93    92    1
    95    35    32    1
    96    14    13    1
    97    14    15    2
    98   103   105   am
    99   103   102    1
   100   101   102    1
   101   101    98    1
   102    97    98    1
   103    13    16    1
   104   121   123   ar
   105    88    89    2
   106    92    91    1
   107    98    99    1
   108   128   126   ar
   109   124   123   ar
   110   124   126   ar
   111    32    31    1
   112    32    33    1
   113    16    17    1
   114    17    18    1
   115    47    46    1
   116    99   100    2
   117    33    34    2
   118    46    48    1
   119    46    45    1
   120    18    19    1
   121    19    20    2
   122   113   114    1
   123   113   112    1
   124   111   112    1
   125   111   110    1
   126   106   107    1
   127    45    42    1
   128    22    20    1
   129    20    21    1
   130    41    42    1
   131   107   110    1
   132   107   108    1
   133    42    43    1
   134   108   109    2
   135    43    44    2
