@<TRIPOS>MOLECULE
tmp/3v78B00.pdb
 152 149 0 0 0
SMALL
GASTEIGER

@<TRIPOS>ATOM
      1  N        -35.0470   14.7040   10.1910 N.3    62  SER62      -0.1217
      2  CA       -34.0050   13.9960    9.4700 C.3    62  SER62       0.1889
      3  C        -32.8030   14.9010    9.2540 C.2    62  SER62       0.2288
      4  O        -31.6870   14.5830    9.6570 O.2    62  SER62      -0.2866
      5  CB       -34.5260   13.4610    8.1260 C.3    62  SER62       0.2089
      6  OG       -33.5570   12.6160    7.5260 O.3    62  SER62      -0.2183
      7  N        -30.8970   15.8130   12.5920 N.3    65  LEU65      -0.1231
      8  CA       -29.9430   14.7660   12.9460 C.3    65  LEU65       0.1693
      9  C        -28.6760   14.8360   12.0950 C.2    65  LEU65       0.2591
     10  O        -27.5700   14.7630   12.6330 O.2    65  LEU65      -0.2718
     11  CB       -30.5920   13.3890   12.8170 C.3    65  LEU65       0.0284
     12  CG       -29.7860   12.2280   13.4060 C.3    65  LEU65       0.0019
     13  CD1      -29.3270   12.5540   14.8280 C.3    65  LEU65       0.0001
     14  CD2      -30.6120   10.9480   13.3860 C.3    65  LEU65       0.0001
     15  N        -28.8400   14.9840   10.7770 N.am   66  LEU66      -0.1980
     16  CA       -27.7010   15.0000    9.8530 C.3    66  LEU66       0.1596
     17  C        -26.7210   16.1280   10.1830 C.2    66  LEU66       0.2287
     18  O        -25.5140   15.9280   10.2030 O.2    66  LEU66      -0.2864
     19  CB       -28.1800   15.1440    8.4070 C.3    66  LEU66       0.0297
     20  CG       -28.3640   13.8930    7.5510 C.3    66  LEU66       0.0022
     21  CD1      -29.0530   14.2320    6.2300 C.3    66  LEU66       0.0001
     22  CD2      -27.0210   13.2430    7.3020 C.3    66  LEU66       0.0001
     23  N        -24.7070   15.1190   13.1180 N.3    69  TRP69      -0.1241
     24  CA       -23.6470   14.2600   12.6180 C.3    69  TRP69       0.1605
     25  C        -22.5350   15.0920   12.0040 C.2    69  TRP69       0.2264
     26  O        -21.3480   14.8130   12.1970 O.2    69  TRP69      -0.2867
     27  CB       -24.1900   13.2760   11.5820 C.3    69  TRP69       0.0550
     28  CG       -24.8580   12.0990   12.1910 C.ar   69  TRP69       0.0003
     29  CD1      -25.6950   12.0960   13.2720 C.ar   69  TRP69       0.0946
     30  CD2      -24.7340   10.7350   11.7760 C.ar   69  TRP69       0.0152
     31  NE1      -26.1060   10.8150   13.5480 N.ar   69  TRP69      -0.2442
     32  CE2      -25.5260    9.9600   12.6470 C.ar   69  TRP69       0.0810
     33  CE3      -24.0300   10.0960   10.7530 C.ar   69  TRP69       0.0012
     34  CZ2      -25.6270    8.5730   12.5320 C.ar   69  TRP69       0.0191
     35  CZ3      -24.1280    8.7300   10.6420 C.ar   69  TRP69       0.0001
     36  CH2      -24.9220    7.9780   11.5280 C.ar   69  TRP69       0.0015
     37  N        -23.7520    5.8860   14.8460 N.3    87  THR87      -0.1218
     38  CA       -24.6560    4.8310   14.4070 C.3    87  THR87       0.1862
     39  C        -25.2340    4.0870   15.6030 C.2    87  THR87       0.2287
     40  O        -26.4250    3.8010   15.6510 O.2    87  THR87      -0.2866
     41  CB       -23.9460    3.8310   13.4820 C.3    87  THR87       0.1770
     42  OG1      -23.3810    4.5290   12.3670 O.3    87  THR87      -0.2211
     43  CG2      -24.9250    2.7880   12.9760 C.3    87  THR87       0.0375
     44  N        -27.8780    5.9640   17.4290 N.3    90  TYR90      -0.1227
     45  CA       -29.0690    5.9270   16.5920 C.3    90  TYR90       0.1736
     46  C        -29.7890    4.5870   16.6900 C.2    90  TYR90       0.2595
     47  O        -31.0110    4.5400   16.8100 O.2    90  TYR90      -0.2718
     48  CB       -28.6910    6.2160   15.1370 C.3    90  TYR90       0.0548
     49  CG       -29.8690    6.3030   14.1950 C.ar   90  TYR90      -0.0200
     50  CD1      -30.5940    7.4770   14.0690 C.ar   90  TYR90      -0.0009
     51  CD2      -30.2530    5.2130   13.4310 C.ar   90  TYR90      -0.0009
     52  CE1      -31.6690    7.5630   13.2120 C.ar   90  TYR90       0.0417
     53  CE2      -31.3280    5.2890   12.5720 C.ar   90  TYR90       0.0417
     54  CZ       -32.0320    6.4670   12.4660 C.ar   90  TYR90       0.1957
     55  OH       -33.1050    6.5510   11.6140 O.3    90  TYR90      -0.2866
     56  N        -29.0260    3.5010   16.6370 N.am   91  LEU91      -0.1980
     57  CA       -29.6000    2.1710   16.7480 C.3    91  LEU91       0.1596
     58  C        -30.2870    2.0130   18.0970 C.2    91  LEU91       0.2287
     59  O        -31.2770    1.2960   18.2200 O.2    91  LEU91      -0.2864
     60  CB       -28.5200    1.1060   16.5700 C.3    91  LEU91       0.0297
     61  CG       -27.9890    0.9280   15.1470 C.3    91  LEU91       0.0022
     62  CD1      -26.9210   -0.1470   15.0980 C.3    91  LEU91       0.0001
     63  CD2      -29.1190    0.6050   14.1890 C.3    91  LEU91       0.0001
     64  N        -39.0790    7.7270   11.4010 N.3   100  LEU100     -0.1231
     65  CA       -38.1200    7.9630   10.3370 C.3   100  LEU100      0.1693
     66  C        -37.7650    6.6120    9.7610 C.2   100  LEU100      0.2592
     67  O        -37.6150    6.4500    8.5540 O.2   100  LEU100     -0.2718
     68  CB       -36.8640    8.6300   10.8910 C.3   100  LEU100      0.0284
     69  CG       -36.6770   10.1230   10.6230 C.3   100  LEU100      0.0019
     70  CD1      -35.2190   10.5090   10.7910 C.3   100  LEU100      0.0001
     71  CD2      -37.1770   10.4930    9.2400 C.3   100  LEU100      0.0001
     72  N        -37.6440    5.6360   10.6500 N.am  101  ASN101     -0.1974
     73  CA       -37.3730    4.2730   10.2490 C.3   101  ASN101      0.1688
     74  C        -38.5810    3.6410    9.5740 C.2   101  ASN101      0.2292
     75  O        -38.4300    2.9680    8.5590 O.2   101  ASN101     -0.2864
     76  CB       -36.9210    3.4370   11.4440 C.3   101  ASN101      0.1181
     77  CG       -35.5630    3.8560   11.9630 C.2   101  ASN101      0.2629
     78  OD1      -34.8010    4.5220   11.2670 O.2   101  ASN101     -0.2716
     79  ND2      -35.2550    3.4680   13.1920 N.am  101  ASN101     -0.0877
     80  N        -38.6480    5.2340    6.0280 N.3   104  TYR104     -0.1227
     81  CA       -37.5010    4.9550    5.1860 C.3   104  TYR104      0.1736
     82  C        -37.6670    3.5670    4.5780 C.2   104  TYR104      0.2595
     83  O        -37.4140    3.3620    3.3880 O.2   104  TYR104     -0.2718
     84  CB       -36.1950    5.0530    5.9860 C.3   104  TYR104      0.0548
     85  CG       -34.9500    5.0390    5.1150 C.ar  104  TYR104     -0.0200
     86  CD1      -34.3830    6.2240    4.6590 C.ar  104  TYR104     -0.0009
     87  CD2      -34.3540    3.8420    4.7320 C.ar  104  TYR104     -0.0009
     88  CE1      -33.2590    6.2190    3.8490 C.ar  104  TYR104      0.0417
     89  CE2      -33.2200    3.8230    3.9330 C.ar  104  TYR104      0.0417
     90  CZ       -32.6760    5.0170    3.4980 C.ar  104  TYR104      0.1957
     91  OH       -31.5720    5.0000    2.6960 O.3   104  TYR104     -0.2866
     92  N        -38.1080    2.6120    5.3890 N.am  105  MET105     -0.1979
     93  CA       -38.3450    1.2730    4.8590 C.3   105  MET105      0.1605
     94  C        -39.4880    1.2650    3.8400 C.2   105  MET105      0.2287
     95  O        -39.3790    0.6850    2.7560 O.2   105  MET105     -0.2864
     96  CB       -38.5940    0.2700    5.9890 C.3   105  MET105      0.0413
     97  CG       -37.5420   -0.8040    6.0530 C.3   105  MET105      0.0598
     98  SD       -35.9430   -0.2820    6.6860 S.3   105  MET105     -0.1393
     99  CE       -36.3690   -0.0020    8.4010 C.3   105  MET105      0.0692
    100  N        -31.2780   11.1490    3.7620 N.3   120  TRP120     -0.1241
    101  CA       -30.2430   10.3890    4.4660 C.3   120  TRP120      0.1605
    102  C        -29.0390   10.0080    3.5610 C.2   120  TRP120      0.2264
    103  O        -27.9250   10.4400    3.8070 O.2   120  TRP120     -0.2867
    104  CB       -30.8390    9.1830    5.2110 C.3   120  TRP120      0.0550
    105  CG       -29.8530    8.1300    5.5490 C.ar  120  TRP120      0.0003
    106  CD1      -29.8400    6.8520    5.0810 C.ar  120  TRP120      0.0946
    107  CD2      -28.7230    8.2470    6.4290 C.ar  120  TRP120      0.0152
    108  NE1      -28.7750    6.1600    5.6140 N.ar  120  TRP120     -0.2442
    109  CE2      -28.0780    6.9930    6.4500 C.ar  120  TRP120      0.0810
    110  CE3      -28.2030    9.2860    7.2060 C.ar  120  TRP120      0.0012
    111  CZ2      -26.9360    6.7490    7.2140 C.ar  120  TRP120      0.0191
    112  CZ3      -27.0630    9.0440    7.9640 C.ar  120  TRP120      0.0001
    113  CH2      -26.4390    7.7870    7.9570 C.ar  120  TRP120      0.0015
    114  N        -24.5560    1.2120    6.6430 N.3   144  PHE144     -0.1227
    115  CA       -25.4490    1.7770    7.6490 C.3   144  PHE144      0.1736
    116  C        -26.9270    1.4740    7.4210 C.2   144  PHE144      0.2595
    117  O        -27.6560    1.1960    8.3750 O.2   144  PHE144     -0.2718
    118  CB       -25.2060    3.2800    7.7830 C.3   144  PHE144      0.0547
    119  CG       -23.8660    3.6120    8.3840 C.ar  144  PHE144     -0.0202
    120  CD1      -23.1280    2.6300    9.0330 C.ar  144  PHE144     -0.0042
    121  CD2      -23.3420    4.8950    8.3050 C.ar  144  PHE144     -0.0042
    122  CE1      -21.8860    2.9180    9.5870 C.ar  144  PHE144     -0.0003
    123  CE2      -22.1110    5.1950    8.8640 C.ar  144  PHE144     -0.0003
    124  CZ       -21.3770    4.2070    9.5050 C.ar  144  PHE144     -0.0000
    125  N        -27.3590    1.5320    6.1620 N.am  145  ASP145     -0.1974
    126  CA       -28.7160    1.1460    5.7920 C.3   145  ASP145      0.1709
    127  C        -28.9290   -0.2990    6.1990 C.2   145  ASP145      0.2293
    128  O        -29.9800   -0.6570    6.7380 O.2   145  ASP145     -0.2864
    129  CB       -28.9370    1.2930    4.2860 C.3   145  ASP145      0.1436
    130  CG       -29.3110    2.7100    3.8820 C.2   145  ASP145      0.3671
    131  OD1      -28.9440    3.6570    4.6150 O.co2 145  ASP145     -0.2456
    132  OD2      -29.9830    2.8780    2.8410 O.co2 145  ASP145     -0.2456
    133  N        -27.1190   -1.8540    8.5340 N.3   147  ALA147     -0.1231
    134  CA       -26.9820   -2.0370    9.9790 C.3   147  ALA147      0.1694
    135  C        -28.3470   -1.8820   10.6370 C.2   147  ALA147      0.2593
    136  O        -28.7240   -2.6910   11.4970 O.2   147  ALA147     -0.2718
    137  CB       -25.9690   -1.0750   10.5860 C.3   147  ALA147      0.0304
    138  N        -29.0910   -0.8550   10.2420 N.am  148  THR148     -0.1939
    139  CA       -30.3920   -0.5910   10.8450 C.3   148  THR148      0.2028
    140  C        -31.4250   -1.6650   10.5110 C.2   148  THR148      0.2642
    141  O        -32.0300   -2.2420   11.4080 O.2   148  THR148     -0.2714
    142  CB       -30.9390    0.7900   10.4560 C.3   148  THR148      0.1808
    143  OG1      -30.1600    1.8070   11.0920 O.3   148  THR148     -0.2208
    144  CG2      -32.3820    0.9260   10.9000 C.3   148  THR148      0.0379
    145  N        -31.6260   -1.9280    9.2240 N.am  149  LEU149     -0.1977
    146  CA       -32.5620   -2.9690    8.8040 C.3   149  LEU149      0.1596
    147  C        -32.1940   -4.3120    9.4650 C.2   149  LEU149      0.2287
    148  O        -33.0340   -4.9570   10.0980 O.2   149  LEU149     -0.2864
    149  CB       -32.5790   -3.0810    7.2770 C.3   149  LEU149      0.0297
    150  CG       -33.4770   -4.1540    6.6730 C.3   149  LEU149      0.0022
    151  CD1      -34.8970   -4.0830    7.2280 C.3   149  LEU149      0.0001
    152  CD2      -33.4920   -4.0530    5.1540 C.3   149  LEU149      0.0001
@<TRIPOS>BOND
     1    91    90    1
     2    95    94    2
     3   132   130   ar
     4    83    82    2
     5    90    88   ar
     6    90    89   ar
     7   102   103    2
     8   102   101    1
     9   100   101    1
    10    94    93    1
    11    88    86   ar
    12   130   129    1
    13   130   131   ar
    14    89    87   ar
    15   129   126    1
    16   101   104    1
    17    82    81    1
    18    82    92   am
    19    86    85   ar
    20    87    85   ar
    21    93    92    1
    22    93    96    1
    23   106   105   ar
    24   106   108   ar
    25    85    84    1
    26   152   150    1
    27    81    84    1
    28    81    80    1
    29   104   105    1
    30   105   107   ar
    31   108   109   ar
    32   126   125    1
    33   126   127    1
    34    96    97    1
    35    97    98    1
    36   125   116   am
    37   127   128    2
    38    21    20    1
    39   107   109   ar
    40   107   110   ar
    41   109   111   ar
    42   114   115    1
    43   150   151    1
    44   150   149    1
    45    98    99    1
    46   110   112   ar
    47   111   113   ar
    48   149   146    1
    49    22    20    1
    50   116   115    1
    51   116   117    2
    52     6     5    1
    53    20    19    1
    54   115   118    1
    55   118   119    1
    56   113   112   ar
    57     5     2    1
    58   121   119   ar
    59   121   123   ar
    60   119   120   ar
    61    19    16    1
    62   133   134    1
    63    67    66    2
    64    75    74    2
    65   146   145    1
    66   146   147    1
    67   123   124   ar
    68   120   122   ar
    69   145   140   am
    70    71    69    1
    71     3     2    1
    72     3     4    2
    73   147   148    2
    74     2     1    1
    75   124   122   ar
    76    74    73    1
    77    66    65    1
    78    66    72   am
    79    16    17    1
    80    16    15    1
    81   134   137    1
    82   134   135    1
    83    17    18    2
    84   138   135   am
    85   138   139    1
    86    73    72    1
    87    73    76    1
    88    65    68    1
    89    65    64    1
    90   142   139    1
    91   142   144    1
    92   142   143    1
    93   140   139    1
    94   140   141    2
    95    69    70    1
    96    69    68    1
    97   135   136    2
    98    35    33   ar
    99    35    36   ar
   100    33    30   ar
   101    15     9   am
   102    78    77    2
   103    76    77    1
   104    36    34   ar
   105    27    28    1
   106    27    24    1
   107    55    54    1
   108    30    28   ar
   109    30    32   ar
   110    77    79   am
   111    25    26    2
   112    25    24    1
   113     9    10    2
   114     9     8    1
   115    28    29   ar
   116    42    41    1
   117    54    53   ar
   118    54    52   ar
   119    34    32   ar
   120    53    51   ar
   121     7     8    1
   122    24    23    1
   123    32    31   ar
   124    11     8    1
   125    11    12    1
   126    43    41    1
   127    52    50   ar
   128    29    31   ar
   129    14    12    1
   130    12    13    1
   131    51    49   ar
   132    41    38    1
   133    50    49   ar
   134    63    61    1
   135    49    48    1
   136    38    37    1
   137    38    39    1
   138    62    61    1
   139    48    45    1
   140    61    60    1
   141    39    40    2
   142    60    57    1
   143    45    46    1
   144    45    44    1
   145    56    46   am
   146    56    57    1
   147    46    47    2
   148    57    58    1
   149    58    59    2
