@<TRIPOS>MOLECULE
tmp/3v7dB00.pdb
 234 220 0 0 0
SMALL
GASTEIGER

@<TRIPOS>ATOM
      1  N         31.1270   43.0930  -15.8410 N.3   116  VAL116     -0.1231
      2  CA        29.8300   42.9380  -16.4880 C.3   116  VAL116      0.1692
      3  C         28.8600   42.1390  -15.6220 C.2   116  VAL116      0.2592
      4  O         29.1620   41.0250  -15.2000 O.2   116  VAL116     -0.2718
      5  CB        29.9590   42.2370  -17.8580 C.3   116  VAL116      0.0266
      6  CG1       28.5950   42.1040  -18.5130 C.3   116  VAL116      0.0020
      7  CG2       30.9170   42.9990  -18.7610 C.3   116  VAL116      0.0020
      8  N         27.6960   42.7190  -15.3610 N.am  117  ILE117     -0.1966
      9  CA        26.6340   42.0280  -14.6430 C.3   117  ILE117      0.1727
     10  C         25.6190   41.5310  -15.6640 C.2   117  ILE117      0.2616
     11  O         25.1910   42.2890  -16.5310 O.2   117  ILE117     -0.2715
     12  CB        25.9370   42.9680  -13.6420 C.3   117  ILE117      0.0290
     13  CG1       26.9640   43.6090  -12.7080 C.3   117  ILE117      0.0022
     14  CG2       24.8650   42.2300  -12.8590 C.3   117  ILE117      0.0023
     15  CD1       27.8710   42.6180  -12.0320 C.3   117  ILE117      0.0001
     16  N         25.2330   40.2630  -15.5640 N.am  118  THR118     -0.1951
     17  CA        24.4220   39.6390  -16.6080 C.3   118  THR118      0.1897
     18  C         22.9330   39.6150  -16.2950 C.2   118  THR118      0.2313
     19  O         22.1070   39.5300  -17.1980 O.2   118  THR118     -0.2863
     20  CB        24.8750   38.1950  -16.8790 C.3   118  THR118      0.1794
     21  OG1       24.6870   37.4080  -15.6950 O.3   118  THR118     -0.2208
     22  CG2       26.3410   38.1690  -17.2830 C.3   118  THR118      0.0378
     23  N         29.4480   36.7120  -14.7630 N.3   132  ASP132     -0.1239
     24  CA        30.2510   35.6580  -15.3560 C.3   132  ASP132      0.1674
     25  C         31.3590   35.2140  -14.4090 C.2   132  ASP132      0.2266
     26  O         32.1950   34.3850  -14.7670 O.2   132  ASP132     -0.2867
     27  CB        30.8360   36.1050  -16.6940 C.3   132  ASP132      0.1410
     28  CG        30.9090   34.9720  -17.6980 C.2   132  ASP132      0.3668
     29  OD1       29.8950   34.2590  -17.8610 O.co2 132  ASP132     -0.2456
     30  OD2       31.9810   34.7820  -18.3110 O.co2 132  ASP132     -0.2456
     31  N         23.7700   33.4290  -15.9560 N.3   158  TRP158     -0.1241
     32  CA        23.1850   34.2440  -17.0150 C.3   158  TRP158      0.1605
     33  C         21.6690   34.3920  -16.9270 C.2   158  TRP158      0.2264
     34  O         21.0600   35.0840  -17.7420 O.2   158  TRP158     -0.2867
     35  CB        23.6060   33.7170  -18.3890 C.3   158  TRP158      0.0550
     36  CG        25.0120   34.0800  -18.7260 C.ar  158  TRP158      0.0003
     37  CD1       26.1410   33.4090  -18.3620 C.ar  158  TRP158      0.0946
     38  CD2       25.4460   35.2180  -19.4800 C.ar  158  TRP158      0.0152
     39  NE1       27.2520   34.0510  -18.8510 N.ar  158  TRP158     -0.2442
     40  CE2       26.8530   35.1640  -19.5410 C.ar  158  TRP158      0.0810
     41  CE3       24.7800   36.2710  -20.1150 C.ar  158  TRP158      0.0012
     42  CZ2       27.6080   36.1280  -20.2100 C.ar  158  TRP158      0.0191
     43  CZ3       25.5300   37.2250  -20.7800 C.ar  158  TRP158      0.0001
     44  CH2       26.9300   37.1480  -20.8210 C.ar  158  TRP158      0.0015
     45  N         26.1900   28.7410  -17.5150 N.3   173  THR173     -0.1218
     46  CA        26.9000   28.1440  -18.6380 C.3   173  THR173      0.1862
     47  C         27.4130   26.7540  -18.2750 C.2   173  THR173      0.2287
     48  O         27.9460   26.0430  -19.1260 O.2   173  THR173     -0.2866
     49  CB        28.0800   29.0160  -19.1030 C.3   173  THR173      0.1770
     50  OG1       28.9850   29.2260  -18.0120 O.3   173  THR173     -0.2211
     51  CG2       27.5800   30.3560  -19.6090 C.3   173  THR173      0.0375
     52  N         25.4330   24.5250  -17.5720 N.3   175  ARG175     -0.1245
     53  CA        24.2840   23.7350  -18.0240 C.3   175  ARG175      0.1563
     54  C         23.3470   23.2990  -16.8950 C.2   175  ARG175      0.2260
     55  O         22.3960   22.5480  -17.1220 O.2   175  ARG175     -0.2867
     56  CB        24.7370   22.5280  -18.8520 C.3   175  ARG175      0.0307
     57  CG        25.7180   22.8820  -19.9570 C.3   175  ARG175      0.0489
     58  CD        26.3470   21.6430  -20.5710 C.3   175  ARG175      0.2205
     59  NE        27.3980   21.9960  -21.5200 N.pl3 175  ARG175     -0.0865
     60  CZ        28.1760   21.1120  -22.1370 C.cat 175  ARG175      0.5346
     61  NH1       28.0250   19.8150  -21.9050 N.pl3 175  ARG175      0.1354
     62  NH2       29.1070   21.5280  -22.9860 N.pl3 175  ARG175      0.1354
     63  N         21.8580   20.1710  -22.2040 N.3   195  ASN195     -0.1225
     64  CA        23.1020   19.7620  -22.8380 C.3   195  ASN195      0.1785
     65  C         23.9250   20.9580  -23.2860 C.2   195  ASN195      0.2598
     66  O         24.9370   20.8100  -23.9740 O.2   195  ASN195     -0.2718
     67  CB        22.8210   18.8250  -24.0130 C.3   195  ASN195      0.1169
     68  CG        22.2260   17.5000  -23.5680 C.2   195  ASN195      0.2627
     69  OD1       21.1560   17.1010  -24.0240 O.2   195  ASN195     -0.2716
     70  ND2       22.9190   16.8160  -22.6640 N.am  195  ASN195     -0.0877
     71  N         23.4810   22.1430  -22.8830 N.am  196  SER196     -0.1938
     72  CA        24.1670   23.3810  -23.2230 C.3   196  SER196      0.2055
     73  C         23.7960   24.4860  -22.2310 C.2   196  SER196      0.2643
     74  O         23.0660   24.2430  -21.2680 O.2   196  SER196     -0.2714
     75  CB        23.8280   23.7970  -24.6550 C.3   196  SER196      0.2130
     76  OG        24.6410   24.8760  -25.0780 O.3   196  SER196     -0.2179
     77  N         24.3100   25.6900  -22.4670 N.am  197  THR197     -0.1950
     78  CA        24.0990   26.8250  -21.5660 C.3   197  THR197      0.1897
     79  C         22.6220   27.1370  -21.3400 C.2   197  THR197      0.2313
     80  O         21.8520   27.2450  -22.2930 O.2   197  THR197     -0.2863
     81  CB        24.7870   28.1020  -22.1030 C.3   197  THR197      0.1794
     82  OG1       26.2090   27.9680  -21.9930 O.3   197  THR197     -0.2208
     83  CG2       24.3370   29.3320  -21.3210 C.3   197  THR197      0.0378
     84  N         20.1170   29.6580  -21.0340 N.3   199  ARG199     -0.1245
     85  CA        20.1650   31.0390  -21.5120 C.3   199  ARG199      0.1563
     86  C         19.1310   31.9510  -20.8600 C.2   199  ARG199      0.2260
     87  O         19.3620   33.1480  -20.7000 O.2   199  ARG199     -0.2867
     88  CB        19.9920   31.0780  -23.0310 C.3   199  ARG199      0.0307
     89  CG        20.2950   32.4280  -23.6490 C.3   199  ARG199      0.0489
     90  CD        21.7180   32.8530  -23.3390 C.3   199  ARG199      0.2205
     91  NE        22.0460   34.1510  -23.9190 N.pl3 199  ARG199     -0.0865
     92  CZ        21.8110   35.3150  -23.3220 C.cat 199  ARG199      0.5346
     93  NH1       21.2400   35.3470  -22.1230 N.pl3 199  ARG199      0.1354
     94  NH2       22.1490   36.4480  -23.9230 N.pl3 199  ARG199      0.1354
     95  N         20.6790   26.9030  -24.9020 N.3   217  ARG217     -0.1245
     96  CA        21.3300   26.8930  -26.2050 C.3   217  ARG217      0.1563
     97  C         21.3090   25.5090  -26.8550 C.2   217  ARG217      0.2260
     98  O         21.8560   25.3270  -27.9410 O.2   217  ARG217     -0.2867
     99  CB        22.7710   27.3890  -26.0830 C.3   217  ARG217      0.0307
    100  CG        22.8780   28.8680  -25.8050 C.3   217  ARG217      0.0489
    101  CD        24.3190   29.3190  -25.7600 C.3   217  ARG217      0.2205
    102  NE        24.4230   30.7630  -25.9440 N.pl3 217  ARG217     -0.0865
    103  CZ        25.5640   31.4420  -25.8900 C.cat 217  ARG217      0.5346
    104  NH1       26.7050   30.8090  -25.6480 N.pl3 217  ARG217      0.1354
    105  NH2       25.5620   32.7550  -26.0760 N.pl3 217  ARG217      0.1354
    106  N         19.0700   28.2000  -30.4910 N.3   258  SER258     -0.1217
    107  CA        19.0680   28.5670  -29.0800 C.3   258  SER258      0.1889
    108  C         17.7720   29.2420  -28.6430 C.2   258  SER258      0.2288
    109  O         17.2200   30.0750  -29.3630 O.2   258  SER258     -0.2866
    110  CB        20.2600   29.4730  -28.7690 C.3   258  SER258      0.2089
    111  OG        20.1300   30.0570  -27.4850 O.3   258  SER258     -0.2183
    112  N         16.3230   31.8890  -26.7140 N.3   260  ARG260     -0.1245
    113  CA        16.8770   33.1470  -26.2330 C.3   260  ARG260      0.1563
    114  C         16.0340   33.7910  -25.1380 C.2   260  ARG260      0.2260
    115  O         16.5640   34.4290  -24.2320 O.2   260  ARG260     -0.2867
    116  CB        17.0260   34.1200  -27.4050 C.3   260  ARG260      0.0307
    117  CG        17.6690   35.4450  -27.0470 C.3   260  ARG260      0.0489
    118  CD        19.0410   35.2430  -26.4260 C.3   260  ARG260      0.2205
    119  NE        19.7430   36.5110  -26.2790 N.pl3 260  ARG260     -0.0865
    120  CZ        19.5930   37.3300  -25.2440 C.cat 260  ARG260      0.5346
    121  NH1       18.7710   37.0090  -24.2550 N.pl3 260  ARG260      0.1354
    122  NH2       20.2730   38.4690  -25.1950 N.pl3 260  ARG260      0.1354
    123  N         16.4880   31.8430  -31.6680 N.3   274  TYR274     -0.1241
    124  CA        17.3390   32.3190  -32.7520 C.3   274  TYR274      0.1605
    125  C         16.9590   31.7200  -34.1090 C.2   274  TYR274      0.2264
    126  O         17.5400   32.0890  -35.1300 O.2   274  TYR274     -0.2867
    127  CB        18.8140   32.0310  -32.4490 C.3   274  TYR274      0.0534
    128  CG        19.4570   33.0230  -31.5020 C.ar  274  TYR274     -0.0201
    129  CD1       18.7830   34.1690  -31.1040 C.ar  274  TYR274     -0.0009
    130  CD2       20.7420   32.8170  -31.0150 C.ar  274  TYR274     -0.0009
    131  CE1       19.3660   35.0820  -30.2430 C.ar  274  TYR274      0.0417
    132  CE2       21.3360   33.7250  -30.1530 C.ar  274  TYR274      0.0417
    133  CZ        20.6420   34.8560  -29.7700 C.ar  274  TYR274      0.1957
    134  OH        21.2220   35.7650  -28.9130 O.3   274  TYR274     -0.2866
    135  N         16.4800   36.5850  -35.8760 N.3   298  ARG298     -0.1245
    136  CA        16.4740   36.1360  -34.4820 C.3   298  ARG298      0.1563
    137  C         15.4340   36.8180  -33.5920 C.2   298  ARG298      0.2260
    138  O         15.2200   38.0240  -33.6850 O.2   298  ARG298     -0.2867
    139  CB        17.8480   36.3640  -33.8560 C.3   298  ARG298      0.0307
    140  CG        18.9830   35.5870  -34.4810 C.3   298  ARG298      0.0489
    141  CD        20.2890   35.9480  -33.7920 C.3   298  ARG298      0.2205
    142  NE        21.3380   34.9670  -34.0430 N.pl3 298  ARG298     -0.0865
    143  CZ        22.5360   34.9980  -33.4700 C.cat 298  ARG298      0.5346
    144  NH1       22.8380   35.9620  -32.6070 N.pl3 298  ARG298      0.1354
    145  NH2       23.4320   34.0630  -33.7570 N.pl3 298  ARG298      0.1354
    146  N         14.7580   38.0140  -29.9080 N.3   300  TYR300     -0.1241
    147  CA        15.5890   38.3480  -28.7590 C.3   300  TYR300      0.1605
    148  C         14.7830   38.5190  -27.4770 C.2   300  TYR300      0.2264
    149  O         15.3110   38.3680  -26.3790 O.2   300  TYR300     -0.2867
    150  CB        16.4180   39.6010  -29.0420 C.3   300  TYR300      0.0534
    151  CG        17.7620   39.2960  -29.6560 C.ar  300  TYR300     -0.0201
    152  CD1       17.9060   39.1500  -31.0290 C.ar  300  TYR300     -0.0009
    153  CD2       18.8880   39.1350  -28.8590 C.ar  300  TYR300     -0.0009
    154  CE1       19.1370   38.8640  -31.5910 C.ar  300  TYR300      0.0417
    155  CE2       20.1200   38.8510  -29.4100 C.ar  300  TYR300      0.0417
    156  CZ        20.2420   38.7150  -30.7750 C.ar  300  TYR300      0.1957
    157  OH        21.4740   38.4280  -31.3230 O.3   300  TYR300     -0.2866
    158  N         18.2810   46.0500  -34.2080 N.3   340  LEU340     -0.1245
    159  CA        17.8790   44.9270  -33.3620 C.3   340  LEU340      0.1561
    160  C         16.9960   45.3880  -32.2020 C.2   340  LEU340      0.2260
    161  O         17.4040   46.2300  -31.4030 O.2   340  LEU340     -0.2867
    162  CB        19.1320   44.2410  -32.8110 C.3   340  LEU340      0.0270
    163  CG        19.0730   42.8570  -32.1560 C.3   340  LEU340      0.0019
    164  CD1       20.4720   42.2630  -32.1090 C.3   340  LEU340      0.0001
    165  CD2       18.4870   42.8950  -30.7600 C.3   340  LEU340      0.0001
    166  N         15.7970   44.1900  -28.8480 N.3   342  GLY342     -0.1210
    167  CA        16.1020   43.1360  -27.8960 C.3   342  GLY342      0.1956
    168  C         15.4980   43.2960  -26.5130 C.2   342  GLY342      0.2611
    169  O         15.6900   42.4400  -25.6520 O.2   342  GLY342     -0.2717
    170  N         14.7600   44.3780  -26.2900 N.am  343  LEU343     -0.1979
    171  CA        14.2070   44.6430  -24.9640 C.3   343  LEU343      0.1596
    172  C         12.7310   45.0250  -25.0170 C.2   343  LEU343      0.2287
    173  O         12.3340   45.9160  -25.7730 O.2   343  LEU343     -0.2864
    174  CB        15.0100   45.7490  -24.2670 C.3   343  LEU343      0.0297
    175  CG        16.4960   45.4720  -24.0270 C.3   343  LEU343      0.0022
    176  CD1       17.2510   46.7490  -23.6760 C.3   343  LEU343      0.0001
    177  CD2       16.6550   44.4340  -22.9310 C.3   343  LEU343      0.0001
    178  N         18.9490   48.5390  -30.5040 N.3   356  ALA356     -0.1245
    179  CA        20.4080   48.6700  -30.4740 C.3   356  ALA356      0.1562
    180  C         20.9240   49.9640  -31.1010 C.2   356  ALA356      0.2260
    181  O         22.1320   50.1990  -31.1420 O.2   356  ALA356     -0.2867
    182  CB        21.0640   47.4590  -31.1470 C.3   356  ALA356      0.0290
    183  N         23.7170   51.6360  -28.1130 N.3   381  ALA381     -0.1231
    184  CA        22.7100   50.6040  -27.9280 C.3   381  ALA381      0.1694
    185  C         22.1110   50.6430  -26.5260 C.2   381  ALA381      0.2592
    186  O         22.8360   50.7810  -25.5390 O.2   381  ALA381     -0.2718
    187  CB        23.3280   49.2450  -28.1900 C.3   381  ALA381      0.0304
    188  N         20.7880   50.5220  -26.4330 N.am  382  ILE382     -0.1966
    189  CA        20.1510   50.4360  -25.1240 C.3   382  ILE382      0.1727
    190  C         20.4680   49.0930  -24.4790 C.2   382  ILE382      0.2616
    191  O         20.1420   48.0420  -25.0280 O.2   382  ILE382     -0.2715
    192  CB        18.6270   50.6100  -25.2010 C.3   382  ILE382      0.0290
    193  CG1       18.2760   51.9340  -25.8840 C.3   382  ILE382      0.0022
    194  CG2       18.0210   50.5610  -23.7990 C.3   382  ILE382      0.0023
    195  CD1       18.8690   53.1450  -25.1970 C.3   382  ILE382      0.0001
    196  N         21.1150   49.1260  -23.3190 N.am  383  THR383     -0.1951
    197  CA        21.4930   47.8950  -22.6330 C.3   383  THR383      0.1897
    198  C         20.4060   47.4370  -21.6630 C.2   383  THR383      0.2313
    199  O         20.2250   46.2400  -21.4370 O.2   383  THR383     -0.2863
    200  CB        22.8190   48.0630  -21.8710 C.3   383  THR383      0.1794
    201  OG1       22.7460   49.2300  -21.0460 O.3   383  THR383     -0.2208
    202  CG2       23.9730   48.2250  -22.8440 C.3   383  THR383      0.0378
    203  N         25.6910   52.9600  -22.7320 N.3   397  GLU397     -0.1245
    204  CA        27.0470   53.4350  -22.5090 C.3   397  GLU397      0.1567
    205  C         27.0680   54.9280  -22.1950 C.2   397  GLU397      0.2260
    206  O         26.5720   55.7430  -22.9750 O.2   397  GLU397     -0.2867
    207  CB        27.9170   53.1300  -23.7260 C.3   397  GLU397      0.0388
    208  CG        29.3700   53.5130  -23.5520 C.3   397  GLU397      0.1160
    209  CD        30.2370   53.0000  -24.6840 C.2   397  GLU397      0.3649
    210  OE1       30.6150   51.8080  -24.6530 O.co2 397  GLU397     -0.2457
    211  OE2       30.5300   53.7880  -25.6090 O.co2 397  GLU397     -0.2457
    212  N         28.9020   51.9910  -18.0260 N.3   421  GLN421     -0.1245
    213  CA        27.8450   51.1560  -18.5840 C.3   421  GLN421      0.1566
    214  C         26.7510   50.9510  -17.5480 C.2   421  GLN421      0.2260
    215  O         27.0170   50.9410  -16.3450 O.2   421  GLN421     -0.2867
    216  CB        28.3920   49.7920  -19.0130 C.3   421  GLN421      0.0367
    217  CG        29.5260   49.8500  -20.0150 C.3   421  GLN421      0.0905
    218  CD        29.0450   49.9350  -21.4490 C.2   421  GLN421      0.2608
    219  OE1       27.8420   49.9950  -21.7160 O.2   421  GLN421     -0.2717
    220  NE2       29.9900   49.9310  -22.3870 N.am  421  GLN421     -0.0878
    221  N         24.2710   48.0130  -16.7770 N.3   423  TRP423     -0.1241
    222  CA        23.9920   46.6380  -17.1720 C.3   423  TRP423      0.1605
    223  C         22.5420   46.2500  -16.9150 C.2   423  TRP423      0.2264
    224  O         21.9320   45.5390  -17.7070 O.2   423  TRP423     -0.2867
    225  CB        24.9430   45.6640  -16.4710 C.3   423  TRP423      0.0550
    226  CG        26.3850   45.8960  -16.8180 C.ar  423  TRP423      0.0003
    227  CD1       27.4050   46.1740  -15.9530 C.ar  423  TRP423      0.0946
    228  CD2       26.9630   45.8910  -18.1310 C.ar  423  TRP423      0.0152
    229  NE1       28.5820   46.3310  -16.6460 N.ar  423  TRP423     -0.2442
    230  CE2       28.3360   46.1660  -17.9830 C.ar  423  TRP423      0.0810
    231  CE3       26.4510   45.6770  -19.4150 C.ar  423  TRP423      0.0012
    232  CZ2       29.2040   46.2310  -19.0700 C.ar  423  TRP423      0.0191
    233  CZ3       27.3150   45.7440  -20.4940 C.ar  423  TRP423      0.0001
    234  CH2       28.6760   46.0180  -20.3140 C.ar  423  TRP423      0.0015
@<TRIPOS>BOND
     1   135   136    1
     2   126   125    2
     3   136   139    1
     4   136   137    1
     5   140   139    1
     6   140   141    1
     7   158   159    1
     8   125   124    1
     9   142   141    1
    10   142   143    2
    11   145   143    1
    12   138   137    2
    13   143   144    1
    14   159   162    1
    15   159   160    1
    16   162   163    1
    17   124   127    1
    18   124   123    1
    19   127   128    1
    20   160   161    2
    21   163   164    1
    22   163   165    1
    23   154   152   ar
    24   154   156   ar
    25   128   129   ar
    26   128   130   ar
    27   157   156    1
    28   182   179    1
    29   181   180    2
    30   129   131   ar
    31   180   179    1
    32   152   151   ar
    33   130   132   ar
    34   156   155   ar
    35   178   179    1
    36   106   107    1
    37   131   133   ar
    38   132   133   ar
    39   146   147    1
    40   133   134    1
    41   151   150    1
    42   151   153   ar
    43   155   153   ar
    44   109   108    2
    45   107   110    1
    46   107   108    1
    47   150   147    1
    48   166   167    1
    49   110   111    1
    50   147   148    1
    51   187   184    1
    52   183   184    1
    53    98    97    2
    54   184   185    1
    55   167   168    1
    56   148   149    2
    57   116   117    1
    58   116   113    1
    59   117   118    1
    60    97    96    1
    61   112   113    1
    62   185   188   am
    63   185   186    2
    64   168   170   am
    65   168   169    2
    66   188   189    1
    67   118   119    1
    68   170   171    1
    69   119   120    2
    70   113   114    1
    71    96    99    1
    72    96    95    1
    73    99   100    1
    74   105   103    1
    75   102   103    2
    76   102   101    1
    77   103   104    1
    78   193   192    1
    79   193   195    1
    80   100   101    1
    81   173   172    2
    82   211   209   ar
    83   120   122    1
    84   120   121    1
    85   192   189    1
    86   192   194    1
    87   114   115    2
    88   189   190    1
    89    76    75    1
    90   191   190    2
    91   172   171    1
    92   171   174    1
    93   209   210   ar
    94   209   208    1
    95    75    72    1
    96   190   196   am
    97   174   175    1
    98   175   176    1
    99   175   177    1
   100    69    68    2
   101    67    68    1
   102    67    64    1
   103    66    65    2
   104    94    92    1
   105    91    90    1
   106    91    92    2
   107   207   208    1
   108   207   204    1
   109    89    90    1
   110    89    88    1
   111    68    70   am
   112    92    93    1
   113   196   197    1
   114    65    71   am
   115    65    64    1
   116    72    71    1
   117    72    73    1
   118    88    85    1
   119    62    60    1
   120   206   205    2
   121   202   200    1
   122    64    63    1
   123   203   204    1
   124   197   200    1
   125   197   198    1
   126   204   205    1
   127    77    73   am
   128    77    78    1
   129   220   218   am
   130    80    79    2
   131    73    74    2
   132    60    61    1
   133    60    59    2
   134    81    82    1
   135    81    78    1
   136    81    83    1
   137   200   201    1
   138   219   218    2
   139   198   199    2
   140    78    79    1
   141    59    58    1
   142    85    84    1
   143    85    86    1
   144   218   217    1
   145    86    87    2
   146    44    43   ar
   147    44    42   ar
   148    43    41   ar
   149    58    57    1
   150   233   234   ar
   151   233   231   ar
   152   234   232   ar
   153    42    40   ar
   154    41    38   ar
   155   217   216    1
   156    57    56    1
   157    51    49    1
   158    40    38   ar
   159    40    39   ar
   160    38    36   ar
   161   231   228   ar
   162    48    47    2
   163    49    46    1
   164    49    50    1
   165   232   230   ar
   166   216   213    1
   167    56    53    1
   168    39    37   ar
   169     7     5    1
   170    36    35    1
   171    36    37   ar
   172    46    47    1
   173    46    45    1
   174   213   212    1
   175   213   214    1
   176     6     5    1
   177    35    32    1
   178    30    28   ar
   179   228   230   ar
   180   228   226   ar
   181    53    52    1
   182    53    54    1
   183   230   229   ar
   184    29    28   ar
   185     5     2    1
   186    34    33    2
   187   224   223    2
   188    28    27    1
   189   214   215    2
   190    22    20    1
   191    19    18    2
   192   222   223    1
   193   222   221    1
   194   222   225    1
   195    55    54    2
   196    32    33    1
   197    32    31    1
   198    20    17    1
   199    20    21    1
   200   226   225    1
   201   226   227   ar
   202    27    24    1
   203   229   227   ar
   204    17    18    1
   205    17    16    1
   206    11    10    2
   207     2     1    1
   208     2     3    1
   209    10    16   am
   210    10     9    1
   211     3     8   am
   212     3     4    2
   213     8     9    1
   214    24    23    1
   215    24    25    1
   216    26    25    2
   217     9    12    1
   218    12    14    1
   219    12    13    1
   220    13    15    1
