@<TRIPOS>MOLECULE
tmp/3v7pA00.pdb
 119 114 0 0 0
SMALL
GASTEIGER

@<TRIPOS>ATOM
      1  N         37.1760   23.3600   12.8400 N.3    82  LEU82      -0.1245
      2  CA        36.9090   23.2820   11.4110 C.3    82  LEU82       0.1561
      3  C         38.1490   22.8300   10.6270 C.2    82  LEU82       0.2260
      4  O         38.0310   22.0000    9.7310 O.2    82  LEU82      -0.2867
      5  CB        36.3850   24.6310   10.9080 C.3    82  LEU82       0.0270
      6  CG        35.8050   24.7090    9.5000 C.3    82  LEU82       0.0019
      7  CD1       34.6090   23.7870    9.3450 C.3    82  LEU82       0.0001
      8  CD2       35.4080   26.1440    9.2300 C.3    82  LEU82       0.0001
      9  N         38.5340   19.3010    8.2450 N.3    86  ILE86      -0.1245
     10  CA        39.1690   19.2600    6.9300 C.3    86  ILE86       0.1561
     11  C         40.3680   18.3160    6.9380 C.2    86  ILE86       0.2260
     12  O         40.5410   17.5120    6.0190 O.2    86  ILE86      -0.2867
     13  CB        39.5810   20.6760    6.4770 C.3    86  ILE86       0.0252
     14  CG1       38.3160   21.5100    6.2560 C.3    86  ILE86       0.0019
     15  CG2       40.4230   20.6150    5.1960 C.3    86  ILE86       0.0019
     16  CD1       38.5510   22.9810    6.2430 C.3    86  ILE86       0.0001
     17  N         38.7270   14.3190    8.0250 N.3    89  ARG89      -0.1245
     18  CA        37.5230   13.6710    7.5380 C.3    89  ARG89       0.1563
     19  C         37.8720   12.4770    6.6350 C.2    89  ARG89       0.2260
     20  O         37.1280   11.5050    6.5960 O.2    89  ARG89      -0.2867
     21  CB        36.6120   14.6740    6.8410 C.3    89  ARG89       0.0307
     22  CG        37.2100   15.2910    5.6120 C.3    89  ARG89       0.0489
     23  CD        36.4070   16.4960    5.1620 C.3    89  ARG89       0.2205
     24  NE        37.0990   17.2440    4.1130 N.pl3  89  ARG89      -0.0865
     25  CZ        36.6650   18.4010    3.6200 C.cat  89  ARG89       0.5346
     26  NH1       37.3480   19.0250    2.6660 N.pl3  89  ARG89       0.1354
     27  NH2       35.5440   18.9350    4.0860 N.pl3  89  ARG89       0.1354
     28  N         27.4100   22.3020    0.0530 N.3   143  ILE143     -0.1231
     29  CA        28.4430   23.2300    0.4950 C.3   143  ILE143      0.1692
     30  C         29.2460   23.7080   -0.7180 C.2   143  ILE143      0.2593
     31  O         29.3460   22.9820   -1.7380 O.2   143  ILE143     -0.2718
     32  CB        29.3590   22.5370    1.5250 C.3   143  ILE143      0.0266
     33  CG1       30.2080   23.5450    2.2840 C.3   143  ILE143      0.0019
     34  CG2       30.1810   21.4580    0.8540 C.3   143  ILE143      0.0020
     35  CD1       30.8600   23.0020    3.5210 C.3   143  ILE143      0.0001
     36  N         29.7790   24.9320   -0.6390 N.am  144  GLY144     -0.1942
     37  CA        30.7450   25.4300   -1.6290 C.3   144  GLY144      0.2014
     38  C         30.5990   26.9200   -1.8160 C.2   144  GLY144      0.2640
     39  O         29.5510   27.3830   -2.2600 O.2   144  GLY144     -0.2714
     40  N         31.6510   27.6700   -1.4950 N.am  145  SER145     -0.1935
     41  CA        31.5890   29.1270   -1.5690 C.3   145  SER145      0.2055
     42  C         32.1750   29.6760   -2.8470 C.2   145  SER145      0.2643
     43  O         32.0320   30.8640   -3.1320 O.2   145  SER145     -0.2714
     44  CB        32.2940   29.7620   -0.3710 C.3   145  SER145      0.2130
     45  OG        33.6550   29.3860   -0.3500 O.3   145  SER145     -0.2179
     46  N         32.8320   28.8190   -3.6200 N.am  146  ASN146     -0.1971
     47  CA        33.4560   29.2480   -4.8710 C.3   146  ASN146      0.1688
     48  C         32.4850   29.1040   -6.0460 C.2   146  ASN146      0.2292
     49  O         32.0110   28.0050   -6.3360 O.2   146  ASN146     -0.2864
     50  CB        34.7410   28.4290   -5.0950 C.3   146  ASN146      0.1181
     51  CG        35.5350   28.8550   -6.3300 C.2   146  ASN146      0.2629
     52  OD1       35.1810   29.7940   -7.0410 O.2   146  ASN146     -0.2716
     53  ND2       36.6250   28.1450   -6.5820 N.am  146  ASN146     -0.0877
     54  N         29.2430   21.1270   -7.1280 N.3   153  MET153     -0.1245
     55  CA        28.6130   20.9760   -5.8190 C.3   153  MET153      0.1570
     56  C         27.1120   20.7600   -5.9720 C.2   153  MET153      0.2261
     57  O         26.5060   19.9530   -5.2550 O.2   153  MET153     -0.2867
     58  CB        28.8840   22.2020   -4.9420 C.3   153  MET153      0.0387
     59  CG        30.3540   22.3960   -4.5220 C.3   153  MET153      0.0595
     60  SD        31.0420   21.1500   -3.3730 S.3   153  MET153     -0.1393
     61  CE        31.7910   20.0160   -4.5100 C.3   153  MET153      0.0692
     62  N         24.7970   24.3050    4.0920 N.3   179  HIS179     -0.1241
     63  CA        25.7550   24.1900    5.1820 C.3   179  HIS179      0.1621
     64  C         25.7640   25.4330    6.1130 C.2   179  HIS179      0.2264
     65  O         25.6630   25.3030    7.3430 O.2   179  HIS179     -0.2867
     66  CB        27.1690   23.8650    4.6890 C.3   179  HIS179      0.0745
     67  CG        28.1470   23.7850    5.8160 C.ar  179  HIS179      0.0817
     68  ND1       29.0290   24.8010    6.1170 N.ar  179  HIS179     -0.2268
     69  CD2       28.2880   22.8560    6.7920 C.ar  179  HIS179      0.1154
     70  CE1       29.7140   24.4720    7.2000 C.ar  179  HIS179      0.1986
     71  NE2       29.2690   23.3040    7.6380 N.ar  179  HIS179     -0.2212
     72  N         28.3350   31.2700    5.3990 N.3   182  TYR182     -0.1227
     73  CA        29.7240   31.6020    5.0480 C.3   182  TYR182      0.1736
     74  C         30.3000   30.6240    4.0280 C.2   182  TYR182      0.2596
     75  O         31.2970   30.9410    3.3690 O.2   182  TYR182     -0.2718
     76  CB        30.6710   31.7090    6.2860 C.3   182  TYR182      0.0548
     77  CG        30.6800   30.4580    7.1430 C.ar  182  TYR182     -0.0200
     78  CD1       31.5420   29.4050    6.8450 C.ar  182  TYR182     -0.0009
     79  CD2       29.8470   30.3360    8.2620 C.ar  182  TYR182     -0.0009
     80  CE1       31.5580   28.2370    7.6130 C.ar  182  TYR182      0.0417
     81  CE2       29.8660   29.1850    9.0640 C.ar  182  TYR182      0.0417
     82  CZ        30.7090   28.1310    8.7160 C.ar  182  TYR182      0.1957
     83  OH        30.7370   26.9680    9.4550 O.3   182  TYR182     -0.2866
     84  N         29.6980   29.4470    3.8810 N.am  183  SER183     -0.1952
     85  CA        30.3480   28.3750    3.1150 C.3   183  SER183      0.1924
     86  C         29.5660   27.9770    1.8680 C.2   183  SER183      0.2314
     87  O         29.9870   27.0720    1.1590 O.2   183  SER183     -0.2863
     88  CB        30.5390   27.1350    3.9770 C.3   183  SER183      0.2116
     89  OG        29.2410   26.7140    4.3830 O.3   183  SER183     -0.2180
     90  N         41.1580   32.0160    7.9150 N.3   227  PHE227     -0.1227
     91  CA        40.7160   30.7600    7.3400 C.3   227  PHE227      0.1736
     92  C         40.3470   30.9520    5.8500 C.2   227  PHE227      0.2595
     93  O         40.7790   30.1920    4.9840 O.2   227  PHE227     -0.2718
     94  CB        39.5200   30.2440    8.1530 C.3   227  PHE227      0.0547
     95  CG        38.8980   28.9890    7.6010 C.ar  227  PHE227     -0.0202
     96  CD1       39.3160   27.7380    8.0370 C.ar  227  PHE227     -0.0042
     97  CD2       37.8900   29.0620    6.6420 C.ar  227  PHE227     -0.0042
     98  CE1       38.7460   26.5790    7.5260 C.ar  227  PHE227     -0.0003
     99  CE2       37.3180   27.9090    6.1210 C.ar  227  PHE227     -0.0003
    100  CZ        37.7440   26.6600    6.5650 C.ar  227  PHE227     -0.0000
    101  N         39.5320   31.9590    5.5510 N.am  228  PHE228     -0.1976
    102  CA        39.1320   32.1440    4.1710 C.3   228  PHE228      0.1639
    103  C         40.2940   32.5100    3.2490 C.2   228  PHE228      0.2290
    104  O         40.3510   32.0530    2.1000 O.2   228  PHE228     -0.2864
    105  CB        37.9700   33.1310    4.0560 C.3   228  PHE228      0.0560
    106  CG        36.6590   32.4730    4.2390 C.ar  228  PHE228     -0.0200
    107  CD1       36.0440   31.8470    3.1550 C.ar  228  PHE228     -0.0042
    108  CD2       36.0770   32.3920    5.4910 C.ar  228  PHE228     -0.0042
    109  CE1       34.8320   31.1950    3.3140 C.ar  228  PHE228     -0.0003
    110  CE2       34.8620   31.7360    5.6630 C.ar  228  PHE228     -0.0003
    111  CZ        34.2490   31.1390    4.5810 C.ar  228  PHE228     -0.0000
    112  N         40.7650   29.2080    1.1600 N.3   232  LEU232     -0.1245
    113  CA        39.8820   29.4720    0.0270 C.3   232  LEU232      0.1561
    114  C         40.3740   30.5830   -0.8730 C.2   232  LEU232      0.2260
    115  O         39.8040   30.8240   -1.9350 O.2   232  LEU232     -0.2867
    116  CB        38.4520   29.7490    0.5080 C.3   232  LEU232      0.0270
    117  CG        37.7510   28.4510    0.9210 C.3   232  LEU232      0.0019
    118  CD1       36.6400   28.6820    1.9090 C.3   232  LEU232      0.0001
    119  CD2       37.2460   27.7400   -0.3200 C.3   232  LEU232      0.0001
@<TRIPOS>BOND
     1    54    55    1
     2    52    51    2
     3    53    51   am
     4    49    48    2
     5    51    50    1
     6    48    47    1
     7    56    55    1
     8    56    57    2
     9    55    58    1
    10    50    47    1
    11    58    59    1
    12    47    46    1
    13    59    60    1
    14    61    60    1
    15    46    42   am
    16    43    42    2
    17    42    41    1
    18    39    38    2
    19   115   114    2
    20    38    37    1
    21    38    40   am
    22    31    30    2
    23    37    36    1
    24    41    40    1
    25    41    44    1
    26   114   113    1
    27    30    36   am
    28    30    29    1
    29    44    45    1
    30   119   117    1
    31   113   116    1
    32   113   112    1
    33    28    29    1
    34    29    32    1
    35   116   117    1
    36    34    32    1
    37   117   118    1
    38    87    86    2
    39    32    33    1
    40    86    85    1
    41   104   103    2
    42    33    35    1
    43    26    25    1
    44    85    84    1
    45    85    88    1
    46   107   109   ar
    47   107   106   ar
    48   103   102    1
    49   109   111   ar
    50    75    74    2
    51    25    27    1
    52    25    24    2
    53    84    74   am
    54    88    89    1
    55    74    73    1
    56   105   102    1
    57   105   106    1
    58    62    63    1
    59    24    23    1
    60   102   101    1
    61   106   108   ar
    62   111   110   ar
    63    66    63    1
    64    66    67    1
    65    93    92    2
    66    73    72    1
    67    73    76    1
    68    23    22    1
    69    63    64    1
    70    15    13    1
    71   108   110   ar
    72   101    92   am
    73    22    21    1
    74    67    68   ar
    75    67    69   ar
    76    92    91    1
    77    12    11    2
    78    64    65    2
    79    68    70   ar
    80    99   100   ar
    81    99    97   ar
    82    16    14    1
    83    14    13    1
    84    76    77    1
    85    13    10    1
    86   100    98   ar
    87    20    19    2
    88    19    18    1
    89    97    95   ar
    90    69    71   ar
    91    21    18    1
    92    78    77   ar
    93    78    80   ar
    94    10    11    1
    95    10     9    1
    96    77    79   ar
    97    70    71   ar
    98    91    90    1
    99    91    94    1
   100    98    96   ar
   101    18    17    1
   102    95    96   ar
   103    95    94    1
   104    80    82   ar
   105    79    81   ar
   106    82    81   ar
   107    82    83    1
   108     8     6    1
   109     7     6    1
   110     6     5    1
   111     4     3    2
   112     3     2    1
   113     5     2    1
   114     2     1    1
