@<TRIPOS>MOLECULE
tmp/3v7tD01.pdb
 134 133 0 0 0
SMALL
GASTEIGER

@<TRIPOS>ATOM
      1  N          4.2910  -14.6930   -3.6590 N.3    44  HIS44      -0.1241
      2  CA         5.4940  -13.8480   -3.7470 C.3    44  HIS44       0.1621
      3  C          6.7640  -14.6210   -4.1130 C.2    44  HIS44       0.2264
      4  O          7.7220  -14.0260   -4.6090 O.2    44  HIS44      -0.2867
      5  CB         5.6820  -12.9630   -2.4980 C.3    44  HIS44       0.0745
      6  CG         6.2990  -13.6590   -1.3300 C.ar   44  HIS44       0.0817
      7  ND1        5.5240  -14.2520   -0.3560 N.ar   44  HIS44      -0.2268
      8  CD2        7.6040  -13.8180   -1.0100 C.ar   44  HIS44       0.1154
      9  CE1        6.3750  -14.7650    0.5130 C.ar   44  HIS44       0.1986
     10  NE2        7.6380  -14.5260    0.1630 N.ar   44  HIS44      -0.2212
     11  N          1.6250   -7.8240    1.5540 N.3    87  GLN87      -0.1245
     12  CA         0.9500   -6.8690    2.4400 C.3    87  GLN87       0.1566
     13  C         -0.4870   -6.5990    2.0000 C.2    87  GLN87       0.2260
     14  O         -1.3450   -6.3540    2.8500 O.2    87  GLN87      -0.2867
     15  CB         1.7490   -5.5600    2.5590 C.3    87  GLN87       0.0367
     16  CG         3.0760   -5.7050    3.3130 C.3    87  GLN87       0.0905
     17  CD         4.1760   -6.3640    2.5020 C.2    87  GLN87       0.2608
     18  OE1        4.4800   -5.9730    1.3720 O.2    87  GLN87      -0.2717
     19  NE2        4.7950   -7.3900    3.0640 N.am   87  GLN87      -0.0878
     20  N          9.4480  -18.0900   15.4900 N.3   188  ASP188     -0.1225
     21  CA         8.9740  -17.4650   14.2440 C.3   188  ASP188      0.1805
     22  C          9.4930  -18.1240   12.9660 C.2   188  ASP188      0.2598
     23  O         10.4570  -18.8890   12.9930 O.2   188  ASP188     -0.2718
     24  CB         9.3350  -15.9530   14.2150 C.3   188  ASP188      0.1424
     25  CG         8.4450  -15.0750   13.3410 C.2   188  ASP188      0.3668
     26  OD1        7.4420  -15.5930   12.7950 O.co2 188  ASP188     -0.2456
     27  OD2        8.7410  -13.8660   13.2190 O.co2 188  ASP188     -0.2456
     28  N          8.8310  -17.8060   11.8410 N.am  189  SER189     -0.1938
     29  CA         9.2300  -18.1810   10.4910 C.3   189  SER189      0.2055
     30  C         10.0570  -16.9860    9.9850 C.2   189  SER189      0.2643
     31  O          9.9080  -15.8800   10.5100 O.2   189  SER189     -0.2714
     32  CB         8.0030  -18.3950    9.6120 C.3   189  SER189      0.2130
     33  OG         7.2080  -17.2250    9.5190 O.3   189  SER189     -0.2179
     34  N         10.9410  -17.2000    9.0050 N.am  190  CYS190     -0.1953
     35  CA        11.8000  -16.1320    8.4890 C.3   190  CYS190      0.1843
     36  C         11.9970  -16.2380    6.9700 C.2   190  CYS190      0.2625
     37  O         11.3580  -17.0760    6.3330 O.2   190  CYS190     -0.2714
     38  CB        13.1320  -16.1220    9.2390 C.3   190  CYS190      0.0997
     39  SG        14.0170  -14.5400    9.1830 S.3   190  CYS190     -0.0797
     40  N         12.8550  -15.3650    6.3890 N.am  191  GLN191     -0.1977
     41  CA        13.1850  -15.3500    4.9600 C.3   191  GLN191      0.1601
     42  C         13.7470  -16.7280    4.5860 C.2   191  GLN191      0.2287
     43  O         14.6590  -17.2220    5.2520 O.2   191  GLN191     -0.2864
     44  CB        14.2070  -14.2350    4.6640 C.3   191  GLN191      0.0394
     45  CG        14.4050  -13.9340    3.1830 C.3   191  GLN191      0.0908
     46  CD        15.5710  -13.0050    2.9550 C.2   191  GLN191      0.2608
     47  OE1       16.7400  -13.3840    3.0970 O.2   191  GLN191     -0.2717
     48  NE2       15.2790  -11.7680    2.5860 N.am  191  GLN191     -0.0878
     49  N          9.2820  -18.8700    3.5740 N.3   194  SER194     -0.1217
     50  CA         8.1770  -18.3830    2.7460 C.3   194  SER194      0.1889
     51  C          7.6380  -19.4630    1.8210 C.2   194  SER194      0.2288
     52  O          8.4170  -20.1850    1.1980 O.2   194  SER194     -0.2866
     53  CB         8.6150  -17.1720    1.9330 C.3   194  SER194      0.2089
     54  OG         8.7840  -16.0300    2.7540 O.3   194  SER194     -0.2183
     55  N          3.5010  -19.5630    4.9370 N.3   212  VAL212     -0.1231
     56  CA         4.4390  -18.5010    5.3490 C.3   212  VAL212      0.1692
     57  C          4.3900  -17.3870    4.3030 C.2   212  VAL212      0.2593
     58  O          4.6460  -17.6420    3.1250 O.2   212  VAL212     -0.2718
     59  CB         5.8880  -18.9960    5.6010 C.3   212  VAL212      0.0266
     60  CG1        6.7560  -17.8760    6.1720 C.3   212  VAL212      0.0020
     61  CG2        5.9180  -20.2160    6.5160 C.3   212  VAL212      0.0020
     62  N          3.9810  -16.1810    4.7270 N.am  213  SER213     -0.1938
     63  CA         3.8070  -15.0420    3.8300 C.3   213  SER213      0.2055
     64  C          4.7820  -13.8920    4.0800 C.2   213  SER213      0.2643
     65  O          5.6470  -13.6430    3.2400 O.2   213  SER213     -0.2714
     66  CB         2.3590  -14.5550    3.8660 C.3   213  SER213      0.2130
     67  OG         2.1300  -13.4910    2.9570 O.3   213  SER213     -0.2179
     68  N          4.6240  -13.1680    5.2070 N.am  214  TRP214     -0.1959
     69  CA         5.4520  -12.0070    5.5310 C.3   214  TRP214      0.1771
     70  C          5.4620  -11.6720    7.0220 C.2   214  TRP214      0.2620
     71  O          4.9610  -12.4370    7.8460 O.2   214  TRP214     -0.2715
     72  CB         5.0000  -10.7810    4.7050 C.3   214  TRP214      0.0590
     73  CG         3.6300  -10.2600    5.0430 C.ar  214  TRP214      0.0006
     74  CD1        2.4330  -10.8150    4.7000 C.ar  214  TRP214      0.0946
     75  CD2        3.3240   -9.0400    5.7330 C.ar  214  TRP214      0.0152
     76  NE1        1.3990  -10.0260    5.1470 N.ar  214  TRP214     -0.2442
     77  CE2        1.9170   -8.9280    5.7820 C.ar  214  TRP214      0.0810
     78  CE3        4.1040   -8.0220    6.3080 C.ar  214  TRP214      0.0012
     79  CZ2        1.2730   -7.8360    6.3770 C.ar  214  TRP214      0.0191
     80  CZ3        3.4660   -6.9590    6.9230 C.ar  214  TRP214      0.0001
     81  CH2        2.0680   -6.8700    6.9530 C.ar  214  TRP214      0.0015
     82  N          6.0360  -10.5170    7.3320 N.am  215  GLY215     -0.1940
     83  CA         6.1470   -9.9590    8.6700 C.3   215  GLY215      0.2014
     84  C          7.2040   -8.8790    8.7040 C.2   215  GLY215      0.2639
     85  O          8.0730   -8.8380    7.8260 O.2   215  GLY215     -0.2714
     86  N          7.1280   -7.9820    9.7000 N.am  216  GLU216     -0.1963
     87  CA         8.1300   -6.9320    9.8680 C.3   216  GLU216      0.1733
     88  C          9.2990   -7.5780   10.5900 C.2   216  GLU216      0.2617
     89  O          9.2930   -7.7030   11.8200 O.2   216  GLU216     -0.2715
     90  CB         7.5690   -5.7310   10.6390 C.3   216  GLU216      0.0429
     91  CG         6.7480   -4.7960    9.7690 C.3   216  GLU216      0.1163
     92  CD         6.2020   -3.5670   10.4670 C.2   216  GLU216      0.3649
     93  OE1        5.0540   -3.1770   10.1570 O.co2 216  GLU216     -0.2457
     94  OE2        6.9170   -2.9900   11.3180 O.co2 216  GLU216     -0.2457
     95  N         10.2390   -8.0800    9.7980 N.am  217  GLY217     -0.1940
     96  CA        11.4020   -8.8000   10.2920 C.3   217  GLY217      0.2014
     97  C         11.0350  -10.1830   10.7940 C.2   217  GLY217      0.2639
     98  O          9.9670  -10.7130   10.4600 O.2   217  GLY217     -0.2714
     99  N         11.9220  -10.7740   11.6060 N.am  218  CYS218     -0.1967
    100  CA        11.7330  -12.1080   12.1700 C.3   218  CYS218      0.1712
    101  C         11.8850  -12.0570   13.6850 C.2   218  CYS218      0.2296
    102  O         12.8980  -11.5600   14.1790 O.2   218  CYS218     -0.2864
    103  CB        12.7020  -13.1040   11.5370 C.3   218  CYS218      0.0983
    104  SG        12.6360  -13.1490    9.7260 S.3   218  CYS218     -0.0798
    105  N          5.5230   -7.7650   16.5050 N.3   223  ARG223     -0.1231
    106  CA         5.4500   -8.0680   15.0740 C.3   223  ARG223      0.1679
    107  C          5.4310   -9.5960   14.8310 C.2   223  ARG223      0.2434
    108  O          6.4340  -10.1480   14.3640 O.2   223  ARG223     -0.2733
    109  CB         6.5920   -7.3720   14.2850 C.3   223  ARG223      0.0321
    110  CG         6.6680   -5.8380   14.3960 C.3   223  ARG223      0.0489
    111  CD         5.4900   -5.1250   13.7530 C.3   223  ARG223      0.2205
    112  NE         5.6730   -3.6740   13.6990 N.pl3 223  ARG223     -0.0865
    113  CZ         5.2500   -2.8220   14.6290 C.cat 223  ARG223      0.5346
    114  NH1        4.6300   -3.2660   15.7160 N.pl3 223  ARG223      0.1354
    115  NH2        5.4520   -1.5190   14.4830 N.pl3 223  ARG223      0.1354
    116  N          4.3170  -10.3120   15.1490 N.am  224  PRO224     -0.2718
    117  CA         4.2900  -11.7670   14.9000 C.3   224  PRO224      0.1535
    118  C          4.2820  -12.1000   13.4080 C.2   224  PRO224      0.2599
    119  O          3.9210  -11.2500   12.5910 O.2   224  PRO224     -0.2715
    120  CB         2.9890  -12.2290   15.5740 C.3   224  PRO224      0.0310
    121  CG         2.5130  -11.0690   16.3910 C.3   224  PRO224      0.0237
    122  CD         3.0320   -9.8510   15.7120 C.3   224  PRO224      0.0939
    123  N          4.6850  -13.3280   13.0790 N.am  225  GLY225     -0.1941
    124  CA         4.7290  -13.8350   11.7110 C.3   225  GLY225      0.2014
    125  C          3.3550  -13.9200   11.0790 C.2   225  GLY225      0.2638
    126  O          2.4050  -14.3900   11.7150 O.2   225  GLY225     -0.2714
    127  N          3.2390  -13.4300    9.8320 N.am  226  ILE226     -0.1977
    128  CA         1.9760  -13.4090    9.0950 C.3   226  ILE226      0.1596
    129  C          1.9390  -14.5050    8.0400 C.2   226  ILE226      0.2287
    130  O          2.8930  -14.6890    7.2750 O.2   226  ILE226     -0.2864
    131  CB         1.6150  -11.9910    8.5700 C.3   226  ILE226      0.0276
    132  CG1        1.5480  -10.9920    9.7530 C.3   226  ILE226      0.0022
    133  CG2        0.2860  -11.9970    7.7910 C.3   226  ILE226      0.0022
    134  CD1        1.6730   -9.5800    9.3990 C.3   226  ILE226      0.0001
@<TRIPOS>BOND
     1     4     3    2
     2     3     2    1
     3     2     1    1
     4     2     5    1
     5     5     6    1
     6     6     8   ar
     7     6     7   ar
     8     8    10   ar
     9     7     9   ar
    10    10     9   ar
    11    52    51    2
    12    18    17    2
    13    11    12    1
    14    51    50    1
    15    53    50    1
    16    53    54    1
    17    13    12    1
    18    13    14    2
    19    12    15    1
    20    17    19   am
    21    17    16    1
    22    15    16    1
    23    48    46   am
    24    50    49    1
    25    46    47    2
    26    46    45    1
    27    67    66    1
    28    58    57    2
    29    45    44    1
    30    65    64    2
    31    63    66    1
    32    63    64    1
    33    63    62    1
    34    64    68   am
    35    57    62   am
    36    57    56    1
    37    42    41    1
    38    42    43    2
    39    44    41    1
    40    74    73   ar
    41    74    76   ar
    42    72    73    1
    43    72    69    1
    44    55    56    1
    45    41    40    1
    46    73    75   ar
    47    76    77   ar
    48    68    69    1
    49    56    59    1
    50    69    70    1
    51    59    60    1
    52    59    61    1
    53    75    77   ar
    54    75    78   ar
    55    77    79   ar
    56    78    80   ar
    57    37    36    2
    58    79    81   ar
    59    40    36   am
    60    80    81   ar
    61    36    35    1
    62    70    82   am
    63    70    71    2
    64   130   129    2
    65    82    83    1
    66   133   131    1
    67    85    84    2
    68   129   128    1
    69    35    34    1
    70    35    38    1
    71   131   128    1
    72   131   132    1
    73    83    84    1
    74    84    86   am
    75    34    30   am
    76   128   127    1
    77    39    38    1
    78    39   104    1
    79   134   132    1
    80    33    32    1
    81    32    29    1
    82    86    87    1
    83   104   103    1
    84    91    92    1
    85    91    90    1
    86    95    96    1
    87    95    88   am
    88   127   125   am
    89    87    88    1
    90    87    90    1
    91    30    29    1
    92    30    31    2
    93    93    92   ar
    94    96    97    1
    95    98    97    2
    96    92    94   ar
    97    29    28    1
    98    88    89    2
    99    97    99   am
   100   125   124    1
   101   125   126    2
   102   103   100    1
   103    99   100    1
   104   124   123    1
   105    28    22   am
   106   100   101    1
   107   119   118    2
   108    26    25   ar
   109    22    23    2
   110    22    21    1
   111   123   118   am
   112    27    25   ar
   113    25    24    1
   114   118   117    1
   115   101   102    2
   116   112   111    1
   117   112   113    2
   118   111   110    1
   119    24    21    1
   120    21    20    1
   121   109   110    1
   122   109   106    1
   123   108   107    2
   124   115   113    1
   125   113   114    1
   126   107   106    1
   127   107   116   am
   128   117   116    1
   129   117   120    1
   130   106   105    1
   131   116   122    1
   132   120   121    1
   133   122   121    1
