@<TRIPOS>MOLECULE
tmp/3v7uA01.pdb
 78 74 0 0 0
SMALL
GASTEIGER

@<TRIPOS>ATOM
      1  N         16.1070   13.2060   17.9270 N.3    45  ASP45      -0.1225
      2  CA        16.1510   13.9020   16.6460 C.3    45  ASP45       0.1805
      3  C         14.8210   13.8050   15.8990 C.2    45  ASP45       0.2598
      4  O         14.5140   14.6670   15.0750 O.2    45  ASP45      -0.2718
      5  CB        17.2660   13.3330   15.7570 C.3    45  ASP45       0.1424
      6  CG        18.6480   13.7340   16.2220 C.2    45  ASP45       0.3668
      7  OD1       18.8080   14.8360   16.7960 O.co2  45  ASP45      -0.2456
      8  OD2       19.5740   12.9330   16.0220 O.co2  45  ASP45      -0.2456
      9  N         14.0650   12.7310   16.1400 N.am   46  GLY46      -0.1957
     10  CA        12.7170   12.6170   15.5940 C.3    46  GLY46       0.1869
     11  C         11.7960   13.7340   16.0720 C.2    46  GLY46       0.2309
     12  O         11.0350   14.3280   15.2980 O.2    46  GLY46      -0.2863
     13  N         13.0020   17.0340   14.4200 N.3    49  LEU49      -0.1245
     14  CA        12.5310   17.1480   13.0210 C.3    49  LEU49       0.1561
     15  C         11.0600   17.5970   12.9530 C.2    49  LEU49       0.2260
     16  O         10.6890   18.4580   12.1520 O.2    49  LEU49      -0.2867
     17  CB        12.7350   15.8420   12.2670 C.3    49  LEU49       0.0270
     18  CG        14.1810   15.4570   11.9530 C.3    49  LEU49       0.0019
     19  CD1       14.2580   13.9900   11.5610 C.3    49  LEU49       0.0001
     20  CD2       14.7480   16.3510   10.8460 C.3    49  LEU49       0.0001
     21  N         16.9990   16.9090    7.0120 N.3   119  ASN119     -0.1225
     22  CA        17.9140   15.7930    6.8010 C.3   119  ASN119      0.1785
     23  C         18.0350   15.4750    5.2840 C.2   119  ASN119      0.2597
     24  O         19.0890   15.6880    4.6830 O.2   119  ASN119     -0.2718
     25  CB        17.4390   14.5350    7.5370 C.3   119  ASN119      0.1169
     26  CG        17.9090   14.4580    9.0030 C.2   119  ASN119      0.2627
     27  OD1       18.7620   15.2300    9.4670 O.2   119  ASN119     -0.2716
     28  ND2       17.3910   13.4660    9.7100 N.am  119  ASN119     -0.0877
     29  N         16.9660   14.9530    4.6910 N.am  120  GLU120     -0.1979
     30  CA        17.0450   14.4670    3.3150 C.3   120  GLU120      0.1602
     31  C         15.6810   14.2700    2.6690 C.2   120  GLU120      0.2287
     32  O         14.6380   14.2940    3.3310 O.2   120  GLU120     -0.2864
     33  CB        17.8510   13.1500    3.2380 C.3   120  GLU120      0.0415
     34  CG        17.0690   11.8940    3.6460 C.3   120  GLU120      0.1163
     35  CD        16.9110   11.7900    5.1620 C.2   120  GLU120      0.3649
     36  OE1       15.7640   11.7500    5.6620 O.co2 120  GLU120     -0.2457
     37  OE2       17.9550   11.7510    5.8510 O.co2 120  GLU120     -0.2457
     38  N         22.9380   10.9680    8.7980 N.3   159  ALA159     -0.1231
     39  CA        21.7320   10.1370    8.8940 C.3   159  ALA159      0.1694
     40  C         21.6480    9.0920    7.7730 C.2   159  ALA159      0.2592
     41  O         22.5750    8.3310    7.5550 O.2   159  ALA159     -0.2718
     42  CB        20.4780   11.0160    8.8860 C.3   159  ALA159      0.0304
     43  N         20.5040    9.0410    7.1030 N.am  160  TYR160     -0.1976
     44  CA        20.2760    8.0710    6.0330 C.3   160  TYR160      0.1639
     45  C         21.4600    8.0170    5.0360 C.2   160  TYR160      0.2290
     46  O         21.9440    6.9430    4.7050 O.2   160  TYR160     -0.2864
     47  CB        18.9730    8.4270    5.3190 C.3   160  TYR160      0.0560
     48  CG        18.2720    7.2720    4.6210 C.ar  160  TYR160     -0.0198
     49  CD1       18.9040    6.0510    4.4160 C.ar  160  TYR160     -0.0009
     50  CD2       16.9650    7.4150    4.1740 C.ar  160  TYR160     -0.0009
     51  CE1       18.2420    5.0000    3.7610 C.ar  160  TYR160      0.0417
     52  CE2       16.3040    6.3830    3.5320 C.ar  160  TYR160      0.0417
     53  CZ        16.9460    5.1900    3.3210 C.ar  160  TYR160      0.1957
     54  OH        16.2620    4.1790    2.6910 O.3   160  TYR160     -0.2866
     55  N         24.2940    5.8090    6.0510 N.3   163  SER163     -0.1217
     56  CA        23.9740    4.3980    5.8670 C.3   163  SER163      0.1889
     57  C         24.1670    3.9360    4.4180 C.2   163  SER163      0.2288
     58  O         24.4130    2.7600    4.1730 O.2   163  SER163     -0.2866
     59  CB        22.5300    4.1230    6.2880 C.3   163  SER163      0.2089
     60  OG        22.4050    4.3010    7.6830 O.3   163  SER163     -0.2183
     61  N         12.4200   14.0030    5.1980 N.3   219  ASP219     -0.1225
     62  CA        12.6580   13.7170    6.6200 C.3   219  ASP219      0.1805
     63  C         11.7600   12.5540    7.0480 C.2   219  ASP219      0.2597
     64  O         11.8380   11.4820    6.4540 O.2   219  ASP219     -0.2718
     65  CB        12.4950   14.9840    7.4890 C.3   219  ASP219      0.1424
     66  CG        13.4620   16.1070    7.0730 C.2   219  ASP219      0.3668
     67  OD1       14.5680   15.8010    6.6140 O.co2 219  ASP219     -0.2456
     68  OD2       13.1290   17.2980    7.1870 O.co2 219  ASP219     -0.2456
     69  N         10.8940   12.7470    8.0450 N.am  220  HIS220     -0.1975
     70  CA        10.0010   11.6570    8.4800 C.3   220  HIS220      0.1656
     71  C          8.7720   11.3540    7.5700 C.2   220  HIS220      0.2291
     72  O          8.2470   10.2450    7.5730 O.2   220  HIS220     -0.2864
     73  CB         9.5500   11.8890    9.9330 C.3   220  HIS220      0.0771
     74  CG         9.0660   13.2820   10.2070 C.ar  220  HIS220      0.0820
     75  ND1        9.7540   14.4090    9.8030 N.ar  220  HIS220     -0.2267
     76  CD2        7.9720   13.7280   10.8710 C.ar  220  HIS220      0.1154
     77  CE1        9.0930   15.4850   10.1850 C.ar  220  HIS220      0.1986
     78  NE2        8.0110   15.1010   10.8430 N.ar  220  HIS220     -0.2212
@<TRIPOS>BOND
     1    31    30    1
     2    31    32    2
     3    54    53    1
     4    33    30    1
     5    33    34    1
     6    30    29    1
     7    53    52   ar
     8    53    51   ar
     9    52    50   ar
    10    34    35    1
    11    51    49   ar
    12    58    57    2
    13    50    48   ar
    14    49    48   ar
    15    57    56    1
    16    48    47    1
    17    24    23    2
    18    29    23   am
    19    46    45    2
    20    45    44    1
    21    35    36   ar
    22    35    37   ar
    23    61    62    1
    24    23    22    1
    25    47    44    1
    26    56    55    1
    27    56    59    1
    28    44    43    1
    29    59    60    1
    30    64    63    2
    31    67    66   ar
    32    62    63    1
    33    62    65    1
    34    22    21    1
    35    22    25    1
    36    63    69   am
    37    66    68   ar
    38    66    65    1
    39    43    40   am
    40    25    26    1
    41    41    40    2
    42    71    72    2
    43    71    70    1
    44    40    39    1
    45    69    70    1
    46    70    73    1
    47    38    39    1
    48    42    39    1
    49    26    27    2
    50    26    28   am
    51    75    77   ar
    52    75    74   ar
    53    73    74    1
    54    77    78   ar
    55    74    76   ar
    56    78    76   ar
    57    20    18    1
    58    19    18    1
    59    18    17    1
    60    16    15    2
    61    17    14    1
    62    15    14    1
    63    14    13    1
    64     4     3    2
    65    12    11    2
    66    10    11    1
    67    10     9    1
    68     5     6    1
    69     5     2    1
    70     3     9   am
    71     3     2    1
    72     8     6   ar
    73     6     7   ar
    74     2     1    1
