@<TRIPOS>MOLECULE
tmp/3v7uA00.pdb
 94 90 0 0 0
SMALL
GASTEIGER

@<TRIPOS>ATOM
      1  N         14.2010   13.1580   21.0060 N.3    44  GLY44      -0.1210
      2  CA        15.2960   12.7690   20.1490 C.3    44  GLY44       0.1956
      3  C         15.3500   13.6520   18.9210 C.2    44  GLY44       0.2612
      4  O         14.7290   14.7220   18.8720 O.2    44  GLY44      -0.2717
      5  N         16.1070   13.2060   17.9270 N.am   45  ASP45      -0.1959
      6  CA        16.1510   13.9020   16.6460 C.3    45  ASP45       0.1840
      7  C         14.8210   13.8050   15.8990 C.2    45  ASP45       0.2622
      8  O         14.5140   14.6670   15.0750 O.2    45  ASP45      -0.2715
      9  CB        17.2660   13.3330   15.7570 C.3    45  ASP45       0.1450
     10  CG        18.6480   13.7340   16.2220 C.2    45  ASP45       0.3671
     11  OD1       18.8080   14.8360   16.7960 O.co2  45  ASP45      -0.2456
     12  OD2       19.5740   12.9330   16.0220 O.co2  45  ASP45      -0.2456
     13  N         14.0650   12.7310   16.1400 N.am   46  GLY46      -0.1954
     14  CA        12.7170   12.6170   15.5940 C.3    46  GLY46       0.1869
     15  C         11.7960   13.7340   16.0720 C.2    46  GLY46       0.2309
     16  O         11.0350   14.3280   15.2980 O.2    46  GLY46      -0.2863
     17  N         13.0020   17.0340   14.4200 N.3    49  LEU49      -0.1245
     18  CA        12.5310   17.1480   13.0210 C.3    49  LEU49       0.1561
     19  C         11.0600   17.5970   12.9530 C.2    49  LEU49       0.2260
     20  O         10.6890   18.4580   12.1520 O.2    49  LEU49      -0.2867
     21  CB        12.7350   15.8420   12.2670 C.3    49  LEU49       0.0270
     22  CG        14.1810   15.4570   11.9530 C.3    49  LEU49       0.0019
     23  CD1       14.2580   13.9900   11.5610 C.3    49  LEU49       0.0001
     24  CD2       14.7480   16.3510   10.8460 C.3    49  LEU49       0.0001
     25  N         19.6030    9.3370   24.4320 N.3    71  HIS71      -0.1241
     26  CA        20.9590    9.4760   23.9070 C.3    71  HIS71       0.1621
     27  C         21.1990   10.8140   23.1990 C.2    71  HIS71       0.2264
     28  O         20.2520   11.5190   22.8330 O.2    71  HIS71      -0.2867
     29  CB        21.2900    8.3090   22.9710 C.3    71  HIS71       0.0745
     30  CG        20.4120    8.2290   21.7600 C.ar   71  HIS71       0.0817
     31  ND1       20.7820    8.7480   20.5370 N.ar   71  HIS71      -0.2268
     32  CD2       19.1910    7.6730   21.5790 C.ar   71  HIS71       0.1154
     33  CE1       19.8240    8.5210   19.6570 C.ar   71  HIS71       0.1986
     34  NE2       18.8490    7.8680   20.2620 N.ar   71  HIS71      -0.2212
     35  N         21.8870   14.8850   17.1390 N.3    74  PHE74      -0.1227
     36  CA        22.6660   15.8250   16.3560 C.3    74  PHE74       0.1736
     37  C         22.0170   17.1630   16.3770 C.2    74  PHE74       0.2595
     38  O         22.6700   18.1870   16.1690 O.2    74  PHE74      -0.2718
     39  CB        22.8420   15.3400   14.8960 C.3    74  PHE74       0.0547
     40  CG        24.0230   14.4920   14.7330 C.ar   74  PHE74      -0.0202
     41  CD1       25.2520   15.0630   14.4260 C.ar   74  PHE74      -0.0042
     42  CD2       23.9500   13.1390   14.9400 C.ar   74  PHE74      -0.0042
     43  CE1       26.3750   14.3020   14.3160 C.ar   74  PHE74      -0.0003
     44  CE2       25.0810   12.3540   14.8220 C.ar   74  PHE74      -0.0003
     45  CZ        26.3000   12.9420   14.5080 C.ar   74  PHE74      -0.0000
     46  N         20.7160   17.1610   16.6130 N.am   75  TYR75      -0.1976
     47  CA        19.9910   18.4110   16.6390 C.3    75  TYR75       0.1639
     48  C         19.6570   18.7140   18.0880 C.2    75  TYR75       0.2290
     49  O         19.6000   19.8670   18.4970 O.2    75  TYR75      -0.2864
     50  CB        18.7380   18.3200   15.7810 C.3    75  TYR75       0.0560
     51  CG        19.0410   18.0690   14.3140 C.ar   75  TYR75      -0.0198
     52  CD1       18.3910   17.0660   13.6110 C.ar   75  TYR75      -0.0009
     53  CD2       19.9770   18.8570   13.6340 C.ar   75  TYR75      -0.0009
     54  CE1       18.6730   16.8400   12.2730 C.ar   75  TYR75       0.0417
     55  CE2       20.2590   18.6410   12.3050 C.ar   75  TYR75       0.0417
     56  CZ        19.6020   17.6350   11.6330 C.ar   75  TYR75       0.1957
     57  OH        19.8960   17.4310   10.3070 O.3    75  TYR75      -0.2866
     58  N         16.9990   16.9090    7.0120 N.3   119  ASN119     -0.1240
     59  CA        17.9140   15.7930    6.8010 C.3   119  ASN119      0.1653
     60  C         18.0350   15.4750    5.2840 C.2   119  ASN119      0.2266
     61  O         19.0890   15.6880    4.6830 O.2   119  ASN119     -0.2867
     62  CB        17.4390   14.5350    7.5370 C.3   119  ASN119      0.1155
     63  CG        17.9090   14.4580    9.0030 C.2   119  ASN119      0.2627
     64  OD1       18.7620   15.2300    9.4670 O.2   119  ASN119     -0.2716
     65  ND2       17.3910   13.4660    9.7100 N.am  119  ASN119     -0.0877
     66  N         23.7640   18.5640    7.3650 N.3   155  SER155     -0.1217
     67  CA        23.4860   17.9680    8.6840 C.3   155  SER155      0.1889
     68  C         22.7770   16.6130    8.5390 C.2   155  SER155      0.2288
     69  O         22.8570   15.7540    9.4110 O.2   155  SER155     -0.2866
     70  CB        22.7560   18.9510    9.6060 C.3   155  SER155      0.2089
     71  OG        21.4950   19.3330    9.1130 O.3   155  SER155     -0.2183
     72  N         24.8850   12.7130    8.3120 N.3   158  THR158     -0.1203
     73  CA        25.1540   11.7450    9.3750 C.3   158  THR158      0.1994
     74  C         24.0120   10.7630    9.5590 C.2   158  THR158      0.2617
     75  O         24.1140    9.8150   10.3380 O.2   158  THR158     -0.2717
     76  CB        25.4600   12.4680   10.7040 C.3   158  THR158      0.1784
     77  OG1       24.5130   13.5270   10.9020 O.3   158  THR158     -0.2211
     78  CG2       26.8350   13.0730   10.6300 C.3   158  THR158      0.0376
     79  N         22.9380   10.9680    8.7980 N.am  159  ALA159     -0.1979
     80  CA        21.7320   10.1370    8.8940 C.3   159  ALA159      0.1597
     81  C         21.6480    9.0920    7.7730 C.2   159  ALA159      0.2287
     82  O         22.5750    8.3310    7.5550 O.2   159  ALA159     -0.2864
     83  CB        20.4780   11.0160    8.8860 C.3   159  ALA159      0.0319
     84  N         29.4070    8.5340   16.9670 N.3   258  PHE258     -0.1241
     85  CA        29.8550    7.3800   16.1860 C.3   258  PHE258      0.1605
     86  C         31.1280    6.6850   16.7150 C.2   258  PHE258      0.2264
     87  O         31.3300    5.5000   16.4960 O.2   258  PHE258     -0.2867
     88  CB        30.0010    7.7930   14.7070 C.3   258  PHE258      0.0534
     89  CG        28.6950    8.2010   14.0540 C.ar  258  PHE258     -0.0203
     90  CD1       28.4440    9.5260   13.7420 C.ar  258  PHE258     -0.0042
     91  CD2       27.7280    7.2440   13.7320 C.ar  258  PHE258     -0.0042
     92  CE1       27.2540    9.9030   13.1320 C.ar  258  PHE258     -0.0003
     93  CE2       26.5120    7.6150   13.1160 C.ar  258  PHE258     -0.0003
     94  CZ        26.2830    8.9430   12.8030 C.ar  258  PHE258     -0.0000
@<TRIPOS>BOND
     1    61    60    2
     2    60    59    1
     3    59    58    1
     4    59    62    1
     5    66    67    1
     6    62    63    1
     7    82    81    2
     8    81    80    1
     9    72    73    1
    10    68    67    1
    11    68    69    2
    12    67    70    1
    13    79    80    1
    14    79    74   am
    15    83    80    1
    16    63    64    2
    17    63    65   am
    18    71    70    1
    19    73    74    1
    20    73    76    1
    21    74    75    2
    22    57    56    1
    23    78    76    1
    24    76    77    1
    25    24    22    1
    26    23    22    1
    27    56    54   ar
    28    56    55   ar
    29    22    21    1
    30    20    19    2
    31    21    18    1
    32    54    52   ar
    33    55    53   ar
    34    94    93   ar
    35    94    92   ar
    36    19    18    1
    37    18    17    1
    38    93    91   ar
    39    92    90   ar
    40    52    51   ar
    41    53    51   ar
    42    91    89   ar
    43    90    89   ar
    44    89    88    1
    45    51    50    1
    46    43    41   ar
    47    43    45   ar
    48    41    40   ar
    49    45    44   ar
    50    88    85    1
    51    40    39    1
    52    40    42   ar
    53    44    42   ar
    54    39    36    1
    55     8     7    2
    56    16    15    2
    57    14    15    1
    58    14    13    1
    59     9    10    1
    60     9     6    1
    61    50    47    1
    62     7    13   am
    63     7     6    1
    64    12    10   ar
    65    38    37    2
    66    85    86    1
    67    85    84    1
    68    10    11   ar
    69    36    37    1
    70    36    35    1
    71    37    46   am
    72    87    86    2
    73    46    47    1
    74    47    48    1
    75     6     5    1
    76     5     3   am
    77    48    49    2
    78     4     3    2
    79     3     2    1
    80    33    34   ar
    81    33    31   ar
    82     2     1    1
    83    34    32   ar
    84    31    30   ar
    85    32    30   ar
    86    30    29    1
    87    28    27    2
    88    29    26    1
    89    27    26    1
    90    26    25    1
