@<TRIPOS>MOLECULE
tmp/3v7wA00.pdb
 102 99 0 0 0
SMALL
GASTEIGER

@<TRIPOS>ATOM
      1  N         16.1680   12.7380   17.7930 N.3    45  ASP45      -0.1225
      2  CA        16.2180   13.4310   16.5090 C.3    45  ASP45       0.1805
      3  C         14.8640   13.4110   15.8060 C.2    45  ASP45       0.2598
      4  O         14.5080   14.3570   15.1040 O.2    45  ASP45      -0.2718
      5  CB        17.3090   12.8380   15.6140 C.3    45  ASP45       0.1424
      6  CG        18.7030   13.1100   16.1460 C.2    45  ASP45       0.3668
      7  OD1       18.9340   14.2320   16.6460 O.co2  45  ASP45      -0.2456
      8  OD2       19.5610   12.2030   16.0720 O.co2  45  ASP45      -0.2456
      9  N         14.1120   12.3310   16.0000 N.am   46  GLY46      -0.1957
     10  CA        12.7630   12.2420   15.4710 C.3    46  GLY46       0.1869
     11  C         11.8950   13.3710   15.9960 C.2    46  GLY46       0.2309
     12  O         11.1600   14.0120   15.2410 O.2    46  GLY46      -0.2863
     13  N         13.1900   16.6400   14.4620 N.3    49  LEU49      -0.1245
     14  CA        12.7090   16.7120   13.0850 C.3    49  LEU49       0.1561
     15  C         11.2650   17.2130   13.0340 C.2    49  LEU49       0.2260
     16  O         10.9230   18.0590   12.2090 O.2    49  LEU49      -0.2867
     17  CB        12.8040   15.3370   12.4230 C.3    49  LEU49       0.0270
     18  CG        13.9260   15.0520   11.4190 C.3    49  LEU49       0.0019
     19  CD1       14.9660   16.1660   11.3860 C.3    49  LEU49       0.0001
     20  CD2       14.5700   13.7000   11.7080 C.3    49  LEU49       0.0001
     21  N         17.7040    8.3560   22.3970 N.3    71  HIS71      -0.1226
     22  CA        18.7770    7.3710   22.4150 C.3    71  HIS71       0.1752
     23  C         20.0890    7.9460   21.8860 C.2    71  HIS71       0.2596
     24  O         21.0650    8.0600   22.6290 O.2    71  HIS71      -0.2718
     25  CB        18.3680    6.1160   21.6400 C.3    71  HIS71       0.0759
     26  CG        17.2260    5.3720   22.2610 C.ar   71  HIS71       0.0818
     27  ND1       15.9120    5.7550   22.0970 N.ar   71  HIS71      -0.2268
     28  CD2       17.2020    4.2780   23.0570 C.ar   71  HIS71       0.1154
     29  CE1       15.1270    4.9230   22.7590 C.ar   71  HIS71       0.1986
     30  NE2       15.8860    4.0180   23.3510 N.ar   71  HIS71      -0.2212
     31  N         20.1090    8.3110   20.6080 N.am   72  LEU72      -0.1966
     32  CA        21.2990    8.9090   20.0100 C.3    72  LEU72       0.1728
     33  C         21.2960   10.4250   20.1760 C.2    72  LEU72       0.2617
     34  O         22.2000   10.9930   20.7880 O.2    72  LEU72      -0.2715
     35  CB        21.4110    8.5430   18.5290 C.3    72  LEU72       0.0311
     36  CG        22.7220    8.9740   17.8660 C.3    72  LEU72       0.0022
     37  CD1       23.9020    8.2320   18.4860 C.3    72  LEU72       0.0001
     38  CD2       22.6700    8.7600   16.3600 C.3    72  LEU72       0.0001
     39  N         20.2750   11.0750   19.6220 N.am   73  GLY73      -0.1940
     40  CA        20.1190   12.5150   19.7480 C.3    73  GLY73       0.2014
     41  C         21.2560   13.3230   19.1470 C.2    73  GLY73       0.2639
     42  O         21.9880   14.0070   19.8620 O.2    73  GLY73      -0.2714
     43  N         21.3940   13.2540   17.8260 N.am   74  PHE74      -0.1959
     44  CA        22.4620   13.9550   17.1240 C.3    74  PHE74       0.1771
     45  C         22.2990   15.4740   17.1350 C.2    74  PHE74       0.2619
     46  O         23.2690   16.2010   17.3370 O.2    74  PHE74      -0.2715
     47  CB        22.5750   13.4540   15.6820 C.3    74  PHE74       0.0574
     48  CG        23.7010   14.0790   14.9180 C.ar   74  PHE74      -0.0200
     49  CD1       23.5050   15.2510   14.2080 C.ar   74  PHE74      -0.0042
     50  CD2       24.9600   13.5030   14.9210 C.ar   74  PHE74      -0.0042
     51  CE1       24.5430   15.8320   13.5070 C.ar   74  PHE74      -0.0003
     52  CE2       26.0030   14.0800   14.2260 C.ar   74  PHE74      -0.0003
     53  CZ        25.7940   15.2460   13.5180 C.ar   74  PHE74      -0.0000
     54  N         21.0760   15.9470   16.9090 N.am   75  TYR75      -0.1974
     55  CA        20.7910   17.3830   16.8800 C.3    75  TYR75       0.1639
     56  C         20.6640   18.0280   18.2660 C.2    75  TYR75       0.2290
     57  O         20.4590   19.2390   18.3700 O.2    75  TYR75      -0.2864
     58  CB        19.5150   17.6600   16.0870 C.3    75  TYR75       0.0560
     59  CG        19.6780   17.5350   14.5930 C.ar   75  TYR75      -0.0198
     60  CD1       19.0450   16.5220   13.8880 C.ar   75  TYR75      -0.0009
     61  CD2       20.4680   18.4320   13.8860 C.ar   75  TYR75      -0.0009
     62  CE1       19.1940   16.4060   12.5100 C.ar   75  TYR75       0.0417
     63  CE2       20.6220   18.3250   12.5150 C.ar   75  TYR75       0.0417
     64  CZ        19.9840   17.3110   11.8330 C.ar   75  TYR75       0.1957
     65  OH        20.1380   17.2010   10.4640 O.3    75  TYR75      -0.2866
     66  N         17.2450   16.7620    7.0930 N.3   118  ASN118     -0.1240
     67  CA        18.1380   15.6230    6.9390 C.3   118  ASN118      0.1653
     68  C         18.3080   15.2620    5.4710 C.2   118  ASN118      0.2266
     69  O         19.3860   15.4260    4.9050 O.2   118  ASN118     -0.2867
     70  CB        17.6190   14.4020    7.7050 C.3   118  ASN118      0.1155
     71  CG        18.1120   14.3510    9.1400 C.2   118  ASN118      0.2627
     72  OD1       19.0060   15.1010    9.5360 O.2   118  ASN118     -0.2716
     73  ND2       17.5380   13.4490    9.9220 N.am  118  ASN118     -0.0877
     74  N         24.1140   18.5330    7.4540 N.3   154  SER154     -0.1217
     75  CA        23.8490   17.9320    8.7620 C.3   154  SER154      0.1889
     76  C         23.1650   16.5710    8.6300 C.2   154  SER154      0.2288
     77  O         23.2420   15.7390    9.5290 O.2   154  SER154     -0.2866
     78  CB        23.0440   18.8740    9.6660 C.3   154  SER154      0.2089
     79  OG        21.7620   19.1450    9.1290 O.3   154  SER154     -0.2183
     80  N         25.1230   12.5760    8.2320 N.3   157  THR157     -0.1203
     81  CA        25.4120   11.6310    9.3070 C.3   157  THR157      0.1994
     82  C         24.2620   10.6510    9.5110 C.2   157  THR157      0.2617
     83  O         24.3570    9.7150   10.3090 O.2   157  THR157     -0.2717
     84  CB        25.7150   12.3530   10.6450 C.3   157  THR157      0.1784
     85  OG1       24.9000   13.5240   10.7540 O.3   157  THR157     -0.2211
     86  CG2       27.1740   12.7680   10.7060 C.3   157  THR157      0.0376
     87  N         23.1740   10.8680    8.7820 N.am  158  ALA158     -0.1979
     88  CA        21.9940   10.0210    8.9130 C.3   158  ALA158      0.1597
     89  C         21.9330    8.9740    7.7980 C.2   158  ALA158      0.2287
     90  O         22.8870    8.2300    7.5840 O.2   158  ALA158     -0.2864
     91  CB        20.7320   10.8710    8.9270 C.3   158  ALA158      0.0319
     92  N         29.5340    8.5190   16.9510 N.3   257  PHE257     -0.1241
     93  CA        29.9810    7.3790   16.1500 C.3   257  PHE257      0.1605
     94  C         31.2330    6.6660   16.6710 C.2   257  PHE257      0.2264
     95  O         31.4050    5.4720   16.4360 O.2   257  PHE257     -0.2867
     96  CB        30.1860    7.7960   14.6810 C.3   257  PHE257      0.0534
     97  CG        28.9180    8.2190   13.9840 C.ar  257  PHE257     -0.0203
     98  CD1       28.6230    9.5610   13.8030 C.ar  257  PHE257     -0.0042
     99  CD2       28.0210    7.2740   13.5150 C.ar  257  PHE257     -0.0042
    100  CE1       27.4580    9.9520   13.1620 C.ar  257  PHE257     -0.0003
    101  CE2       26.8530    7.6560   12.8760 C.ar  257  PHE257     -0.0003
    102  CZ        26.5710    8.9960   12.6960 C.ar  257  PHE257     -0.0000
@<TRIPOS>BOND
     1    69    68    2
     2    68    67    1
     3    67    66    1
     4    67    70    1
     5    74    75    1
     6    90    89    2
     7    70    71    1
     8    89    88    1
     9    80    81    1
    10    76    75    1
    11    76    77    2
    12    75    78    1
    13    87    88    1
    14    87    82   am
    15    88    91    1
    16    79    78    1
    17    71    72    2
    18    71    73   am
    19    81    82    1
    20    81    84    1
    21    82    83    2
    22    65    64    1
    23    84    86    1
    24    84    85    1
    25    19    18    1
    26    18    20    1
    27    18    17    1
    28    64    62   ar
    29    64    63   ar
    30    16    15    2
    31    17    14    1
    32    62    60   ar
    33    63    61   ar
    34   102   101   ar
    35   102   100   ar
    36   101    99   ar
    37    15    14    1
    38    14    13    1
    39   100    98   ar
    40    51    53   ar
    41    51    49   ar
    42    99    97   ar
    43    53    52   ar
    44    98    97   ar
    45    61    59   ar
    46    60    59   ar
    47    97    96    1
    48    49    48   ar
    49    52    50   ar
    50    59    58    1
    51    96    93    1
    52    48    50   ar
    53    48    47    1
    54     4     3    2
    55    12    11    2
    56    10    11    1
    57    10     9    1
    58     5     6    1
    59     5     2    1
    60    47    44    1
    61     3     9   am
    62     3     2    1
    63     8     6   ar
    64    58    55    1
    65     6     7   ar
    66    93    94    1
    67    93    92    1
    68    38    36    1
    69    95    94    2
    70     2     1    1
    71    55    54    1
    72    55    56    1
    73    54    45   am
    74    44    45    1
    75    44    43    1
    76    45    46    2
    77    43    41   am
    78    36    37    1
    79    36    35    1
    80    56    57    2
    81    35    32    1
    82    41    40    1
    83    41    42    2
    84    39    40    1
    85    39    33   am
    86    32    33    1
    87    32    31    1
    88    33    34    2
    89    31    23   am
    90    25    26    1
    91    25    22    1
    92    23    22    1
    93    23    24    2
    94    27    26   ar
    95    27    29   ar
    96    26    28   ar
    97    21    22    1
    98    29    30   ar
    99    28    30   ar
