@<TRIPOS>MOLECULE
tmp/3v7wA01.pdb
 78 74 0 0 0
SMALL
GASTEIGER

@<TRIPOS>ATOM
      1  N         16.1680   12.7380   17.7930 N.3    45  ASP45      -0.1225
      2  CA        16.2180   13.4310   16.5090 C.3    45  ASP45       0.1805
      3  C         14.8640   13.4110   15.8060 C.2    45  ASP45       0.2598
      4  O         14.5080   14.3570   15.1040 O.2    45  ASP45      -0.2718
      5  CB        17.3090   12.8380   15.6140 C.3    45  ASP45       0.1424
      6  CG        18.7030   13.1100   16.1460 C.2    45  ASP45       0.3668
      7  OD1       18.9340   14.2320   16.6460 O.co2  45  ASP45      -0.2456
      8  OD2       19.5610   12.2030   16.0720 O.co2  45  ASP45      -0.2456
      9  N         14.1120   12.3310   16.0000 N.am   46  GLY46      -0.1957
     10  CA        12.7630   12.2420   15.4710 C.3    46  GLY46       0.1869
     11  C         11.8950   13.3710   15.9960 C.2    46  GLY46       0.2309
     12  O         11.1600   14.0120   15.2410 O.2    46  GLY46      -0.2863
     13  N         13.1900   16.6400   14.4620 N.3    49  LEU49      -0.1245
     14  CA        12.7090   16.7120   13.0850 C.3    49  LEU49       0.1561
     15  C         11.2650   17.2130   13.0340 C.2    49  LEU49       0.2260
     16  O         10.9230   18.0590   12.2090 O.2    49  LEU49      -0.2867
     17  CB        12.8040   15.3370   12.4230 C.3    49  LEU49       0.0270
     18  CG        13.9260   15.0520   11.4190 C.3    49  LEU49       0.0019
     19  CD1       14.9660   16.1660   11.3860 C.3    49  LEU49       0.0001
     20  CD2       14.5700   13.7000   11.7080 C.3    49  LEU49       0.0001
     21  N         17.2450   16.7620    7.0930 N.3   118  ASN118     -0.1225
     22  CA        18.1380   15.6230    6.9390 C.3   118  ASN118      0.1785
     23  C         18.3080   15.2620    5.4710 C.2   118  ASN118      0.2597
     24  O         19.3860   15.4260    4.9050 O.2   118  ASN118     -0.2718
     25  CB        17.6190   14.4020    7.7050 C.3   118  ASN118      0.1169
     26  CG        18.1120   14.3510    9.1400 C.2   118  ASN118      0.2627
     27  OD1       19.0060   15.1010    9.5360 O.2   118  ASN118     -0.2716
     28  ND2       17.5380   13.4490    9.9220 N.am  118  ASN118     -0.0877
     29  N         17.2430   14.7590    4.8580 N.am  119  GLU119     -0.1979
     30  CA        17.3220   14.3440    3.4630 C.3   119  GLU119      0.1602
     31  C         15.9620   14.1630    2.8050 C.2   119  GLU119      0.2287
     32  O         14.9170   14.1990    3.4590 O.2   119  GLU119     -0.2864
     33  CB        18.1330   13.0500    3.3310 C.3   119  GLU119      0.0415
     34  CG        17.4000   11.7900    3.7710 C.3   119  GLU119      0.1163
     35  CD        17.1840   11.7320    5.2720 C.2   119  GLU119      0.3649
     36  OE1       16.0150   11.6640    5.6990 O.co2 119  GLU119     -0.2457
     37  OE2       18.1850   11.7510    6.0200 O.co2 119  GLU119     -0.2457
     38  N         23.1740   10.8680    8.7820 N.3   158  ALA158     -0.1231
     39  CA        21.9940   10.0210    8.9130 C.3   158  ALA158      0.1694
     40  C         21.9330    8.9740    7.7980 C.2   158  ALA158      0.2592
     41  O         22.8870    8.2300    7.5840 O.2   158  ALA158     -0.2718
     42  CB        20.7320   10.8710    8.9270 C.3   158  ALA158      0.0304
     43  N         20.8010    8.9260    7.1020 N.am  159  TYR159     -0.1976
     44  CA        20.5710    7.9780    6.0150 C.3   159  TYR159      0.1639
     45  C         21.7510    7.9580    5.0370 C.2   159  TYR159      0.2290
     46  O         22.2620    6.8980    4.6810 O.2   159  TYR159     -0.2864
     47  CB        19.2860    8.3730    5.2800 C.3   159  TYR159      0.0560
     48  CG        18.5900    7.2530    4.5460 C.ar  159  TYR159     -0.0198
     49  CD1       19.1770    6.0020    4.4120 C.ar  159  TYR159     -0.0009
     50  CD2       17.3380    7.4530    3.9790 C.ar  159  TYR159     -0.0009
     51  CE1       18.5310    4.9820    3.7360 C.ar  159  TYR159      0.0417
     52  CE2       16.6880    6.4420    3.3020 C.ar  159  TYR159      0.0417
     53  CZ        17.2870    5.2100    3.1810 C.ar  159  TYR159      0.1957
     54  OH        16.6270    4.2080    2.5060 O.3   159  TYR159     -0.2866
     55  N         24.6270    5.7450    6.0250 N.3   162  SER162     -0.1217
     56  CA        24.3220    4.3260    5.8530 C.3   162  SER162      0.1889
     57  C         24.4620    3.8840    4.4020 C.2   162  SER162      0.2288
     58  O         24.7070    2.7100    4.1200 O.2   162  SER162     -0.2866
     59  CB        22.9040    4.0180    6.3400 C.3   162  SER162      0.2089
     60  OG        22.7960    4.2260    7.7280 O.3   162  SER162     -0.2183
     61  N         12.6910   13.7370    5.2950 N.3   218  ASP218     -0.1225
     62  CA        12.9380   13.4310    6.6950 C.3   218  ASP218      0.1805
     63  C         12.0250   12.2850    7.1290 C.2   218  ASP218      0.2597
     64  O         12.0370   11.2200    6.5180 O.2   218  ASP218     -0.2718
     65  CB        12.7580   14.6780    7.5670 C.3   218  ASP218      0.1424
     66  CG        13.7370   15.7820    7.2000 C.2   218  ASP218      0.3668
     67  OD1       14.8350   15.4590    6.7000 O.co2 218  ASP218     -0.2456
     68  OD2       13.4170   16.9700    7.4010 O.co2 218  ASP218     -0.2456
     69  N         11.2240   12.4950    8.1670 N.am  219  HIS219     -0.1975
     70  CA        10.4020   11.4050    8.6960 C.3   219  HIS219      0.1656
     71  C          9.1180   11.1510    7.8980 C.2   219  HIS219      0.2291
     72  O          8.4320   10.1540    8.1160 O.2   219  HIS219     -0.2864
     73  CB        10.0840   11.6240   10.1820 C.3   219  HIS219      0.0771
     74  CG         9.4430   12.9440   10.4810 C.ar  219  HIS219      0.0820
     75  ND1        9.7240   14.0900    9.7680 N.ar  219  HIS219     -0.2267
     76  CD2        8.5330   13.2980   11.4200 C.ar  219  HIS219      0.1154
     77  CE1        9.0130   15.0930   10.2540 C.ar  219  HIS219      0.1986
     78  NE2        8.2820   14.6390   11.2570 N.ar  219  HIS219     -0.2212
@<TRIPOS>BOND
     1    54    53    1
     2    31    32    2
     3    31    30    1
     4    53    52   ar
     5    53    51   ar
     6    52    50   ar
     7    33    30    1
     8    33    34    1
     9    30    29    1
    10    51    49   ar
    11    34    35    1
    12    50    48   ar
    13    58    57    2
    14    57    56    1
    15    49    48   ar
    16    48    47    1
    17    46    45    2
    18    29    23   am
    19    24    23    2
    20    45    44    1
    21    35    36   ar
    22    35    37   ar
    23    47    44    1
    24    61    62    1
    25    23    22    1
    26    56    55    1
    27    56    59    1
    28    44    43    1
    29    59    60    1
    30    64    63    2
    31    62    63    1
    32    62    65    1
    33    67    66   ar
    34    22    21    1
    35    22    25    1
    36    43    40   am
    37    63    69   am
    38    66    68   ar
    39    66    65    1
    40    41    40    2
    41    25    26    1
    42    40    39    1
    43    71    72    2
    44    71    70    1
    45    69    70    1
    46    70    73    1
    47    38    39    1
    48    39    42    1
    49    26    27    2
    50    26    28   am
    51    75    77   ar
    52    75    74   ar
    53    73    74    1
    54    77    78   ar
    55    74    76   ar
    56    78    76   ar
    57    19    18    1
    58    18    20    1
    59    18    17    1
    60    16    15    2
    61    17    14    1
    62    15    14    1
    63    14    13    1
    64     4     3    2
    65    12    11    2
    66    10    11    1
    67    10     9    1
    68     5     6    1
    69     5     2    1
    70     3     9   am
    71     3     2    1
    72     8     6   ar
    73     6     7   ar
    74     2     1    1
