@<TRIPOS>MOLECULE
tmp/3v7yA01.pdb
 78 74 0 0 0
SMALL
GASTEIGER

@<TRIPOS>ATOM
      1  N         16.1480   13.2800   17.9110 N.3    45  ASP45      -0.1225
      2  CA        16.2110   13.9580   16.6180 C.3    45  ASP45       0.1805
      3  C         14.8700   13.9050   15.8850 C.2    45  ASP45       0.2598
      4  O         14.5080   14.8470   15.1810 O.2    45  ASP45      -0.2718
      5  CB        17.3390   13.3930   15.7440 C.3    45  ASP45       0.1424
      6  CG        18.7100   13.9270   16.1390 C.2    45  ASP45       0.3668
      7  OD1       18.7900   15.0040   16.7710 O.co2  45  ASP45      -0.2456
      8  OD2       19.7160   13.2720   15.8110 O.co2  45  ASP45      -0.2456
      9  N         14.1390   12.8030   16.0470 N.am   46  GLY46      -0.1957
     10  CA        12.7970   12.7050   15.5030 C.3    46  GLY46       0.1869
     11  C         11.9000   13.8160   16.0250 C.2    46  GLY46       0.2309
     12  O         11.1260   14.4160   15.2780 O.2    46  GLY46      -0.2863
     13  N         13.0270   17.0300   14.4120 N.3    49  LEU49      -0.1245
     14  CA        12.5580   17.0510   13.0250 C.3    49  LEU49       0.1561
     15  C         11.1150   17.5680   12.9300 C.2    49  LEU49       0.2260
     16  O         10.8000   18.3970   12.0760 O.2    49  LEU49      -0.2867
     17  CB        12.6720   15.6570   12.4040 C.3    49  LEU49       0.0270
     18  CG        13.7830   15.3450   11.3920 C.3    49  LEU49       0.0019
     19  CD1       14.9170   16.3560   11.4290 C.3    49  LEU49       0.0001
     20  CD2       14.3180   13.9330   11.5910 C.3    49  LEU49       0.0001
     21  N         17.1180   16.8760    6.9250 N.3   117  ASN117     -0.1225
     22  CA        18.0240   15.7460    6.7420 C.3   117  ASN117      0.1785
     23  C         18.1770   15.4030    5.2590 C.2   117  ASN117      0.2597
     24  O         19.2470   15.5900    4.6820 O.2   117  ASN117     -0.2718
     25  CB        17.5490   14.5050    7.5120 C.3   117  ASN117      0.1169
     26  CG        17.9850   14.5110    8.9880 C.2   117  ASN117      0.2627
     27  OD1       18.8270   15.3100    9.4030 O.2   117  ASN117     -0.2716
     28  ND2       17.4280   13.5910    9.7690 N.am  117  ASN117     -0.0877
     29  N         17.1100   14.8940    4.6510 N.am  118  GLU118     -0.1979
     30  CA        17.1990   14.4130    3.2720 C.3   118  GLU118      0.1602
     31  C         15.8370   14.2190    2.6190 C.2   118  GLU118      0.2287
     32  O         14.7990   14.2370    3.2820 O.2   118  GLU118     -0.2864
     33  CB        17.9710   13.0860    3.2170 C.3   118  GLU118      0.0415
     34  CG        17.1530   11.8650    3.6580 C.3   118  GLU118      0.1163
     35  CD        17.0150   11.7620    5.1820 C.2   118  GLU118      0.3649
     36  OE1       15.8750   11.7890    5.6910 O.co2 118  GLU118     -0.2457
     37  OE2       18.0540   11.6440    5.8610 O.co2 118  GLU118     -0.2457
     38  N         22.9760   10.9780    8.7720 N.3   157  ALA157     -0.1231
     39  CA        21.7800   10.1540    8.8800 C.3   157  ALA157      0.1694
     40  C         21.7200    9.0890    7.7780 C.2   157  ALA157      0.2592
     41  O         22.6690    8.3300    7.5830 O.2   157  ALA157     -0.2718
     42  CB        20.5400   11.0330    8.8460 C.3   157  ALA157      0.0304
     43  N         20.5970    9.0370    7.0670 N.am  158  TYR158     -0.1976
     44  CA        20.3940    8.0620    5.9960 C.3   158  TYR158      0.1639
     45  C         21.5790    8.0370    5.0240 C.2   158  TYR158      0.2290
     46  O         22.0640    6.9760    4.6490 O.2   158  TYR158     -0.2864
     47  CB        19.1040    8.3910    5.2470 C.3   158  TYR158      0.0560
     48  CG        18.5090    7.2380    4.4850 C.ar  158  TYR158     -0.0198
     49  CD1       19.0890    5.9790    4.5170 C.ar  158  TYR158     -0.0009
     50  CD2       17.3640    7.4120    3.7210 C.ar  158  TYR158     -0.0009
     51  CE1       18.5420    4.9240    3.8140 C.ar  158  TYR158      0.0417
     52  CE2       16.8130    6.3680    3.0140 C.ar  158  TYR158      0.0417
     53  CZ        17.4050    5.1290    3.0570 C.ar  158  TYR158      0.1957
     54  OH        16.8390    4.0930    2.3520 O.3   158  TYR158     -0.2866
     55  N         24.4490    5.7690    6.0650 N.3   161  SER161     -0.1217
     56  CA        24.1650    4.3480    5.8680 C.3   161  SER161      0.1889
     57  C         24.3420    3.9120    4.4080 C.2   161  SER161      0.2288
     58  O         24.5720    2.7360    4.1320 O.2   161  SER161     -0.2866
     59  CB        22.7450    4.0200    6.3180 C.3   161  SER161      0.2089
     60  OG        22.5620    4.3680    7.6750 O.3   161  SER161     -0.2183
     61  N         12.5740   13.9580    5.0520 N.3   217  ASP217     -0.1225
     62  CA        12.7910   13.6760    6.4650 C.3   217  ASP217      0.1805
     63  C         11.8750   12.5350    6.9060 C.2   217  ASP217      0.2597
     64  O         11.9600   11.4370    6.3670 O.2   217  ASP217     -0.2718
     65  CB        12.6010   14.9420    7.3080 C.3   217  ASP217      0.1424
     66  CG        13.6160   16.0260    6.9640 C.2   217  ASP217      0.3668
     67  OD1       14.6790   15.7030    6.4000 O.co2 217  ASP217     -0.2456
     68  OD2       13.3610   17.2080    7.2520 O.co2 217  ASP217     -0.2456
     69  N         10.9900   12.7860    7.8660 N.am  218  HIS218     -0.1975
     70  CA        10.1350   11.7220    8.3990 C.3   218  HIS218      0.1656
     71  C          8.9050   11.3820    7.5300 C.2   218  HIS218      0.2291
     72  O          8.3950   10.2630    7.5740 O.2   218  HIS218     -0.2864
     73  CB         9.6990   12.0720    9.8240 C.3   218  HIS218      0.0771
     74  CG         9.3740   13.5210   10.0110 C.ar  218  HIS218      0.0820
     75  ND1        8.3120   13.9560   10.7770 N.ar  218  HIS218     -0.2267
     76  CD2        9.9740   14.6380    9.5320 C.ar  218  HIS218      0.1154
     77  CE1        8.2700   15.2760   10.7560 C.ar  218  HIS218      0.1986
     78  NE2        9.2650   15.7140   10.0040 N.ar  218  HIS218     -0.2212
@<TRIPOS>BOND
     1    54    53    1
     2    31    30    1
     3    31    32    2
     4    52    53   ar
     5    52    50   ar
     6    53    51   ar
     7    33    30    1
     8    33    34    1
     9    30    29    1
    10    34    35    1
    11    50    48   ar
    12    51    49   ar
    13    58    57    2
    14    57    56    1
    15    48    49   ar
    16    48    47    1
    17    46    45    2
    18    29    23   am
    19    24    23    2
    20    45    44    1
    21    61    62    1
    22    35    36   ar
    23    35    37   ar
    24    47    44    1
    25    23    22    1
    26    56    55    1
    27    56    59    1
    28    44    43    1
    29    59    60    1
    30    64    63    2
    31    67    66   ar
    32    62    63    1
    33    62    65    1
    34    22    21    1
    35    22    25    1
    36    63    69   am
    37    66    68   ar
    38    66    65    1
    39    43    40   am
    40    25    26    1
    41    71    72    2
    42    71    70    1
    43    41    40    2
    44    40    39    1
    45    69    70    1
    46    70    73    1
    47    38    39    1
    48    42    39    1
    49    26    27    2
    50    26    28   am
    51    76    78   ar
    52    76    74   ar
    53    73    74    1
    54    78    77   ar
    55    74    75   ar
    56    77    75   ar
    57    18    19    1
    58    18    20    1
    59    18    17    1
    60    16    15    2
    61    17    14    1
    62    15    14    1
    63    14    13    1
    64     4     3    2
    65    12    11    2
    66    10    11    1
    67    10     9    1
    68     5     6    1
    69     5     2    1
    70     8     6   ar
    71     3     9   am
    72     3     2    1
    73     6     7   ar
    74     2     1    1
