@<TRIPOS>MOLECULE
tmp/3v7yA02.pdb
 90 86 0 0 0
SMALL
GASTEIGER

@<TRIPOS>ATOM
      1  N         16.1480   13.2800   17.9110 N.3    45  ASP45      -0.1225
      2  CA        16.2110   13.9580   16.6180 C.3    45  ASP45       0.1805
      3  C         14.8700   13.9050   15.8850 C.2    45  ASP45       0.2598
      4  O         14.5080   14.8470   15.1810 O.2    45  ASP45      -0.2718
      5  CB        17.3390   13.3930   15.7440 C.3    45  ASP45       0.1424
      6  CG        18.7100   13.9270   16.1390 C.2    45  ASP45       0.3668
      7  OD1       18.7900   15.0040   16.7710 O.co2  45  ASP45      -0.2456
      8  OD2       19.7160   13.2720   15.8110 O.co2  45  ASP45      -0.2456
      9  N         14.1390   12.8030   16.0470 N.am   46  GLY46      -0.1957
     10  CA        12.7970   12.7050   15.5030 C.3    46  GLY46       0.1869
     11  C         11.9000   13.8160   16.0250 C.2    46  GLY46       0.2309
     12  O         11.1260   14.4160   15.2780 O.2    46  GLY46      -0.2863
     13  N         13.0270   17.0300   14.4120 N.3    49  LEU49      -0.1245
     14  CA        12.5580   17.0510   13.0250 C.3    49  LEU49       0.1561
     15  C         11.1150   17.5680   12.9300 C.2    49  LEU49       0.2260
     16  O         10.8000   18.3970   12.0760 O.2    49  LEU49      -0.2867
     17  CB        12.6720   15.6570   12.4040 C.3    49  LEU49       0.0270
     18  CG        13.7830   15.3450   11.3920 C.3    49  LEU49       0.0019
     19  CD1       14.9170   16.3560   11.4290 C.3    49  LEU49       0.0001
     20  CD2       14.3180   13.9330   11.5910 C.3    49  LEU49       0.0001
     21  N         19.3020    9.2610   24.1090 N.3    71  HIS71      -0.1241
     22  CA        20.6950    9.3920   23.6920 C.3    71  HIS71       0.1621
     23  C         20.9790   10.7470   23.0370 C.2    71  HIS71       0.2264
     24  O         20.0600   11.4610   22.6220 O.2    71  HIS71      -0.2867
     25  CB        21.0650    8.2620   22.7300 C.3    71  HIS71       0.0745
     26  CG        20.1660    8.1700   21.5380 C.ar   71  HIS71       0.0817
     27  ND1       20.3540    8.9270   20.4030 N.ar   71  HIS71      -0.2268
     28  CD2       19.0640    7.4150   21.3100 C.ar   71  HIS71       0.1154
     29  CE1       19.4120    8.6380   19.5220 C.ar   71  HIS71       0.1986
     30  NE2       18.6170    7.7240   20.0480 N.ar   71  HIS71      -0.2212
     31  N         22.0670   14.8250   17.0810 N.3    74  PHE74      -0.1227
     32  CA        22.8310   15.8050   16.3290 C.3    74  PHE74       0.1736
     33  C         22.1550   17.1470   16.3560 C.2    74  PHE74       0.2595
     34  O         22.7990   18.1790   16.1840 O.2    74  PHE74      -0.2718
     35  CB        23.0250   15.3620   14.8690 C.3    74  PHE74       0.0547
     36  CG        24.1940   14.4720   14.6840 C.ar   74  PHE74      -0.0202
     37  CD1       25.4310   14.9990   14.3540 C.ar   74  PHE74      -0.0042
     38  CD2       24.0740   13.1100   14.8820 C.ar   74  PHE74      -0.0042
     39  CE1       26.5290   14.1840   14.2040 C.ar   74  PHE74      -0.0003
     40  CE2       25.1660   12.2820   14.7340 C.ar   74  PHE74      -0.0003
     41  CZ        26.3990   12.8180   14.3920 C.ar   74  PHE74      -0.0000
     42  N         20.8430   17.1280   16.5390 N.am   75  TYR75      -0.1976
     43  CA        20.0840   18.3590   16.5920 C.3    75  TYR75       0.1639
     44  C         19.7480   18.6560   18.0490 C.2    75  TYR75       0.2290
     45  O         19.8330   19.7990   18.5040 O.2    75  TYR75      -0.2864
     46  CB        18.8250   18.2250   15.7410 C.3    75  TYR75       0.0560
     47  CG        19.1340   18.0230   14.2700 C.ar   75  TYR75      -0.0198
     48  CD1       18.5580   16.9830   13.5540 C.ar   75  TYR75      -0.0009
     49  CD2       20.0070   18.8760   13.6010 C.ar   75  TYR75      -0.0009
     50  CE1       18.8490   16.7920   12.1960 C.ar   75  TYR75       0.0417
     51  CE2       20.2960   18.7010   12.2420 C.ar   75  TYR75       0.0417
     52  CZ        19.7160   17.6580   11.5520 C.ar   75  TYR75       0.1957
     53  OH        20.0080   17.4830   10.2100 O.3    75  TYR75      -0.2866
     54  N         17.1180   16.8760    6.9250 N.3   117  ASN117     -0.1240
     55  CA        18.0240   15.7460    6.7420 C.3   117  ASN117      0.1653
     56  C         18.1770   15.4030    5.2590 C.2   117  ASN117      0.2266
     57  O         19.2470   15.5900    4.6820 O.2   117  ASN117     -0.2867
     58  CB        17.5490   14.5050    7.5120 C.3   117  ASN117      0.1155
     59  CG        17.9850   14.5110    8.9880 C.2   117  ASN117      0.2627
     60  OD1       18.8270   15.3100    9.4030 O.2   117  ASN117     -0.2716
     61  ND2       17.4280   13.5910    9.7690 N.am  117  ASN117     -0.0877
     62  N         23.8780   18.6140    7.3090 N.3   153  SER153     -0.1217
     63  CA        23.5780   18.0130    8.6140 C.3   153  SER153      0.1889
     64  C         22.9210   16.6340    8.4700 C.2   153  SER153      0.2288
     65  O         23.0760   15.7630    9.3250 O.2   153  SER153     -0.2866
     66  CB        22.7770   18.9640    9.5250 C.3   153  SER153      0.2089
     67  OG        21.5150   19.3180    8.9900 O.3   153  SER153     -0.2183
     68  N         24.9300   12.7280    8.2690 N.3   156  THR156     -0.1203
     69  CA        25.1890   11.7770    9.3460 C.3   156  THR156      0.1994
     70  C         24.0520   10.7760    9.5230 C.2   156  THR156      0.2617
     71  O         24.1600    9.8300   10.3100 O.2   156  THR156     -0.2717
     72  CB        25.4570   12.5000   10.6980 C.3   156  THR156      0.1784
     73  OG1       24.5330   13.5800   10.8530 O.3   156  THR156     -0.2211
     74  CG2       26.8560   13.0660   10.7190 C.3   156  THR156      0.0376
     75  N         22.9760   10.9780    8.7720 N.am  157  ALA157     -0.1979
     76  CA        21.7800   10.1540    8.8800 C.3   157  ALA157      0.1597
     77  C         21.7200    9.0890    7.7780 C.2   157  ALA157      0.2287
     78  O         22.6690    8.3300    7.5830 O.2   157  ALA157     -0.2864
     79  CB        20.5400   11.0330    8.8460 C.3   157  ALA157      0.0319
     80  N         29.4760    8.5490   17.0380 N.3   256  PHE256     -0.1241
     81  CA        29.9050    7.3950   16.2490 C.3   256  PHE256      0.1605
     82  C         31.1480    6.6800   16.7710 C.2   256  PHE256      0.2264
     83  O         31.3110    5.4840   16.5510 O.2   256  PHE256     -0.2867
     84  CB        30.1060    7.7930   14.7750 C.3   256  PHE256      0.0534
     85  CG        28.8370    8.1990   14.0760 C.ar  256  PHE256     -0.0203
     86  CD1       28.5720    9.5340   13.8050 C.ar  256  PHE256     -0.0042
     87  CD2       27.9040    7.2430   13.6880 C.ar  256  PHE256     -0.0042
     88  CE1       27.4040    9.9140   13.1630 C.ar  256  PHE256     -0.0003
     89  CE2       26.7300    7.6170   13.0400 C.ar  256  PHE256     -0.0003
     90  CZ        26.4810    8.9510   12.7750 C.ar  256  PHE256     -0.0000
@<TRIPOS>BOND
     1    57    56    2
     2    56    55    1
     3    55    54    1
     4    55    58    1
     5    62    63    1
     6    58    59    1
     7    78    77    2
     8    77    76    1
     9    68    69    1
    10    64    63    1
    11    64    65    2
    12    63    66    1
    13    75    76    1
    14    75    70   am
    15    79    76    1
    16    59    60    2
    17    59    61   am
    18    67    66    1
    19    69    70    1
    20    69    72    1
    21    70    71    2
    22    53    52    1
    23    72    74    1
    24    72    73    1
    25    18    19    1
    26    18    20    1
    27    18    17    1
    28    52    50   ar
    29    52    51   ar
    30    16    15    2
    31    50    48   ar
    32    51    49   ar
    33    17    14    1
    34    90    89   ar
    35    90    88   ar
    36    15    14    1
    37    14    13    1
    38    89    87   ar
    39    88    86   ar
    40    48    47   ar
    41    49    47   ar
    42    87    85   ar
    43    86    85   ar
    44    85    84    1
    45    39    37   ar
    46    39    41   ar
    47    47    46    1
    48    37    36   ar
    49    41    40   ar
    50    36    35    1
    51    36    38   ar
    52    40    38   ar
    53    84    81    1
    54    35    32    1
    55     4     3    2
    56    12    11    2
    57    10    11    1
    58    10     9    1
    59    46    43    1
    60     5     6    1
    61     5     2    1
    62     8     6   ar
    63     3     9   am
    64     3     2    1
    65     6     7   ar
    66    34    33    2
    67    81    82    1
    68    81    80    1
    69    32    33    1
    70    32    31    1
    71    33    42   am
    72    42    43    1
    73    83    82    2
    74    43    44    1
    75     2     1    1
    76    44    45    2
    77    29    30   ar
    78    29    27   ar
    79    30    28   ar
    80    27    26   ar
    81    28    26   ar
    82    26    25    1
    83    24    23    2
    84    25    22    1
    85    23    22    1
    86    22    21    1
