@<TRIPOS>MOLECULE
tmp/3v80A00.pdb
 78 74 0 0 0
SMALL
GASTEIGER

@<TRIPOS>ATOM
      1  N         16.1020   12.9500   17.7830 N.3    45  ASP45      -0.1225
      2  CA        16.1550   13.6570   16.5090 C.3    45  ASP45       0.1805
      3  C         14.8090   13.6540   15.7880 C.2    45  ASP45       0.2598
      4  O         14.4860   14.6100   15.0910 O.2    45  ASP45      -0.2718
      5  CB        17.2590   13.0860   15.6090 C.3    45  ASP45       0.1424
      6  CG        18.6400   13.4460   16.0960 C.2    45  ASP45       0.3668
      7  OD1       18.8070   14.5460   16.6570 O.co2  45  ASP45      -0.2456
      8  OD2       19.5530   12.6220   15.9380 O.co2  45  ASP45      -0.2456
      9  N         14.0310   12.5820   15.9550 N.am   46  GLY46      -0.1957
     10  CA        12.6780   12.5370   15.4140 C.3    46  GLY46       0.1869
     11  C         11.8160   13.6820   15.9310 C.2    46  GLY46       0.2309
     12  O         11.0700   14.3220   15.1700 O.2    46  GLY46      -0.2863
     13  N         13.1330   16.9060   14.3130 N.3    49  LEU49      -0.1245
     14  CA        12.6680   16.9530   12.9180 C.3    49  LEU49       0.1561
     15  C         11.2080   17.4070   12.8420 C.2    49  LEU49       0.2260
     16  O         10.8430   18.2100   11.9880 O.2    49  LEU49      -0.2867
     17  CB        12.7980   15.5720   12.2680 C.3    49  LEU49       0.0270
     18  CG        13.9680   15.1840   11.3550 C.3    49  LEU49       0.0019
     19  CD1       15.1590   16.0840   11.4910 C.3    49  LEU49       0.0001
     20  CD2       14.3600   13.7100   11.5470 C.3    49  LEU49       0.0001
     21  N         17.2200   16.8650    6.9440 N.3   116  ASN116     -0.1225
     22  CA        18.1000   15.7250    6.7620 C.3   116  ASN116      0.1785
     23  C         18.2600   15.3640    5.2840 C.2   116  ASN116      0.2597
     24  O         19.3550   15.4700    4.7310 O.2   116  ASN116     -0.2718
     25  CB        17.6010   14.4940    7.5300 C.3   116  ASN116      0.1169
     26  CG        18.1290   14.4220    8.9670 C.2   116  ASN116      0.2627
     27  OD1       18.9970   15.2000    9.3920 O.2   116  ASN116     -0.2716
     28  ND2       17.6160   13.4580    9.7090 N.am  116  ASN116     -0.0877
     29  N         17.1830   14.9070    4.6570 N.am  117  GLU117     -0.1979
     30  CA        17.2830   14.4340    3.2730 C.3   117  GLU117      0.1602
     31  C         15.9270   14.2690    2.6240 C.2   117  GLU117      0.2287
     32  O         14.8850   14.3000    3.2880 O.2   117  GLU117     -0.2864
     33  CB        18.0240   13.0920    3.1980 C.3   117  GLU117      0.0415
     34  CG        17.1670   11.8730    3.6280 C.3   117  GLU117      0.1163
     35  CD        17.0430   11.7660    5.1550 C.2   117  GLU117      0.3649
     36  OE1       15.9110   11.8240    5.6960 O.co2 117  GLU117     -0.2457
     37  OE2       18.0950   11.6570    5.8040 O.co2 117  GLU117     -0.2457
     38  N         23.2030   10.9320    8.7590 N.3   156  ALA156     -0.1231
     39  CA        21.9920   10.1430    8.8980 C.3   156  ALA156      0.1694
     40  C         21.8930    9.0690    7.7930 C.2   156  ALA156      0.2592
     41  O         22.8210    8.2850    7.6100 O.2   156  ALA156     -0.2718
     42  CB        20.7630   11.0750    8.9110 C.3   156  ALA156      0.0304
     43  N         20.7760    9.0300    7.0630 N.am  157  TYR157     -0.1976
     44  CA        20.5640    8.0120    6.0130 C.3   157  TYR157      0.1639
     45  C         21.7350    7.9760    4.9910 C.2   157  TYR157      0.2290
     46  O         22.2050    6.9180    4.5900 O.2   157  TYR157     -0.2864
     47  CB        19.2290    8.3030    5.3060 C.3   157  TYR157      0.0560
     48  CG        18.6300    7.1500    4.5320 C.ar  157  TYR157     -0.0198
     49  CD1       19.2320    5.8970    4.4950 C.ar  157  TYR157     -0.0009
     50  CD2       17.4460    7.3230    3.8400 C.ar  157  TYR157     -0.0009
     51  CE1       18.6570    4.8520    3.7780 C.ar  157  TYR157      0.0417
     52  CE2       16.8770    6.3030    3.1370 C.ar  157  TYR157      0.0417
     53  CZ        17.4800    5.0800    3.0940 C.ar  157  TYR157      0.1957
     54  OH        16.8640    4.1010    2.3670 O.3   157  TYR157     -0.2866
     55  N         24.6250    5.7570    5.9950 N.3   160  SER160     -0.1217
     56  CA        24.3490    4.3370    5.8050 C.3   160  SER160      0.1889
     57  C         24.4380    3.9210    4.3400 C.2   160  SER160      0.2288
     58  O         24.6380    2.7440    4.0400 O.2   160  SER160     -0.2866
     59  CB        22.9580    3.9820    6.3350 C.3   160  SER160      0.2089
     60  OG        22.8530    4.3640    7.6680 O.3   160  SER160     -0.2183
     61  N         12.6820   13.8550    5.2600 N.3   216  ASP216     -0.1225
     62  CA        12.8930   13.6530    6.6890 C.3   216  ASP216      0.1805
     63  C         11.9470   12.6110    7.2730 C.2   216  ASP216      0.2597
     64  O         11.1990   12.9020    8.2150 O.2   216  ASP216     -0.2718
     65  CB        12.7130   14.9680    7.4530 C.3   216  ASP216      0.1424
     66  CG        13.7000   16.0280    7.0300 C.2   216  ASP216      0.3668
     67  OD1       14.7580   15.6700    6.4890 O.co2 216  ASP216     -0.2456
     68  OD2       13.4250   17.2230    7.2430 O.co2 216  ASP216     -0.2456
     69  N         11.9590   11.4040    6.7160 N.am  217  HIS217     -0.1975
     70  CA        11.2370   10.2860    7.3400 C.3   217  HIS217      0.1656
     71  C          9.7060   10.4500    7.4060 C.2   217  HIS217      0.2291
     72  O          9.0270    9.7090    8.1180 O.2   217  HIS217     -0.2864
     73  CB        11.7880   10.0070    8.7440 C.3   217  HIS217      0.0771
     74  CG        11.7920    8.5560    9.1160 C.ar  217  HIS217      0.0820
     75  ND1       10.8560    8.0010    9.9610 N.ar  217  HIS217     -0.2267
     76  CD2       12.6180    7.5460    8.7550 C.ar  217  HIS217      0.1154
     77  CE1       11.1050    6.7120   10.1050 C.ar  217  HIS217      0.1986
     78  NE2       12.1700    6.4100    9.3850 N.ar  217  HIS217     -0.2212
@<TRIPOS>BOND
     1    54    53    1
     2    31    30    1
     3    31    32    2
     4    53    52   ar
     5    53    51   ar
     6    52    50   ar
     7    33    30    1
     8    33    34    1
     9    30    29    1
    10    34    35    1
    11    51    49   ar
    12    50    48   ar
    13    58    57    2
    14    57    56    1
    15    49    48   ar
    16    48    47    1
    17    46    45    2
    18    29    23   am
    19    24    23    2
    20    45    44    1
    21    35    36   ar
    22    35    37   ar
    23    61    62    1
    24    23    22    1
    25    47    44    1
    26    56    55    1
    27    56    59    1
    28    44    43    1
    29    59    60    1
    30    67    66   ar
    31    62    63    1
    32    62    65    1
    33    69    63   am
    34    69    70    1
    35    22    21    1
    36    22    25    1
    37    66    68   ar
    38    66    65    1
    39    43    40   am
    40    63    64    2
    41    70    71    1
    42    70    73    1
    43    71    72    2
    44    25    26    1
    45    41    40    2
    46    40    39    1
    47    73    74    1
    48    76    74   ar
    49    76    78   ar
    50    38    39    1
    51    39    42    1
    52    26    27    2
    53    26    28   am
    54    74    75   ar
    55    78    77   ar
    56    75    77   ar
    57    18    19    1
    58    18    20    1
    59    18    17    1
    60    16    15    2
    61    17    14    1
    62    15    14    1
    63    14    13    1
    64     4     3    2
    65    12    11    2
    66    10    11    1
    67    10     9    1
    68     5     6    1
    69     5     2    1
    70     3     9   am
    71     3     2    1
    72     8     6   ar
    73     6     7   ar
    74     2     1    1
