@<TRIPOS>MOLECULE
tmp/3v80A01.pdb
 112 109 0 0 0
SMALL
GASTEIGER

@<TRIPOS>ATOM
      1  N         16.1020   12.9500   17.7830 N.3    45  ASP45      -0.1225
      2  CA        16.1550   13.6570   16.5090 C.3    45  ASP45       0.1805
      3  C         14.8090   13.6540   15.7880 C.2    45  ASP45       0.2598
      4  O         14.4860   14.6100   15.0910 O.2    45  ASP45      -0.2718
      5  CB        17.2590   13.0860   15.6090 C.3    45  ASP45       0.1424
      6  CG        18.6400   13.4460   16.0960 C.2    45  ASP45       0.3668
      7  OD1       18.8070   14.5460   16.6570 O.co2  45  ASP45      -0.2456
      8  OD2       19.5530   12.6220   15.9380 O.co2  45  ASP45      -0.2456
      9  N         14.0310   12.5820   15.9550 N.am   46  GLY46      -0.1957
     10  CA        12.6780   12.5370   15.4140 C.3    46  GLY46       0.1869
     11  C         11.8160   13.6820   15.9310 C.2    46  GLY46       0.2309
     12  O         11.0700   14.3220   15.1700 O.2    46  GLY46      -0.2863
     13  N         13.1330   16.9060   14.3130 N.3    49  LEU49      -0.1245
     14  CA        12.6680   16.9530   12.9180 C.3    49  LEU49       0.1561
     15  C         11.2080   17.4070   12.8420 C.2    49  LEU49       0.2260
     16  O         10.8430   18.2100   11.9880 O.2    49  LEU49      -0.2867
     17  CB        12.7980   15.5720   12.2680 C.3    49  LEU49       0.0270
     18  CG        13.9680   15.1840   11.3550 C.3    49  LEU49       0.0019
     19  CD1       15.1590   16.0840   11.4910 C.3    49  LEU49       0.0001
     20  CD2       14.3600   13.7100   11.5470 C.3    49  LEU49       0.0001
     21  N         17.2980    8.6240   22.1330 N.3    71  HIS71      -0.1226
     22  CA        18.3390    7.6060   22.0970 C.3    71  HIS71       0.1752
     23  C         19.6780    8.1640   21.6200 C.2    71  HIS71       0.2596
     24  O         20.5940    8.3550   22.4210 O.2    71  HIS71      -0.2718
     25  CB        17.8840    6.4030   21.2690 C.3    71  HIS71       0.0759
     26  CG        16.6850    5.7130   21.8420 C.ar   71  HIS71       0.0818
     27  ND1       16.7440    4.9570   22.9930 N.ar   71  HIS71      -0.2268
     28  CD2       15.3910    5.6920   21.4440 C.ar   71  HIS71       0.1154
     29  CE1       15.5410    4.4880   23.2710 C.ar   71  HIS71       0.1986
     30  NE2       14.7010    4.9200   22.3460 N.ar   71  HIS71      -0.2212
     31  N         19.7860    8.4290   20.3210 N.am   72  LEU72      -0.1966
     32  CA        21.0010    9.0110   19.7550 C.3    72  LEU72       0.1728
     33  C         21.0200   10.5310   19.9310 C.2    72  LEU72       0.2617
     34  O         21.9730   11.0930   20.4740 O.2    72  LEU72      -0.2715
     35  CB        21.1240    8.6620   18.2660 C.3    72  LEU72       0.0311
     36  CG        22.5360    8.4920   17.6910 C.3    72  LEU72       0.0022
     37  CD1       22.7000    9.2410   16.3610 C.3    72  LEU72       0.0001
     38  CD2       23.6180    8.8830   18.6910 C.3    72  LEU72       0.0001
     39  N         19.9700   11.1930   19.4490 N.am   73  GLY73      -0.1940
     40  CA        19.8450   12.6360   19.5830 C.3    73  GLY73       0.2014
     41  C         21.0190   13.4290   19.0340 C.2    73  GLY73       0.2639
     42  O         21.8060   13.9890   19.7900 O.2    73  GLY73      -0.2714
     43  N         21.1120   13.4890   17.7080 N.am   74  PHE74      -0.1959
     44  CA        22.2150   14.1390   17.0120 C.3    74  PHE74       0.1771
     45  C         22.0730   15.6630   16.8640 C.2    74  PHE74       0.2619
     46  O         23.0720   16.3680   16.8290 O.2    74  PHE74      -0.2715
     47  CB        22.4310   13.4660   15.6410 C.3    74  PHE74       0.0574
     48  CG        23.6330   13.9720   14.9060 C.ar   74  PHE74      -0.0200
     49  CD1       24.8360   13.2950   14.9750 C.ar   74  PHE74      -0.0042
     50  CD2       23.5710   15.1530   14.2000 C.ar   74  PHE74      -0.0042
     51  CE1       25.9620   13.7720   14.3360 C.ar   74  PHE74      -0.0003
     52  CE2       24.6910   15.6270   13.5330 C.ar   74  PHE74      -0.0003
     53  CZ        25.8910   14.9360   13.6140 C.ar   74  PHE74      -0.0000
     54  N         20.8460   16.1720   16.7540 N.am   75  TYR75      -0.1974
     55  CA        20.5940   17.6240   16.7710 C.3    75  TYR75       0.1639
     56  C         20.4290   18.1730   18.2100 C.2    75  TYR75       0.2290
     57  O         20.0340   19.3240   18.4060 O.2    75  TYR75      -0.2864
     58  CB        19.3360   17.9830   15.9710 C.3    75  TYR75       0.0560
     59  CG        19.4870   17.8200   14.4750 C.ar   75  TYR75      -0.0198
     60  CD1       18.8300   16.8050   13.7890 C.ar   75  TYR75      -0.0009
     61  CD2       20.3100   18.6760   13.7490 C.ar   75  TYR75      -0.0009
     62  CE1       18.9870   16.6520   12.3950 C.ar   75  TYR75       0.0417
     63  CE2       20.4630   18.5400   12.3850 C.ar   75  TYR75       0.0417
     64  CZ        19.8050   17.5280   11.7100 C.ar   75  TYR75       0.1957
     65  OH        19.9820   17.4080   10.3460 O.3    75  TYR75      -0.2866
     66  N         17.2200   16.8650    6.9440 N.3   116  ASN116     -0.1240
     67  CA        18.1000   15.7250    6.7620 C.3   116  ASN116      0.1653
     68  C         18.2600   15.3640    5.2840 C.2   116  ASN116      0.2266
     69  O         19.3550   15.4700    4.7310 O.2   116  ASN116     -0.2867
     70  CB        17.6010   14.4940    7.5300 C.3   116  ASN116      0.1155
     71  CG        18.1290   14.4220    8.9670 C.2   116  ASN116      0.2627
     72  OD1       18.9970   15.2000    9.3920 O.2   116  ASN116     -0.2716
     73  ND2       17.6160   13.4580    9.7090 N.am  116  ASN116     -0.0877
     74  N         23.9770   18.5400    7.3740 N.3   152  SER152     -0.1217
     75  CA        23.6850   17.9440    8.6800 C.3   152  SER152      0.1889
     76  C         23.0360   16.5610    8.5240 C.2   152  SER152      0.2288
     77  O         23.2010   15.6730    9.3610 O.2   152  SER152     -0.2866
     78  CB        22.8680   18.8920    9.5720 C.3   152  SER152      0.2089
     79  OG        21.6020   19.2230    9.0220 O.3   152  SER152     -0.2183
     80  N         25.0790   12.6540    8.2270 N.3   155  THR155     -0.1203
     81  CA        25.4160   11.6900    9.2790 C.3   155  THR155      0.1994
     82  C         24.2850   10.7010    9.4910 C.2   155  THR155      0.2617
     83  O         24.3870    9.7490   10.2820 O.2   155  THR155     -0.2717
     84  CB        25.7090   12.4040   10.6040 C.3   155  THR155      0.1784
     85  OG1       24.7520   13.4490   10.7940 O.3   155  THR155     -0.2211
     86  CG2       27.0920   13.0120   10.5620 C.3   155  THR155      0.0376
     87  N         23.2030   10.9320    8.7590 N.am  156  ALA156     -0.1979
     88  CA        21.9920   10.1430    8.8980 C.3   156  ALA156      0.1597
     89  C         21.8930    9.0690    7.7930 C.2   156  ALA156      0.2287
     90  O         22.8210    8.2850    7.6100 O.2   156  ALA156     -0.2864
     91  CB        20.7630   11.0750    8.9110 C.3   156  ALA156      0.0319
     92  N         11.9590   11.4040    6.7160 N.3   217  HIS217     -0.1241
     93  CA        11.2370   10.2860    7.3400 C.3   217  HIS217      0.1621
     94  C          9.7060   10.4500    7.4060 C.2   217  HIS217      0.2264
     95  O          9.0270    9.7090    8.1180 O.2   217  HIS217     -0.2867
     96  CB        11.7880   10.0070    8.7440 C.3   217  HIS217      0.0745
     97  CG        11.7920    8.5560    9.1160 C.ar  217  HIS217      0.0817
     98  ND1       10.8560    8.0010    9.9610 N.ar  217  HIS217     -0.2268
     99  CD2       12.6180    7.5460    8.7550 C.ar  217  HIS217      0.1154
    100  CE1       11.1050    6.7120   10.1050 C.ar  217  HIS217      0.1986
    101  NE2       12.1700    6.4100    9.3850 N.ar  217  HIS217     -0.2212
    102  N         29.5160    8.4980   16.9900 N.3   255  PHE255     -0.1241
    103  CA        29.9500    7.3450   16.1970 C.3   255  PHE255      0.1605
    104  C         31.1980    6.6510   16.7410 C.2   255  PHE255      0.2264
    105  O         31.3570    5.4520   16.5740 O.2   255  PHE255     -0.2867
    106  CB        30.1580    7.7490   14.7210 C.3   255  PHE255      0.0534
    107  CG        28.8910    8.1970   14.0270 C.ar  255  PHE255     -0.0203
    108  CD1       28.6610    9.5380   13.7710 C.ar  255  PHE255     -0.0042
    109  CD2       27.9300    7.2670   13.6340 C.ar  255  PHE255     -0.0042
    110  CE1       27.4900    9.9520   13.1410 C.ar  255  PHE255     -0.0003
    111  CE2       26.7640    7.6690   13.0040 C.ar  255  PHE255     -0.0003
    112  CZ        26.5410    9.0110   12.7550 C.ar  255  PHE255     -0.0000
@<TRIPOS>BOND
     1    69    68    2
     2    68    67    1
     3    92    93    1
     4    67    66    1
     5    67    70    1
     6    93    94    1
     7    93    96    1
     8    74    75    1
     9    94    95    2
    10    70    71    1
    11    90    89    2
    12    89    88    1
    13    80    81    1
    14    76    75    1
    15    76    77    2
    16    75    78    1
    17    96    97    1
    18    99    97   ar
    19    99   101   ar
    20    87    88    1
    21    87    82   am
    22    88    91    1
    23    71    72    2
    24    71    73   am
    25    79    78    1
    26    97    98   ar
    27    81    82    1
    28    81    84    1
    29   101   100   ar
    30    82    83    2
    31    98   100   ar
    32    65    64    1
    33    86    84    1
    34    84    85    1
    35    18    19    1
    36    18    20    1
    37    18    17    1
    38    64    63   ar
    39    64    62   ar
    40    16    15    2
    41    17    14    1
    42    63    61   ar
    43    62    60   ar
    44   112   111   ar
    45   112   110   ar
    46    15    14    1
    47    14    13    1
    48   111   109   ar
    49   110   108   ar
    50    52    53   ar
    51    52    50   ar
    52    53    51   ar
    53   109   107   ar
    54    61    59   ar
    55   108   107   ar
    56    60    59   ar
    57   107   106    1
    58    50    48   ar
    59    51    49   ar
    60    59    58    1
    61   106   103    1
    62    48    49   ar
    63    48    47    1
    64     4     3    2
    65    12    11    2
    66    10    11    1
    67    10     9    1
    68     5     6    1
    69     5     2    1
    70    47    44    1
    71     3     9   am
    72     3     2    1
    73     8     6   ar
    74    58    55    1
    75     6     7   ar
    76   103   104    1
    77   103   102    1
    78    37    36    1
    79     2     1    1
    80   105   104    2
    81    54    55    1
    82    54    45   am
    83    55    56    1
    84    46    45    2
    85    45    44    1
    86    44    43    1
    87    36    35    1
    88    36    38    1
    89    43    41   am
    90    56    57    2
    91    35    32    1
    92    41    40    1
    93    41    42    2
    94    39    40    1
    95    39    33   am
    96    32    33    1
    97    32    31    1
    98    33    34    2
    99    31    23   am
   100    25    26    1
   101    25    22    1
   102    28    26   ar
   103    28    30   ar
   104    23    22    1
   105    23    24    2
   106    26    27   ar
   107    22    21    1
   108    30    29   ar
   109    27    29   ar
