@<TRIPOS>MOLECULE
tmp/3v83A01.pdb
 106 100 0 0 0
SMALL
GASTEIGER

@<TRIPOS>ATOM
      1  N        -55.2850   48.7210  -28.8230 N.3    41  SER41      -0.1202
      2  CA       -55.9770   47.5080  -28.3980 C.3    41  SER41       0.2020
      3  C        -55.1950   46.3350  -28.9240 C.2    41  SER41       0.2619
      4  O        -54.3450   46.5130  -29.7840 O.2    41  SER41      -0.2717
      5  CB       -57.4020   47.4590  -28.9620 C.3    41  SER41       0.2103
      6  OG       -57.3950   47.4400  -30.3840 O.3    41  SER41      -0.2182
      7  N        -55.4930   45.1380  -28.4200 N.am   42  TYR42      -0.1961
      8  CA       -54.8270   43.9190  -28.8620 C.3    42  TYR42       0.1771
      9  C        -55.1140   43.7370  -30.3670 C.2    42  TYR42       0.2619
     10  O        -54.3230   43.1340  -31.1010 O.2    42  TYR42      -0.2715
     11  CB       -55.3760   42.7150  -28.0820 C.3    42  TYR42       0.0574
     12  CG       -56.7530   42.3200  -28.5780 C.ar   42  TYR42      -0.0198
     13  CD1      -56.9050   41.3870  -29.6050 C.ar   42  TYR42      -0.0009
     14  CD2      -57.9050   42.9260  -28.0580 C.ar   42  TYR42      -0.0009
     15  CE1      -58.1610   41.0580  -30.0950 C.ar   42  TYR42       0.0417
     16  CE2      -59.1590   42.5920  -28.5250 C.ar   42  TYR42       0.0417
     17  CZ       -59.2790   41.6590  -29.5410 C.ar   42  TYR42       0.1957
     18  OH       -60.5140   41.3320  -30.0220 O.3    42  TYR42      -0.2866
     19  N        -56.2670   44.2370  -30.8140 N.am   43  LEU43      -0.1963
     20  CA       -56.6830   44.0350  -32.1990 C.3    43  LEU43       0.1728
     21  C        -55.8790   44.9300  -33.1170 C.2    43  LEU43       0.2616
     22  O        -55.5190   44.5290  -34.2230 O.2    43  LEU43      -0.2715
     23  CB       -58.1870   44.2800  -32.3800 C.3    43  LEU43       0.0311
     24  CG       -58.7080   44.0960  -33.8170 C.3    43  LEU43       0.0022
     25  CD1      -58.3880   42.6960  -34.3440 C.3    43  LEU43       0.0001
     26  CD2      -60.2130   44.4030  -33.9460 C.3    43  LEU43       0.0001
     27  N        -55.5910   46.1450  -32.6580 N.am   44  ASP44      -0.1971
     28  CA       -54.6700   47.0090  -33.3810 C.3    44  ASP44       0.1709
     29  C        -53.2940   46.3560  -33.4510 C.2    44  ASP44       0.2293
     30  O        -52.5890   46.5110  -34.4430 O.2    44  ASP44      -0.2864
     31  CB       -54.5820   48.3940  -32.7360 C.3    44  ASP44       0.1436
     32  CG       -55.7890   49.2670  -33.0720 C.2    44  ASP44       0.3671
     33  OD1      -56.1870   49.2860  -34.2490 O.co2  44  ASP44      -0.2456
     34  OD2      -56.3480   49.9260  -32.1690 O.co2  44  ASP44      -0.2456
     35  N        -53.3170   43.4740  -36.1320 N.3    47  ARG47      -0.1245
     36  CA       -53.2740   44.0760  -37.4620 C.3    47  ARG47       0.1563
     37  C        -51.9240   44.7140  -37.7530 C.2    47  ARG47       0.2260
     38  O        -51.4320   44.6380  -38.8810 O.2    47  ARG47      -0.2867
     39  CB       -54.3960   45.0960  -37.6370 C.3    47  ARG47       0.0307
     40  CG       -55.7640   44.4560  -37.7430 C.3    47  ARG47       0.0489
     41  CD       -56.8400   45.5040  -37.5820 C.3    47  ARG47       0.2205
     42  NE       -58.1720   44.9450  -37.7670 N.pl3  47  ARG47      -0.0865
     43  CZ       -59.2910   45.5700  -37.4150 C.cat  47  ARG47       0.5346
     44  NH1      -59.2270   46.7760  -36.8560 N.pl3  47  ARG47       0.1354
     45  NH2      -60.4650   44.9920  -37.6200 N.pl3  47  ARG47       0.1354
     46  N        -58.9260   35.0750  -33.0420 N.3    66  ASP66      -0.1239
     47  CA       -59.0470   36.2450  -33.9280 C.3    66  ASP66       0.1674
     48  C        -57.7740   36.4920  -34.7390 C.2    66  ASP66       0.2266
     49  O        -57.8410   36.9730  -35.8680 O.2    66  ASP66      -0.2867
     50  CB       -59.3700   37.5340  -33.1520 C.3    66  ASP66       0.1410
     51  CG       -60.6810   37.4550  -32.3700 C.2    66  ASP66       0.3668
     52  OD1      -61.4180   36.4620  -32.5250 O.co2  66  ASP66      -0.2456
     53  OD2      -60.9710   38.3930  -31.5910 O.co2  66  ASP66      -0.2456
     54  N        -63.9890   41.4610  -24.0390 N.3   119  LEU119     -0.1245
     55  CA       -64.7340   40.7630  -25.0810 C.3   119  LEU119      0.1561
     56  C        -63.8380   39.7670  -25.8250 C.2   119  LEU119      0.2260
     57  O        -62.7460   40.1170  -26.2700 O.2   119  LEU119     -0.2867
     58  CB       -65.3090   41.7680  -26.0800 C.3   119  LEU119      0.0270
     59  CG       -66.1880   41.1440  -27.1630 C.3   119  LEU119      0.0019
     60  CD1      -67.5230   40.8090  -26.5630 C.3   119  LEU119      0.0001
     61  CD2      -66.3720   42.1020  -28.3260 C.3   119  LEU119      0.0001
     62  N        -73.8510   40.2410  -28.4750 N.3   144  GLU144     -0.1245
     63  CA       -73.6300   41.2970  -27.4970 C.3   144  GLU144      0.1567
     64  C        -74.9500   41.8590  -26.9600 C.2   144  GLU144      0.2260
     65  O        -75.0930   42.0580  -25.7600 O.2   144  GLU144     -0.2867
     66  CB       -72.7650   42.4140  -28.0840 C.3   144  GLU144      0.0388
     67  CG       -71.3310   41.9990  -28.3720 C.3   144  GLU144      0.1160
     68  CD       -71.0610   41.8230  -29.8640 C.2   144  GLU144      0.3649
     69  OE1      -71.9370   41.2770  -30.5940 O.co2 144  GLU144     -0.2457
     70  OE2      -69.9740   42.2560  -30.3050 O.co2 144  GLU144     -0.2457
     71  N        -63.6280   46.3230  -24.5940 N.3   158  CYS158     -0.1221
     72  CA       -63.4580   46.1270  -26.0490 C.3   158  CYS158      0.1808
     73  C        -64.7840   45.9330  -26.8090 C.2   158  CYS158      0.2601
     74  O        -64.7910   45.8480  -28.0370 O.2   158  CYS158     -0.2717
     75  CB       -62.4380   45.0350  -26.4190 C.3   158  CYS158      0.0970
     76  SG       -61.0170   44.8820  -25.2830 S.3   158  CYS158     -0.0800
     77  N        -65.8960   45.8780  -26.0810 N.am  159  ALA159     -0.1965
     78  CA       -67.2170   45.8680  -26.7130 C.3   159  ALA159      0.1728
     79  C        -67.5370   47.2440  -27.2780 C.2   159  ALA159      0.2616
     80  O        -66.9170   48.2430  -26.8950 O.2   159  ALA159     -0.2715
     81  CB       -68.2950   45.4360  -25.7250 C.3   159  ALA159      0.0334
     82  N        -68.4870   47.3130  -28.2030 N.am  160  ASP160     -0.1971
     83  CA       -68.8390   48.6150  -28.7780 C.3   160  ASP160      0.1709
     84  C        -69.9460   49.2580  -27.9640 C.2   160  ASP160      0.2293
     85  O        -71.1120   48.8720  -28.0680 O.2   160  ASP160     -0.2864
     86  CB       -69.2260   48.5030  -30.2570 C.3   160  ASP160      0.1436
     87  CG       -69.6150   49.8460  -30.8680 C.2   160  ASP160      0.3671
     88  OD1      -69.2550   50.9000  -30.2990 O.co2 160  ASP160     -0.2456
     89  OD2      -70.2800   49.8470  -31.9270 O.co2 160  ASP160     -0.2456
     90  N        -60.4810   49.2890  -24.0920 N.3   176  CYS176     -0.1235
     91  CA       -59.7470   48.0480  -24.3580 C.3   176  CYS176      0.1677
     92  C        -58.2700   48.0520  -23.9130 C.2   176  CYS176      0.2270
     93  O        -57.4250   47.4660  -24.5910 O.2   176  CYS176     -0.2867
     94  CB       -59.8040   47.7100  -25.8660 C.3   176  CYS176      0.0956
     95  SG       -59.5570   45.9340  -26.2310 S.3   176  CYS176     -0.0801
     96  N        -69.0770   32.9450  -31.9650 N.3   324  ARG324     -0.1245
     97  CA       -68.9530   34.1430  -32.8070 C.3   324  ARG324      0.1563
     98  C        -70.0870   34.2200  -33.8050 C.2   324  ARG324      0.2260
     99  O        -70.6680   35.2780  -34.0200 O.2   324  ARG324     -0.2867
    100  CB       -67.6470   34.1720  -33.6020 C.3   324  ARG324      0.0307
    101  CG       -66.4460   33.5880  -32.9180 C.3   324  ARG324      0.0489
    102  CD       -65.9850   34.4400  -31.7750 C.3   324  ARG324      0.2205
    103  NE       -65.3460   35.6410  -32.2630 N.pl3 324  ARG324     -0.0865
    104  CZ       -64.2330   36.1530  -31.7580 C.cat 324  ARG324      0.5346
    105  NH1      -63.7350   37.2660  -32.2800 N.pl3 324  ARG324      0.1354
    106  NH2      -63.6210   35.5630  -30.7370 N.pl3 324  ARG324      0.1354
@<TRIPOS>BOND
     1    38    37    2
     2    42    41    1
     3    42    43    2
     4    37    36    1
     5    40    39    1
     6    40    41    1
     7    39    36    1
     8    45    43    1
     9    36    35    1
    10    43    44    1
    11    49    48    2
    12    48    47    1
    13    30    29    2
    14    25    24    1
    15    33    32   ar
    16    22    21    2
    17    99    98    2
    18    26    24    1
    19    47    50    1
    20    47    46    1
    21    24    23    1
    22    98    97    1
    23   100   101    1
    24   100    97    1
    25    29    28    1
    26    28    31    1
    27    28    27    1
    28    50    51    1
    29    21    27   am
    30    21    20    1
    31    32    31    1
    32    32    34   ar
    33   101   102    1
    34    97    96    1
    35    52    51   ar
    36    23    20    1
    37    51    53   ar
    38   105   104    1
    39   103   102    1
    40   103   104    2
    41    20    19    1
    42    89    87   ar
    43   104   106    1
    44    10     9    2
    45    87    88   ar
    46    87    86    1
    47    19     9   am
    48    69    68   ar
    49     6     5    1
    50     9     8    1
    51    70    68   ar
    52    86    83    1
    53    15    13   ar
    54    15    17   ar
    55    18    17    1
    56    68    67    1
    57     4     3    2
    58    13    12   ar
    59    17    16   ar
    60     5     2    1
    61     3     7   am
    62     3     2    1
    63     8     7    1
    64     8    11    1
    65     1     2    1
    66    83    82    1
    67    83    84    1
    68    12    11    1
    69    12    14   ar
    70    16    14   ar
    71    62    63    1
    72    67    66    1
    73    61    59    1
    74    82    79   am
    75    66    63    1
    76    85    84    2
    77    74    73    2
    78    63    64    1
    79    79    80    2
    80    79    78    1
    81    59    60    1
    82    59    58    1
    83    64    65    2
    84    73    77   am
    85    73    72    1
    86    78    77    1
    87    78    81    1
    88    75    72    1
    89    75    76    1
    90    57    56    2
    91    95    94    1
    92    95    76    1
    93    58    55    1
    94    72    71    1
    95    94    91    1
    96    56    55    1
    97    55    54    1
    98    93    92    2
    99    91    90    1
   100    91    92    1
