@<TRIPOS>MOLECULE
tmp/3v83F00.pdb
 92 87 0 0 0
SMALL
GASTEIGER

@<TRIPOS>ATOM
      1  N        -20.8180   -7.2650  -69.9980 N.3    85  GLY85      -0.1225
      2  CA       -21.8520   -6.2700  -69.7870 C.3    85  GLY85       0.1811
      3  C        -22.9950   -6.4930  -70.7600 C.2    85  GLY85       0.2280
      4  O        -23.9400   -7.2170  -70.4420 O.2    85  GLY85      -0.2866
      5  N        -15.9540  -10.5480  -60.8350 N.3   206  HIS206     -0.1226
      6  CA       -17.1650  -10.0120  -60.2280 C.3   206  HIS206      0.1752
      7  C        -18.4590  -10.7330  -60.6340 C.2   206  HIS206      0.2596
      8  O        -19.4280  -10.7380  -59.8790 O.2   206  HIS206     -0.2718
      9  CB       -17.2760   -8.4950  -60.4760 C.3   206  HIS206      0.0759
     10  CG       -17.5660   -8.1180  -61.9000 C.ar  206  HIS206      0.0818
     11  ND1      -16.5990   -8.1240  -62.8860 N.ar  206  HIS206     -0.2268
     12  CD2      -18.7100   -7.7050  -62.5040 C.ar  206  HIS206      0.1154
     13  CE1      -17.1370   -7.7470  -64.0320 C.ar  206  HIS206      0.1986
     14  NE2      -18.4180   -7.4810  -63.8280 N.ar  206  HIS206     -0.2212
     15  N        -18.4730  -11.3490  -61.8120 N.am  207  SER207     -0.1952
     16  CA       -19.6810  -11.9870  -62.3200 C.3   207  SER207      0.1924
     17  C        -19.7720  -13.4370  -61.8630 C.2   207  SER207      0.2314
     18  O        -20.7980  -14.0910  -62.0380 O.2   207  SER207     -0.2863
     19  CB       -19.6970  -11.9630  -63.8460 C.3   207  SER207      0.2116
     20  OG       -18.6940  -12.8310  -64.3630 O.3   207  SER207     -0.2180
     21  N        -22.5970  -14.7670  -59.5760 N.3   210  PHE210     -0.1227
     22  CA       -23.8800  -14.6230  -60.2640 C.3   210  PHE210      0.1736
     23  C        -24.0530  -15.6820  -61.3480 C.2   210  PHE210      0.2595
     24  O        -25.1680  -16.0870  -61.6430 O.2   210  PHE210     -0.2718
     25  CB       -24.0140  -13.2150  -60.8630 C.3   210  PHE210      0.0547
     26  CG       -23.8730  -12.1150  -59.8380 C.ar  210  PHE210     -0.0202
     27  CD1      -24.9230  -11.8140  -58.9730 C.ar  210  PHE210     -0.0042
     28  CD2      -22.6810  -11.4110  -59.7110 C.ar  210  PHE210     -0.0042
     29  CE1      -24.7890  -10.8180  -58.0050 C.ar  210  PHE210     -0.0003
     30  CE2      -22.5420  -10.4190  -58.7500 C.ar  210  PHE210     -0.0003
     31  CZ       -23.6010  -10.1270  -57.8910 C.ar  210  PHE210     -0.0000
     32  N        -22.9540  -16.1410  -61.9340 N.am  211  GLU211     -0.1979
     33  CA       -23.0580  -17.1810  -62.9420 C.3   211  GLU211      0.1602
     34  C        -23.3350  -18.5290  -62.2970 C.2   211  GLU211      0.2287
     35  O        -23.8380  -19.4370  -62.9500 O.2   211  GLU211     -0.2864
     36  CB       -21.7570  -17.3030  -63.7290 C.3   211  GLU211      0.0415
     37  CG       -21.4240  -16.1620  -64.6580 C.3   211  GLU211      0.1163
     38  CD       -20.0350  -16.3580  -65.2860 C.2   211  GLU211      0.3649
     39  OE1      -19.7370  -17.4990  -65.7490 O.co2 211  GLU211     -0.2457
     40  OE2      -19.2420  -15.3850  -65.2880 O.co2 211  GLU211     -0.2457
     41  N        -28.0600  -18.6640  -58.9720 N.3   214  ALA214     -0.1245
     42  CA       -29.1080  -17.8500  -59.5840 C.3   214  ALA214      0.1562
     43  C        -29.9730  -17.1380  -58.5390 C.2   214  ALA214      0.2260
     44  O        -30.5590  -16.0920  -58.8150 O.2   214  ALA214     -0.2867
     45  CB       -29.9770  -18.7000  -60.5190 C.3   214  ALA214      0.0290
     46  N        -26.7440  -16.4080  -52.6760 N.3   219  ARG219     -0.1245
     47  CA       -25.6170  -15.4850  -52.7870 C.3   219  ARG219      0.1563
     48  C        -25.3650  -14.7160  -51.4900 C.2   219  ARG219      0.2260
     49  O        -24.2370  -14.2880  -51.2230 O.2   219  ARG219     -0.2867
     50  CB       -25.8080  -14.5230  -53.9570 C.3   219  ARG219      0.0307
     51  CG       -26.0600  -15.2370  -55.2800 C.3   219  ARG219      0.0489
     52  CD       -25.8770  -14.3200  -56.4850 C.3   219  ARG219      0.2205
     53  NE       -26.9010  -13.2940  -56.5800 N.pl3 219  ARG219     -0.0865
     54  CZ       -28.0560  -13.4410  -57.2240 C.cat 219  ARG219      0.5346
     55  NH1      -28.9270  -12.4480  -57.2500 N.pl3 219  ARG219      0.1354
     56  NH2      -28.3470  -14.5790  -57.8390 N.pl3 219  ARG219      0.1354
     57  N        -22.8240   -7.9820  -54.5870 N.3   235  ASP235     -0.1239
     58  CA       -23.3180   -7.1030  -55.6300 C.3   235  ASP235      0.1674
     59  C        -22.6390   -5.7440  -55.5540 C.2   235  ASP235      0.2266
     60  O        -22.8350   -4.9040  -56.4360 O.2   235  ASP235     -0.2867
     61  CB       -24.8460   -6.9650  -55.5890 C.3   235  ASP235      0.1410
     62  CG       -25.3680   -6.7780  -54.1940 C.2   235  ASP235      0.3668
     63  OD1      -25.8390   -7.7700  -53.5970 O.co2 235  ASP235     -0.2456
     64  OD2      -25.2910   -5.6410  -53.6890 O.co2 235  ASP235     -0.2456
     65  N        -19.3960   -5.1330  -55.8610 N.3   237  TYR237     -0.1241
     66  CA       -18.0560   -5.3060  -56.4130 C.3   237  TYR237      0.1605
     67  C        -17.4280   -4.0100  -56.9130 C.2   237  TYR237      0.2264
     68  O        -16.2010   -3.8750  -56.9090 O.2   237  TYR237     -0.2867
     69  CB       -18.0560   -6.3620  -57.5340 C.3   237  TYR237      0.0534
     70  CG       -19.1060   -6.1140  -58.6090 C.ar  237  TYR237     -0.0201
     71  CD1      -20.3440   -6.7500  -58.5600 C.ar  237  TYR237     -0.0009
     72  CD2      -18.8540   -5.2440  -59.6690 C.ar  237  TYR237     -0.0009
     73  CE1      -21.3110   -6.5260  -59.5310 C.ar  237  TYR237      0.0417
     74  CE2      -19.8120   -5.0100  -60.6420 C.ar  237  TYR237      0.0417
     75  CZ       -21.0410   -5.6560  -60.5630 C.ar  237  TYR237      0.1957
     76  OH       -21.9990   -5.4310  -61.5210 O.3   237  TYR237     -0.2866
     77  N        -19.4140  -15.1010  -69.4370 N.3   297  SER297     -0.1217
     78  CA       -19.8360  -13.7280  -69.1560 C.3   297  SER297      0.1889
     79  C        -19.6530  -12.7840  -70.3350 C.2   297  SER297      0.2288
     80  O        -20.1900  -11.6740  -70.3140 O.2   297  SER297     -0.2866
     81  CB       -19.1410  -13.1510  -67.9170 C.3   297  SER297      0.2089
     82  OG       -17.7300  -13.2180  -68.0470 O.3   297  SER297     -0.2183
     83  N        -20.3200  -11.0150  -73.8650 N.3   299  HIS299     -0.1241
     84  CA       -21.4660  -10.8130  -74.7380 C.3   299  HIS299      0.1621
     85  C        -21.0890  -10.6390  -76.1930 C.2   299  HIS299      0.2264
     86  O        -21.9700  -10.4670  -77.0200 O.2   299  HIS299     -0.2867
     87  CB       -22.3060   -9.6140  -74.2970 C.3   299  HIS299      0.0745
     88  CG       -23.0990   -9.8660  -73.0560 C.ar  299  HIS299      0.0817
     89  ND1      -24.4600   -9.6670  -72.9890 N.ar  299  HIS299     -0.2268
     90  CD2      -22.7220  -10.3200  -71.8370 C.ar  299  HIS299      0.1154
     91  CE1      -24.8880   -9.9740  -71.7770 C.ar  299  HIS299      0.1986
     92  NE2      -23.8520  -10.3750  -71.0590 N.ar  299  HIS299     -0.2212
@<TRIPOS>BOND
     1    86    85    2
     2    85    84    1
     3    84    87    1
     4    84    83    1
     5    87    88    1
     6    88    89   ar
     7    88    90   ar
     8    89    91   ar
     9    90    92   ar
    10    91    92   ar
    11     3     4    2
    12     3     2    1
    13    79    80    2
    14    79    78    1
    15     1     2    1
    16    77    78    1
    17    78    81    1
    18    82    81    1
    19    39    38   ar
    20    40    38   ar
    21    38    37    1
    22    37    36    1
    23    20    19    1
    24    13    14   ar
    25    13    11   ar
    26    19    16    1
    27    14    12   ar
    28    36    33    1
    29    35    34    2
    30    33    34    1
    31    33    32    1
    32    11    10   ar
    33    12    10   ar
    34    16    17    1
    35    16    15    1
    36    18    17    2
    37    32    23   am
    38    10     9    1
    39    15     7   am
    40    24    23    2
    41    76    75    1
    42    23    22    1
    43    25    22    1
    44    25    26    1
    45     5     6    1
    46    74    75   ar
    47    74    72   ar
    48     7     6    1
    49     7     8    2
    50    75    73   ar
    51    45    42    1
    52     9     6    1
    53    22    21    1
    54    26    28   ar
    55    26    27   ar
    56    28    30   ar
    57    72    70   ar
    58    42    41    1
    59    42    43    1
    60    73    71   ar
    61    27    29   ar
    62    44    43    2
    63    30    31   ar
    64    70    71   ar
    65    70    69    1
    66    29    31   ar
    67    56    54    1
    68    69    66    1
    69    55    54    1
    70    54    53    2
    71    67    68    2
    72    67    66    1
    73    53    52    1
    74    52    51    1
    75    60    59    2
    76    66    65    1
    77    58    61    1
    78    58    59    1
    79    58    57    1
    80    61    62    1
    81    51    50    1
    82    62    64   ar
    83    62    63   ar
    84    50    47    1
    85    47    46    1
    86    47    48    1
    87    48    49    2
