@<TRIPOS>MOLECULE
tmp/3v83C02.pdb
 81 77 0 0 0
SMALL
GASTEIGER

@<TRIPOS>ATOM
      1  N        -41.4040   31.4390  -60.7570 N.3   127  ILE127     -0.1245
      2  CA       -40.9230   30.3780  -59.8720 C.3   127  ILE127      0.1561
      3  C        -41.0940   30.7140  -58.3790 C.2   127  ILE127      0.2260
      4  O        -41.6290   29.9110  -57.6370 O.2   127  ILE127     -0.2867
      5  CB       -39.4450   29.9850  -60.1640 C.3   127  ILE127      0.0252
      6  CG1      -39.2860   29.4610  -61.5980 C.3   127  ILE127      0.0019
      7  CG2      -38.9430   28.9790  -59.1180 C.3   127  ILE127      0.0019
      8  CD1      -40.1730   28.2520  -61.9390 C.3   127  ILE127      0.0001
      9  N        -35.7850   26.0630  -59.1240 N.3   241  ALA241     -0.1231
     10  CA       -36.2550   25.3550  -60.3150 C.3   241  ALA241      0.1694
     11  C        -35.2510   25.4620  -61.4410 C.2   241  ALA241      0.2592
     12  O        -34.4050   26.3530  -61.4380 O.2   241  ALA241     -0.2718
     13  CB       -37.5810   25.9310  -60.7860 C.3   241  ALA241      0.0304
     14  N        -35.3720   24.5620  -62.4110 N.am  242  GLN242     -0.1966
     15  CA       -34.6980   24.6990  -63.6940 C.3   242  GLN242      0.1733
     16  C        -35.7040   25.1880  -64.7210 C.2   242  GLN242      0.2616
     17  O        -36.8020   24.6430  -64.8450 O.2   242  GLN242     -0.2715
     18  CB       -34.1410   23.3640  -64.1690 C.3   242  GLN242      0.0408
     19  CG       -33.1750   22.7130  -63.2170 C.3   242  GLN242      0.0908
     20  CD       -32.6890   21.3650  -63.7280 C.2   242  GLN242      0.2608
     21  OE1      -32.8880   20.3390  -63.0780 O.2   242  GLN242     -0.2717
     22  NE2      -32.0510   21.3630  -64.8970 N.am  242  GLN242     -0.0878
     23  N        -35.3240   26.1990  -65.4830 N.am  243  VAL243     -0.1964
     24  CA       -36.2590   26.7990  -66.4120 C.3   243  VAL243      0.1712
     25  C        -35.6290   26.8950  -67.7930 C.2   243  VAL243      0.2458
     26  O        -34.4100   26.9700  -67.9110 O.2   243  VAL243     -0.2730
     27  CB       -36.7110   28.1910  -65.9160 C.3   243  VAL243      0.0289
     28  CG1      -37.7290   28.0490  -64.7510 C.3   243  VAL243      0.0023
     29  CG2      -35.5300   29.0340  -65.5240 C.3   243  VAL243      0.0023
     30  N        -36.4600   26.9020  -68.8450 N.am  244  PRO244     -0.2727
     31  CA       -35.9140   26.9490  -70.2100 C.3   244  PRO244      0.1402
     32  C        -35.2200   28.2730  -70.4770 C.2   244  PRO244      0.2269
     33  O        -35.6210   29.3040  -69.9360 O.2   244  PRO244     -0.2865
     34  CB       -37.1640   26.8420  -71.0980 C.3   244  PRO244      0.0296
     35  CG       -38.2550   26.3240  -70.1970 C.3   244  PRO244      0.0237
     36  CD       -37.9340   26.8760  -68.8380 C.3   244  PRO244      0.0939
     37  N        -41.8530   25.7550  -73.4660 N.3   312  LEU312     -0.1245
     38  CA       -41.9660   25.9460  -72.0280 C.3   312  LEU312      0.1561
     39  C        -42.0790   24.6420  -71.2370 C.2   312  LEU312      0.2260
     40  O        -41.6160   24.5670  -70.1080 O.2   312  LEU312     -0.2867
     41  CB       -43.1520   26.8540  -71.7100 C.3   312  LEU312      0.0270
     42  CG       -43.1160   28.2400  -72.3630 C.3   312  LEU312      0.0019
     43  CD1      -44.1650   29.1290  -71.7210 C.3   312  LEU312      0.0001
     44  CD2      -41.7520   28.8530  -72.2240 C.3   312  LEU312      0.0001
     45  N        -45.2890   21.2330  -67.3780 N.3   315  GLU315     -0.1231
     46  CA       -45.3550   21.6050  -65.9640 C.3   315  GLU315      0.1699
     47  C        -45.3270   23.1190  -65.8130 C.2   315  GLU315      0.2592
     48  O        -46.1120   23.6890  -65.0550 O.2   315  GLU315     -0.2718
     49  CB       -44.2010   20.9890  -65.1690 C.3   315  GLU315      0.0402
     50  CG       -44.1620   19.4680  -65.1600 C.3   315  GLU315      0.1161
     51  CD       -43.7520   18.8640  -66.5060 C.2   315  GLU315      0.3649
     52  OE1      -43.2760   19.6120  -67.4000 O.co2 315  GLU315     -0.2457
     53  OE2      -43.9130   17.6340  -66.6660 O.co2 315  GLU315     -0.2457
     54  N        -44.4220   23.7580  -66.5500 N.am  316  TYR316     -0.1976
     55  CA       -44.2220   25.2000  -66.4590 C.3   316  TYR316      0.1639
     56  C        -45.4180   25.9680  -67.0120 C.2   316  TYR316      0.2290
     57  O        -45.8880   26.9210  -66.3900 O.2   316  TYR316     -0.2864
     58  CB       -42.9290   25.6020  -67.1800 C.3   316  TYR316      0.0560
     59  CG       -42.4680   27.0210  -66.9140 C.ar  316  TYR316     -0.0198
     60  CD1      -42.8450   27.6890  -65.7550 C.ar  316  TYR316     -0.0009
     61  CD2      -41.6540   27.6900  -67.8210 C.ar  316  TYR316     -0.0009
     62  CE1      -42.4180   28.9750  -65.5000 C.ar  316  TYR316      0.0417
     63  CE2      -41.2420   28.9900  -67.5810 C.ar  316  TYR316      0.0417
     64  CZ       -41.6230   29.6220  -66.4160 C.ar  316  TYR316      0.1957
     65  OH       -41.2240   30.9090  -66.1650 O.3   316  TYR316     -0.2866
     66  N        -48.1180   25.7640  -64.5520 N.3   319  ALA319     -0.1245
     67  CA       -47.8470   26.6310  -63.4150 C.3   319  ALA319      0.1562
     68  C        -48.1650   28.1040  -63.7260 C.2   319  ALA319      0.2260
     69  O        -48.7540   28.7990  -62.8990 O.2   319  ALA319     -0.2867
     70  CB       -46.4130   26.4540  -62.9180 C.3   319  ALA319      0.0290
     71  N        -33.3720   19.8980  -74.7100 N.3   674  ARG674     -0.1245
     72  CA       -32.8060   20.2560  -73.4130 C.3   674  ARG674      0.1563
     73  C        -32.0430   19.0810  -72.8090 C.2   674  ARG674      0.2260
     74  O        -30.8360   19.1650  -72.5980 O.2   674  ARG674     -0.2867
     75  CB       -33.8930   20.7430  -72.4390 C.3   674  ARG674      0.0307
     76  CG       -34.2410   22.2270  -72.5520 C.3   674  ARG674      0.0489
     77  CD       -34.8800   22.7440  -71.2680 C.3   674  ARG674      0.2205
     78  NE       -36.3050   22.4300  -71.1850 N.pl3 674  ARG674     -0.0865
     79  CZ       -37.0300   22.5080  -70.0700 C.cat 674  ARG674      0.5346
     80  NH1      -38.3240   22.1990  -70.1010 N.pl3 674  ARG674      0.1354
     81  NH2      -36.4620   22.8840  -68.9240 N.pl3 674  ARG674      0.1354
@<TRIPOS>BOND
     1    71    72    1
     2    37    38    1
     3    72    73    1
     4    72    75    1
     5    73    74    2
     6    76    75    1
     7    76    77    1
     8    42    44    1
     9    42    43    1
    10    42    41    1
    11    38    41    1
    12    38    39    1
    13    77    78    1
    14    39    40    2
    15    78    79    2
    16    34    31    1
    17    34    35    1
    18    32    31    1
    19    32    33    2
    20    31    30    1
    21    35    36    1
    22    80    79    1
    23    79    81    1
    24    30    36    1
    25    30    25   am
    26    26    25    2
    27    61    63   ar
    28    61    59   ar
    29    25    24    1
    30    63    64   ar
    31    52    51   ar
    32    45    46    1
    33    58    59    1
    34    58    55    1
    35    56    55    1
    36    56    57    2
    37    59    60   ar
    38    53    51   ar
    39    54    55    1
    40    54    47   am
    41    51    50    1
    42    64    65    1
    43    64    62   ar
    44    24    27    1
    45    24    23    1
    46    46    47    1
    47    46    49    1
    48    27    29    1
    49    27    28    1
    50    47    48    2
    51    60    62   ar
    52    23    16   am
    53    49    50    1
    54    22    20   am
    55    17    16    2
    56    16    15    1
    57    66    67    1
    58    18    15    1
    59    18    19    1
    60    20    19    1
    61    20    21    2
    62    68    67    1
    63    68    69    2
    64    15    14    1
    65    67    70    1
    66    14    11   am
    67     8     6    1
    68     6     5    1
    69    11    12    2
    70    11    10    1
    71    13    10    1
    72     1     2    1
    73    10     9    1
    74     5     2    1
    75     5     7    1
    76     2     3    1
    77     3     4    2
