@<TRIPOS>MOLECULE
tmp/3v83D01.pdb
 77 74 0 0 0
SMALL
GASTEIGER

@<TRIPOS>ATOM
      1  N        -58.4950    6.4030   42.4810 N.3   336  GLU336     -0.1231
      2  CA       -58.2970    7.8390   42.4370 C.3   336  GLU336      0.1699
      3  C        -56.9060    8.2520   41.9550 C.2   336  GLU336      0.2592
      4  O        -55.9550    8.2470   42.7280 O.2   336  GLU336     -0.2718
      5  CB       -58.5510    8.4330   43.8240 C.3   336  GLU336      0.0402
      6  CG       -58.4810    7.4420   44.9910 C.3   336  GLU336      0.1161
      7  CD       -57.0610    7.1180   45.4220 C.2   336  GLU336      0.3649
      8  OE1      -56.7730    5.9210   45.6430 O.co2 336  GLU336     -0.2457
      9  OE2      -56.2410    8.0560   45.5520 O.co2 336  GLU336     -0.2457
     10  N        -56.8100    8.6050   40.6750 N.am  337  CYS337     -0.1956
     11  CA       -55.6320    9.2630   40.0860 C.3   337  CYS337      0.1843
     12  C        -54.2360    8.7710   40.4740 C.2   337  CYS337      0.2625
     13  O        -53.6790    9.1760   41.4990 O.2   337  CYS337     -0.2714
     14  CB       -55.7050   10.7710   40.2990 C.3   337  CYS337      0.0997
     15  SG       -56.8780   11.5560   39.2160 S.3   337  CYS337     -0.0797
     16  N        -53.6720    7.9210   39.6240 N.am  338  LYS338     -0.1964
     17  CA       -52.2880    7.4920   39.7510 C.3   338  LYS338      0.1713
     18  C        -51.3890    8.6520   39.3230 C.2   338  LYS338      0.2458
     19  O        -51.8760    9.6470   38.7820 O.2   338  LYS338     -0.2730
     20  CB       -52.0570    6.2430   38.8840 C.3   338  LYS338      0.0311
     21  CG       -52.8880    5.0270   39.3260 C.3   338  LYS338      0.0038
     22  CD       -53.0790    3.9850   38.2120 C.3   338  LYS338      0.0206
     23  CE       -51.9380    2.9580   38.1360 C.3   338  LYS338      0.1093
     24  NZ       -50.8010    3.3850   37.2530 N.3   338  LYS338     -0.1314
     25  N        -50.0770    8.5520   39.5870 N.am  339  PRO339     -0.2727
     26  CA       -49.1800    9.5940   39.0740 C.3   339  PRO339      0.1402
     27  C        -49.1780    9.6310   37.5500 C.2   339  PRO339      0.2269
     28  O        -49.4910    8.6250   36.9090 O.2   339  PRO339     -0.2865
     29  CB       -47.8050    9.1490   39.5780 C.3   339  PRO339      0.0296
     30  CG       -48.0890    8.3560   40.7890 C.3   339  PRO339      0.0237
     31  CD       -49.3900    7.6450   40.5240 C.3   339  PRO339      0.0939
     32  N        -42.9160   15.6650   44.1680 N.3   361  VAL361     -0.1231
     33  CA       -43.1100   14.6260   45.1970 C.3   361  VAL361      0.1692
     34  C        -44.0250   13.4530   44.7800 C.2   361  VAL361      0.2593
     35  O        -44.8670   12.9800   45.5420 O.2   361  VAL361     -0.2718
     36  CB       -43.4510   15.2140   46.6170 C.3   361  VAL361      0.0266
     37  CG1      -42.4220   16.2690   46.9980 C.3   361  VAL361      0.0020
     38  CG2      -44.8660   15.7990   46.6880 C.3   361  VAL361      0.0020
     39  N        -43.8430   12.9840   43.5550 N.am  362  GLY362     -0.1942
     40  CA       -44.5340   11.7900   43.1030 C.3   362  GLY362      0.2014
     41  C        -45.8110   11.9610   42.2980 C.2   362  GLY362      0.2638
     42  O        -46.4630   10.9640   41.9910 O.2   362  GLY362     -0.2714
     43  N        -46.1910   13.1920   41.9540 N.am  363  LYS363     -0.1977
     44  CA       -47.3550   13.3660   41.0840 C.3   363  LYS363      0.1596
     45  C        -46.9420   13.0800   39.6420 C.2   363  LYS363      0.2287
     46  O        -47.7580   12.7110   38.8000 O.2   363  LYS363     -0.2864
     47  CB       -47.9320   14.7720   41.1930 C.3   363  LYS363      0.0298
     48  CG       -47.8500   15.3740   42.5680 C.3   363  LYS363      0.0038
     49  CD       -49.2040   15.7220   43.1190 C.3   363  LYS363      0.0206
     50  CE       -49.8400   14.5090   43.7390 C.3   363  LYS363      0.1093
     51  NZ       -51.0550   14.8670   44.5150 N.3   363  LYS363     -0.1314
     52  N        -56.0590   17.8990   36.1860 N.3   597  LYS597     -0.1231
     53  CA       -55.8660   18.3020   37.5750 C.3   597  LYS597      0.1693
     54  C        -54.3850   18.4060   37.9720 C.2   597  LYS597      0.2591
     55  O        -53.9480   19.4150   38.5340 O.2   597  LYS597     -0.2718
     56  CB       -56.5760   17.3110   38.5010 C.3   597  LYS597      0.0285
     57  CG       -56.4780   17.6670   39.9830 C.3   597  LYS597      0.0035
     58  CD       -57.8190   18.1310   40.5280 C.3   597  LYS597      0.0206
     59  CE       -57.7710   18.3200   42.0310 C.3   597  LYS597      0.1093
     60  NZ       -59.0290   18.9400   42.5100 N.3   597  LYS597     -0.1314
     61  N        -53.6160   17.3630   37.6850 N.am  598  ILE598     -0.1980
     62  CA       -52.2220   17.3240   38.1280 C.3   598  ILE598      0.1595
     63  C        -51.3590   18.4080   37.4720 C.2   598  ILE598      0.2287
     64  O        -50.5870   19.0920   38.1490 O.2   598  ILE598     -0.2864
     65  CB       -51.6180   15.9070   37.9590 C.3   598  ILE598      0.0276
     66  CG1      -52.3060   14.9400   38.9320 C.3   598  ILE598      0.0022
     67  CG2      -50.1190   15.9120   38.2230 C.3   598  ILE598      0.0022
     68  CD1      -52.0440   13.4800   38.6380 C.3   598  ILE598      0.0001
     69  N        -52.0500   21.8820   38.8850 N.3   601  GLN601     -0.1245
     70  CA       -51.4420   22.1000   40.1930 C.3   601  GLN601      0.1566
     71  C        -49.9180   22.1890   40.0620 C.2   601  GLN601      0.2260
     72  O        -49.2650   22.9300   40.7960 O.2   601  GLN601     -0.2867
     73  CB       -51.8610   21.0190   41.1960 C.3   601  GLN601      0.0367
     74  CG       -50.7160   20.1660   41.7200 C.3   601  GLN601      0.0905
     75  CD       -50.5320   20.2700   43.2270 C.2   601  GLN601      0.2608
     76  OE1      -51.1810   21.0840   43.8960 O.2   601  GLN601     -0.2717
     77  NE2      -49.6410   19.4410   43.7700 N.am  601  GLN601     -0.0878
@<TRIPOS>BOND
     1    52    53    1
     2    28    27    2
     3    24    23    1
     4    63    62    1
     5    63    64    2
     6    27    26    1
     7    53    54    1
     8    53    56    1
     9    61    54   am
    10    61    62    1
    11    65    62    1
    12    65    67    1
    13    65    66    1
    14    54    55    2
    15    23    22    1
    16    22    21    1
    17    56    57    1
    18    68    66    1
    19    19    18    2
    20    46    45    2
    21    20    21    1
    22    20    17    1
    23    69    70    1
    24    26    29    1
    25    26    25    1
    26    15    14    1
    27    18    25   am
    28    18    17    1
    29    29    30    1
    30    25    31    1
    31    16    17    1
    32    16    12   am
    33    45    44    1
    34    57    58    1
    35    71    70    1
    36    71    72    2
    37    11    14    1
    38    11    12    1
    39    11    10    1
    40    70    73    1
    41    12    13    2
    42    31    30    1
    43    58    59    1
    44    10     3   am
    45    44    47    1
    46    44    43    1
    47    47    48    1
    48    73    74    1
    49    74    75    1
    50    43    41   am
    51     3     2    1
    52     3     4    2
    53    42    41    2
    54    59    60    1
    55    41    40    1
    56     2     1    1
    57     2     5    1
    58    48    49    1
    59    40    39    1
    60    49    50    1
    61    75    77   am
    62    75    76    2
    63    39    34   am
    64    50    51    1
    65     5     6    1
    66    32    33    1
    67    34    33    1
    68    34    35    2
    69     6     7    1
    70    33    36    1
    71     7     9   ar
    72     7     8   ar
    73    36    38    1
    74    36    37    1
