@<TRIPOS>MOLECULE
tmp/3v85A00.pdb
 119 109 0 0 0
SMALL
GASTEIGER

@<TRIPOS>ATOM
      1  N         33.7410   26.3540   13.9540 N.3     2  GLU2       -0.1245
      2  CA        34.1590   25.0820   13.3930 C.3     2  GLU2        0.1567
      3  C         33.3330   24.8070   12.1340 C.2     2  GLU2        0.2260
      4  O         32.1020   24.7790   12.1830 O.2     2  GLU2       -0.2867
      5  CB        33.9530   23.9770   14.4420 C.3     2  GLU2        0.0388
      6  CG        34.3240   22.5600   14.0140 C.3     2  GLU2        0.1160
      7  CD        34.2070   21.5620   15.1680 C.2     2  GLU2        0.3649
      8  OE1       33.1360   20.9360   15.3130 O.co2   2  GLU2       -0.2457
      9  OE2       35.1800   21.4120   15.9430 O.co2   2  GLU2       -0.2457
     10  N         32.8590   22.0720    8.9280 N.3     4  GLU4       -0.1245
     11  CA        33.1800   20.7100    8.5200 C.3     4  GLU4        0.1567
     12  C         32.3260   20.2260    7.3630 C.2     4  GLU4        0.2260
     13  O         31.1380   20.5410    7.2800 O.2     4  GLU4       -0.2867
     14  CB        33.0030   19.7400    9.7030 C.3     4  GLU4        0.0388
     15  CG        34.0960   19.8430   10.7280 C.3     4  GLU4        0.1160
     16  CD        34.0300   18.7420   11.7700 C.2     4  GLU4        0.3649
     17  OE1       32.9340   18.1900   12.0090 O.co2   4  GLU4       -0.2457
     18  OE2       35.0850   18.4320   12.3580 O.co2   4  GLU4       -0.2457
     19  N         30.4270   17.0880    6.2870 N.3     6  LYS6       -0.1245
     20  CA        29.9030   15.9710    7.0610 C.3     6  LYS6        0.1561
     21  C         29.0090   15.0720    6.2070 C.2     6  LYS6        0.2260
     22  O         27.9150   15.4690    5.8210 O.2     6  LYS6       -0.2867
     23  CB        29.1140   16.5210    8.2570 C.3     6  LYS6        0.0271
     24  CG        28.7710   15.5060    9.3170 C.3     6  LYS6        0.0035
     25  CD        28.0190   16.1950   10.4400 C.3     6  LYS6        0.0206
     26  CE        28.0240   15.3850   11.7160 C.3     6  LYS6        0.1093
     27  NZ        27.4190   16.1980   12.7980 N.3     6  LYS6       -0.1314
     28  N         31.8600    9.8810   24.2530 N.3    34  ASN34      -0.1240
     29  CA        31.2150   11.1780   24.3710 C.3    34  ASN34       0.1653
     30  C         30.1260   11.1660   25.4260 C.2    34  ASN34       0.2266
     31  O         29.2010   10.3720   25.3440 O.2    34  ASN34      -0.2867
     32  CB        30.6120   11.5740   23.0250 C.3    34  ASN34       0.1155
     33  CG        31.6580   11.7240   21.9420 C.2    34  ASN34       0.2627
     34  OD1       32.5550   12.5540   22.0490 O.2    34  ASN34      -0.2716
     35  ND2       31.5440   10.9220   20.8880 N.am   34  ASN34      -0.0877
     36  N         29.6800   18.9330   26.4470 N.3    52  ARG52      -0.1245
     37  CA        30.1830   17.5820   26.2590 C.3    52  ARG52       0.1563
     38  C         31.5060   17.3830   26.9860 C.2    52  ARG52       0.2260
     39  O         32.3570   18.2580   26.9840 O.2    52  ARG52      -0.2867
     40  CB        30.3970   17.3100   24.7650 C.3    52  ARG52       0.0307
     41  CG        30.9990   15.9530   24.4770 C.3    52  ARG52       0.0489
     42  CD        31.2020   15.7710   22.9820 C.3    52  ARG52       0.2205
     43  NE        32.3990   16.4620   22.5190 N.pl3  52  ARG52      -0.0865
     44  CZ        32.6350   16.7630   21.2430 C.cat  52  ARG52       0.5346
     45  NH1       31.7390   16.4530   20.3150 N.pl3  52  ARG52       0.1354
     46  NH2       33.7530   17.3900   20.8960 N.pl3  52  ARG52       0.1354
     47  N         34.4430   14.7500   26.5040 N.3    54  ARG54      -0.1245
     48  CA        34.9260   13.6730   25.6500 C.3    54  ARG54       0.1563
     49  C         36.1420   13.0040   26.2660 C.2    54  ARG54       0.2260
     50  O         37.1320   13.6570   26.5700 O.2    54  ARG54      -0.2867
     51  CB        35.2820   14.1990   24.2550 C.3    54  ARG54       0.0307
     52  CG        36.0090   13.1410   23.3940 C.3    54  ARG54       0.0489
     53  CD        36.2430   13.6440   21.9620 C.3    54  ARG54       0.2205
     54  NE        35.0000   13.6650   21.1910 N.pl3  54  ARG54      -0.0865
     55  CZ        34.8320   14.3300   20.0520 C.cat  54  ARG54       0.5346
     56  NH1       33.6730   14.2810   19.4130 N.pl3  54  ARG54       0.1354
     57  NH2       35.8210   15.0400   19.5480 N.pl3  54  ARG54       0.1354
     58  N         29.3510   23.6890   22.5830 N.3    70  LYS70      -0.1245
     59  CA        29.0270   23.9680   21.2000 C.3    70  LYS70       0.1561
     60  C         27.6550   24.6140   21.1580 C.2    70  LYS70       0.2260
     61  O         26.7370   24.1490   21.8300 O.2    70  LYS70      -0.2867
     62  CB        29.0210   22.6790   20.3750 C.3    70  LYS70       0.0271
     63  CG        30.3940   22.1320   20.0610 C.3    70  LYS70       0.0035
     64  CD        30.3070   21.0930   18.9590 C.3    70  LYS70       0.0206
     65  CE        31.6640   20.5140   18.6390 C.3    70  LYS70       0.1093
     66  NZ        31.5610   19.5350   17.5230 N.3    70  LYS70      -0.1314
     67  N         28.6650   21.5990    7.9210 N.3    80  SER80      -0.1217
     68  CA        28.2740   21.9180    9.2760 C.3    80  SER80       0.1889
     69  C         29.0620   23.1280    9.7350 C.2    80  SER80       0.2288
     70  O         30.2410   23.2430    9.4250 O.2    80  SER80      -0.2866
     71  CB        28.5690   20.7200   10.1850 C.3    80  SER80       0.2089
     72  OG        28.5340   21.0990   11.5510 O.3    80  SER80      -0.2183
     73  N         37.3050    6.7650   15.7450 N.3   137  ARG137     -0.1245
     74  CA        37.6490    7.7080   14.6890 C.3   137  ARG137      0.1563
     75  C         38.9720    7.3610   14.0170 C.2   137  ARG137      0.2260
     76  O         40.0190    7.3770   14.6620 O.2   137  ARG137     -0.2867
     77  CB        37.7040    9.1290   15.2650 C.3   137  ARG137      0.0307
     78  CG        38.2240   10.1780   14.2880 C.3   137  ARG137      0.0489
     79  CD        37.8410   11.5750   14.7350 C.3   137  ARG137      0.2205
     80  NE        36.3900   11.7460   14.7050 N.pl3 137  ARG137     -0.0865
     81  CZ        35.7550   12.7950   15.2190 C.cat 137  ARG137      0.5346
     82  NH1       36.4480   13.7650   15.8050 N.pl3 137  ARG137      0.1354
     83  NH2       34.4280   12.8740   15.1490 N.pl3 137  ARG137      0.1354
     84  N         33.9900   13.0640    8.1240 N.3   163  GLU163     -0.1245
     85  CA        34.0030   14.4870    8.4250 C.3   163  GLU163      0.1567
     86  C         35.3360   15.0520    7.9990 C.2   163  GLU163      0.2260
     87  O         36.3450   14.3500    8.0290 O.2   163  GLU163     -0.2867
     88  CB        33.8100   14.7330    9.9170 C.3   163  GLU163      0.0388
     89  CG        32.4500   14.3500   10.4330 C.3   163  GLU163      0.1160
     90  CD        32.3360   14.5760   11.9200 C.2   163  GLU163      0.3649
     91  OE1       33.2890   14.2120   12.6390 O.co2 163  GLU163     -0.2457
     92  OE2       31.3040   15.1190   12.3680 O.co2 163  GLU163     -0.2457
     93  N         23.6620   15.9870   13.9780 N.3   193  THR193     -0.1203
     94  CA        24.9030   15.7790   14.7250 C.3   193  THR193      0.1994
     95  C         24.7890   14.4400   15.4500 C.2   193  THR193      0.2618
     96  O         23.6960   13.8920   15.5780 O.2   193  THR193     -0.2717
     97  CB        25.0940   16.8490   15.8020 C.3   193  THR193      0.1784
     98  OG1       23.9910   16.7800   16.7110 O.3   193  THR193     -0.2211
     99  CG2       25.1560   18.2360   15.1900 C.3   193  THR193      0.0376
    100  N         25.9100   13.9190   15.9310 N.am  194  LYS194     -0.1965
    101  CA        25.9010   12.6500   16.6580 C.3   194  LYS194      0.1728
    102  C         25.0280   12.7470   17.9060 C.2   194  LYS194      0.2616
    103  O         24.2980   11.8120   18.2450 O.2   194  LYS194     -0.2715
    104  CB        27.3250   12.2450   17.0330 C.3   194  LYS194      0.0311
    105  CG        28.1760   11.8590   15.8240 C.3   194  LYS194      0.0038
    106  CD        29.5710   11.4460   16.2790 C.3   194  LYS194      0.0206
    107  CE        30.3690   10.8590   15.1310 C.3   194  LYS194      0.1093
    108  NZ        30.6350   11.8870   14.1010 N.3   194  LYS194     -0.1314
    109  N         25.1000   13.8940   18.5730 N.am  195  PHE195     -0.1974
    110  CA        24.3000   14.1400   19.7730 C.3   195  PHE195      0.1639
    111  C         22.8140   14.0930   19.4480 C.2   195  PHE195      0.2290
    112  O         22.0360   13.4850   20.1770 O.2   195  PHE195     -0.2864
    113  CB        24.6590   15.4940   20.3880 C.3   195  PHE195      0.0560
    114  CG        23.8810   15.8200   21.6390 C.ar  195  PHE195     -0.0200
    115  CD1       24.0050   15.0330   22.7690 C.ar  195  PHE195     -0.0042
    116  CD2       23.0400   16.9130   21.6800 C.ar  195  PHE195     -0.0042
    117  CE1       23.3020   15.3320   23.9220 C.ar  195  PHE195     -0.0003
    118  CE2       22.3310   17.2220   22.8290 C.ar  195  PHE195     -0.0003
    119  CZ        22.4620   16.4300   23.9520 C.ar  195  PHE195     -0.0000
@<TRIPOS>BOND
     1    22    21    2
     2    21    20    1
     3    19    20    1
     4    20    23    1
     5    13    12    2
     6    12    11    1
     7    67    68    1
     8    86    87    2
     9    86    85    1
    10    84    85    1
    11    23    24    1
    12    85    88    1
    13    11    10    1
    14    11    14    1
    15    68    69    1
    16    68    71    1
    17    24    25    1
    18    70    69    2
    19    14    15    1
    20    88    89    1
    21    71    72    1
    22    89    90    1
    23    25    26    1
    24    15    16    1
    25    26    27    1
    26    16    17   ar
    27    16    18   ar
    28    90    92   ar
    29    90    91   ar
    30     3     4    2
    31     3     2    1
    32     2     1    1
    33     2     5    1
    34    93    94    1
    35     6     5    1
    36     6     7    1
    37    75    76    2
    38    75    74    1
    39   108   107    1
    40    78    79    1
    41    78    77    1
    42    74    77    1
    43    74    73    1
    44    80    79    1
    45    80    81    2
    46    94    95    1
    47    94    97    1
    48   107   106    1
    49    83    81    1
    50     7     8   ar
    51     7     9   ar
    52    99    97    1
    53    81    82    1
    54    95    96    2
    55    95   100   am
    56    97    98    1
    57   105   106    1
    58   105   104    1
    59   100   101    1
    60   101   104    1
    61   101   102    1
    62    66    65    1
    63   102   103    2
    64   102   109   am
    65   109   110    1
    66    65    64    1
    67    64    63    1
    68    56    55    1
    69   111   110    1
    70   111   112    2
    71    57    55    1
    72   110   113    1
    73    55    54    2
    74    63    62    1
    75    45    44    1
    76    62    59    1
    77   113   114    1
    78    35    33   am
    79    46    44    1
    80    60    59    1
    81    60    61    2
    82    54    53    1
    83    59    58    1
    84    44    43    2
    85   114   116   ar
    86   114   115   ar
    87   116   118   ar
    88    33    34    2
    89    33    32    1
    90    53    52    1
    91    43    42    1
    92   115   117   ar
    93   118   119   ar
    94    42    41    1
    95    32    29    1
    96    52    51    1
    97   117   119   ar
    98    28    29    1
    99    51    48    1
   100    29    30    1
   101    41    40    1
   102    40    37    1
   103    31    30    2
   104    48    49    1
   105    48    47    1
   106    37    36    1
   107    37    38    1
   108    49    50    2
   109    39    38    2
