@<TRIPOS>MOLECULE
tmp/3v8cA02.pdb
 97 91 0 0 0
SMALL
GASTEIGER

@<TRIPOS>ATOM
      1  N         11.4580   10.3690   15.4650 N.3     8  PHE8       -0.1228
      2  CA        12.1380   10.5520   16.7380 C.3     8  PHE8        0.1721
      3  C         11.2350   10.8030   17.8940 C.2     8  PHE8        0.2437
      4  O         10.5340   11.7890   17.9180 O.2     8  PHE8       -0.2733
      5  CB        13.1630   11.6880   16.6670 C.3     8  PHE8        0.0547
      6  CG        14.3180   11.4050   15.7390 C.ar    8  PHE8       -0.0202
      7  CD1       15.2290   10.4010   16.0340 C.ar    8  PHE8       -0.0042
      8  CD2       14.4890   12.1580   14.5790 C.ar    8  PHE8       -0.0042
      9  CE1       16.2830   10.1580   15.1900 C.ar    8  PHE8       -0.0003
     10  CE2       15.5320   11.9160   13.7260 C.ar    8  PHE8       -0.0003
     11  CZ        16.4350   10.9140   14.0270 C.ar    8  PHE8       -0.0000
     12  N         11.2740    9.9170   18.8800 N.am    9  PRO9       -0.2718
     13  CA        10.5800   10.0550   20.1450 C.3     9  PRO9        0.1520
     14  C         10.7360   11.4410   20.7400 C.2     9  PRO9        0.2440
     15  O         11.6850   12.1330   20.4180 O.2     9  PRO9       -0.2731
     16  CB        11.3420    9.0890   21.0430 C.3     9  PRO9        0.0310
     17  CG        11.8520    8.0410   20.1450 C.3     9  PRO9        0.0237
     18  CD        11.9020    8.5940   18.7500 C.3     9  PRO9        0.0939
     19  N          9.8040   11.8380   21.6120 N.am   10  PRO10      -0.2716
     20  CA        10.1400   12.9300   22.4910 C.3    10  PRO10       0.1536
     21  C         11.1160   12.4460   23.5240 C.2    10  PRO10       0.2598
     22  O         11.3320   11.2550   23.6480 O.2    10  PRO10      -0.2715
     23  CB         8.7960   13.3440   23.1170 C.3    10  PRO10       0.0310
     24  CG         7.8880   12.2850   22.8550 C.3    10  PRO10       0.0237
     25  CD         8.3870   11.4680   21.6950 C.3    10  PRO10       0.0939
     26  N         11.7390   13.3680   24.2340 N.am   11  LYS11      -0.1978
     27  CA        12.6480   12.9960   25.2930 C.3    11  LYS11       0.1596
     28  C         11.7940   12.6310   26.4770 C.2    11  LYS11       0.2287
     29  O         10.8390   13.3360   26.7640 O.2    11  LYS11      -0.2864
     30  CB        13.5560   14.1670   25.6710 C.3    11  LYS11       0.0298
     31  CG        14.6860   14.4470   24.6770 C.3    11  LYS11       0.0038
     32  CD        15.8210   13.4180   24.7880 C.3    11  LYS11       0.0206
     33  CE        16.8290   13.5510   23.6440 C.3    11  LYS11       0.1093
     34  NZ        16.1610   13.7900   22.3500 N.3    11  LYS11      -0.1314
     35  N         10.6270   15.4950   28.7220 N.3    14  ASP14      -0.1239
     36  CA         9.6050   16.3230   28.0770 C.3    14  ASP14       0.1674
     37  C          8.3180   15.7720   28.5200 C.2    14  ASP14       0.2266
     38  O          7.3950   16.4700   28.9510 O.2    14  ASP14      -0.2867
     39  CB         9.5680   16.0630   26.5820 C.3    14  ASP14       0.1410
     40  CG        10.6370   16.7700   25.8360 C.2    14  ASP14       0.3668
     41  OD1       11.0270   17.9000   26.2270 O.co2  14  ASP14      -0.2456
     42  OD2       11.0690   16.1630   24.8380 O.co2  14  ASP14      -0.2456
     43  N          7.5900   20.7030   26.6470 N.3    21  THR21      -0.1218
     44  CA         6.8780   20.5320   25.3840 C.3    21  THR21       0.1862
     45  C          7.3500   19.3680   24.5030 C.2    21  THR21       0.2287
     46  O          8.2820   19.5100   23.6920 O.2    21  THR21      -0.2866
     47  CB         6.7180   21.8620   24.6480 C.3    21  THR21       0.1770
     48  OG1        5.7150   22.6100   25.3390 O.3    21  THR21      -0.2211
     49  CG2        6.2660   21.6650   23.2020 C.3    21  THR21       0.0375
     50  N          7.7130   16.6260   21.7460 N.3    23  GLU23      -0.1245
     51  CA         7.6330   16.7160   20.3010 C.3    23  GLU23       0.1567
     52  C          8.0380   15.4460   19.6160 C.2    23  GLU23       0.2260
     53  O          8.7950   14.6450   20.1450 O.2    23  GLU23      -0.2867
     54  CB         8.5230   17.8230   19.7960 C.3    23  GLU23       0.0388
     55  CG         7.8290   19.1290   19.7470 C.3    23  GLU23       0.1160
     56  CD         8.7370   20.2990   20.0700 C.2    23  GLU23       0.3649
     57  OE1        9.9890   20.1600   19.9370 O.co2  23  GLU23      -0.2457
     58  OE2        8.1750   21.3600   20.4450 O.co2  23  GLU23      -0.2457
     59  N          9.6700   14.1240   16.0290 N.3    25  THR25      -0.1218
     60  CA        10.4020   14.7120   14.9270 C.3    25  THR25       0.1862
     61  C         10.6220   13.7320   13.7880 C.2    25  THR25       0.2287
     62  O         11.3310   12.7280   13.9230 O.2    25  THR25      -0.2866
     63  CB        11.6910   15.3360   15.4230 C.3    25  THR25       0.1770
     64  OG1       11.3570   16.1760   16.5150 O.3    25  THR25      -0.2211
     65  CG2       12.2840   16.1960   14.3860 C.3    25  THR25       0.0375
     66  N         12.1470   13.1660   10.2640 N.3    27  VAL27      -0.1245
     67  CA        13.0980   13.7850    9.3330 C.3    27  VAL27       0.1561
     68  C         13.3130   13.0200    8.0300 C.2    27  VAL27       0.2260
     69  O         13.3780   11.7850    8.0200 O.2    27  VAL27      -0.2867
     70  CB        14.4440   14.2130   10.0030 C.3    27  VAL27       0.0252
     71  CG1       14.2930   14.3050   11.5180 C.3    27  VAL27       0.0019
     72  CG2       15.5980   13.2950    9.6250 C.3    27  VAL27       0.0019
     73  N         17.6610   18.3000    3.6660 N.3    66  ARG66      -0.1245
     74  CA        16.9740   17.6260    4.7380 C.3    66  ARG66       0.1563
     75  C         15.9060   18.5370    5.3330 C.2    66  ARG66       0.2260
     76  O         16.2170   19.6500    5.8020 O.2    66  ARG66      -0.2867
     77  CB        17.9470   17.0720    5.7850 C.3    66  ARG66       0.0307
     78  CG        18.6440   18.0890    6.6630 C.3    66  ARG66       0.0489
     79  CD        17.9490   18.3220    8.0050 C.3    66  ARG66       0.2205
     80  NE        18.2680   17.3010    9.0020 N.pl3  66  ARG66      -0.0865
     81  CZ        18.2040   17.5020   10.3180 C.cat  66  ARG66       0.5346
     82  NH1       18.5120   16.5170   11.1540 N.pl3  66  ARG66       0.1354
     83  NH2       17.8520   18.6950   10.8010 N.pl3  66  ARG66       0.1354
     84  N         12.6430   18.7500    8.1760 N.3    68  VAL68      -0.1245
     85  CA        12.2590   18.2400    9.4620 C.3    68  VAL68       0.1561
     86  C         10.8280   18.7120    9.7450 C.2    68  VAL68       0.2260
     87  O         10.4420   19.8250    9.3500 O.2    68  VAL68      -0.2867
     88  CB        13.2130   18.8080   10.5330 C.3    68  VAL68       0.0252
     89  CG1       12.8570   18.3280   11.9310 C.3    68  VAL68       0.0019
     90  CG2       14.6590   18.4790   10.1920 C.3    68  VAL68       0.0019
     91  N          7.8790   18.8090   12.9590 N.3    70  VAL70      -0.1245
     92  CA         7.8050   18.7400   14.4030 C.3    70  VAL70       0.1561
     93  C          6.3640   18.9140   14.8860 C.2    70  VAL70       0.2260
     94  O          5.8650   20.0380   15.0740 O.2    70  VAL70      -0.2867
     95  CB         8.7660   19.7510   15.0770 C.3    70  VAL70       0.0252
     96  CG1        8.5070   19.8680   16.5620 C.3    70  VAL70       0.0019
     97  CG2       10.2030   19.3400   14.8410 C.3    70  VAL70       0.0019
@<TRIPOS>BOND
     1    73    74    1
     2    74    75    1
     3    74    77    1
     4    75    76    2
     5    77    78    1
     6    78    79    1
     7    79    80    1
     8    69    68    2
     9    68    67    1
    10    84    85    1
    11    80    81    2
    12    67    70    1
    13    67    66    1
    14    87    86    2
    15    85    86    1
    16    85    88    1
    17    72    70    1
    18    70    71    1
    19    90    88    1
    20    81    83    1
    21    81    82    1
    22    88    89    1
    23    91    92    1
    24    10    11   ar
    25    10     8   ar
    26    61    62    2
    27    61    60    1
    28    11     9   ar
    29    65    63    1
    30    92    93    1
    31    92    95    1
    32     8     6   ar
    33    97    95    1
    34    93    94    2
    35    60    63    1
    36    60    59    1
    37    95    96    1
    38     9     7   ar
    39    63    64    1
    40     1     2    1
    41     6     7   ar
    42     6     5    1
    43     5     2    1
    44     2     3    1
    45     3     4    2
    46     3    12   am
    47    18    12    1
    48    18    17    1
    49    12    13    1
    50    52    53    2
    51    52    51    1
    52    55    54    1
    53    55    56    1
    54    54    51    1
    55    57    56   ar
    56    56    58   ar
    57    17    16    1
    58    13    14    1
    59    13    16    1
    60    51    50    1
    61    15    14    2
    62    14    19   am
    63    19    25    1
    64    19    20    1
    65    25    24    1
    66    34    33    1
    67    20    23    1
    68    20    21    1
    69    24    23    1
    70    49    47    1
    71    21    22    2
    72    21    26   am
    73    33    32    1
    74    46    45    2
    75    26    27    1
    76    45    44    1
    77    47    48    1
    78    47    44    1
    79    31    32    1
    80    31    30    1
    81    42    40   ar
    82    27    30    1
    83    27    28    1
    84    44    43    1
    85    40    41   ar
    86    40    39    1
    87    28    29    2
    88    39    36    1
    89    36    37    1
    90    36    35    1
    91    37    38    2
