@<TRIPOS>MOLECULE
tmp/3v8dA01.pdb
 208 199 0 0 0
SMALL
GASTEIGER

@<TRIPOS>ATOM
      1  N         12.2700    0.0950  -41.9720 N.3    78  HIS78      -0.1226
      2  CA        11.6700    1.4210  -42.2250 C.3    78  HIS78       0.1752
      3  C         10.2820    1.3370  -42.8100 C.2    78  HIS78       0.2596
      4  O          9.3930    2.0790  -42.3970 O.2    78  HIS78      -0.2718
      5  CB        12.5630    2.2350  -43.1210 C.3    78  HIS78       0.0759
      6  CG        13.7490    2.8020  -42.4180 C.ar   78  HIS78       0.0818
      7  ND1       14.5970    3.6710  -43.0070 N.ar   78  HIS78      -0.2268
      8  CD2       14.2100    2.6300  -41.1020 C.ar   78  HIS78       0.1154
      9  CE1       15.5560    4.0180  -42.1280 C.ar   78  HIS78       0.1986
     10  NE2       15.3150    3.3830  -40.9640 N.ar   78  HIS78      -0.2212
     11  N         10.0900    0.4350  -43.7770 N.am   79  PHE79      -0.1976
     12  CA         8.7560    0.1880  -44.3670 C.3    79  PHE79       0.1639
     13  C          7.7430   -0.1940  -43.2890 C.2    79  PHE79       0.2290
     14  O          6.6420    0.3550  -43.2410 O.2    79  PHE79      -0.2864
     15  CB         8.8070   -0.9490  -45.4150 C.3    79  PHE79       0.0560
     16  CG         9.4700   -0.5740  -46.7450 C.ar   79  PHE79      -0.0200
     17  CD1        9.9350   -1.5760  -47.5880 C.ar   79  PHE79      -0.0042
     18  CD2        9.6230    0.7340  -47.1510 C.ar   79  PHE79      -0.0042
     19  CE1       10.5280   -1.2700  -48.8060 C.ar   79  PHE79      -0.0003
     20  CE2       10.2160    1.0320  -48.3760 C.ar   79  PHE79      -0.0003
     21  CZ        10.6600    0.0310  -49.1910 C.ar   79  PHE79      -0.0000
     22  N          7.9590    0.3070  -40.0240 N.3    81  LEU81      -0.1231
     23  CA         7.7830    1.4450  -39.1130 C.3    81  LEU81       0.1693
     24  C          6.7400    2.4360  -39.6490 C.2    81  LEU81       0.2592
     25  O          5.8680    2.8580  -38.9260 O.2    81  LEU81      -0.2718
     26  CB         9.1200    2.1440  -38.9100 C.3    81  LEU81       0.0284
     27  CG         9.2150    3.3000  -37.9100 C.3    81  LEU81       0.0019
     28  CD1       10.6690    3.4680  -37.4440 C.3    81  LEU81       0.0001
     29  CD2        8.6720    4.5950  -38.5090 C.3    81  LEU81       0.0001
     30  N          6.8480    2.7920  -40.9260 N.am   82  SER82      -0.1952
     31  CA         5.9120    3.7430  -41.5650 C.3    82  SER82       0.1924
     32  C          4.4670    3.2320  -41.5090 C.2    82  SER82       0.2314
     33  O          3.5660    3.9340  -41.0480 O.2    82  SER82      -0.2863
     34  CB         6.3150    3.9850  -43.0200 C.3    82  SER82       0.2116
     35  OG         5.5300    4.9800  -43.6150 O.3    82  SER82      -0.2180
     36  N          1.9770    5.4180  -39.1020 N.3    86  PHE86      -0.1241
     37  CA         1.0870    6.3000  -39.8790 C.3    86  PHE86       0.1605
     38  C         -0.2240    5.6380  -40.2550 C.2    86  PHE86       0.2264
     39  O         -1.2070    6.3180  -40.4590 O.2    86  PHE86      -0.2867
     40  CB         1.8140    6.8060  -41.1330 C.3    86  PHE86       0.0534
     41  CG         3.0100    7.6670  -40.8270 C.ar   86  PHE86      -0.0203
     42  CD1        4.2840    7.1200  -40.7680 C.ar   86  PHE86      -0.0042
     43  CD2        2.8600    9.0140  -40.5830 C.ar   86  PHE86      -0.0042
     44  CE1        5.3890    7.9100  -40.4880 C.ar   86  PHE86      -0.0003
     45  CE2        3.9550    9.8080  -40.3030 C.ar   86  PHE86      -0.0003
     46  CZ         5.2220    9.2580  -40.2500 C.ar   86  PHE86      -0.0000
     47  N         -0.9040    2.5770  -42.7660 N.3    88  HIS88      -0.1241
     48  CA        -1.1670    2.2380  -44.1700 C.3    88  HIS88       0.1621
     49  C         -0.7010    0.8660  -44.4070 C.2    88  HIS88       0.2264
     50  O          0.1050    0.3390  -43.6330 O.2    88  HIS88      -0.2867
     51  CB        -0.5010    3.2270  -45.1420 C.3    88  HIS88       0.0745
     52  CG         1.0170    3.3660  -44.9670 C.ar   88  HIS88       0.0817
     53  ND1        1.8950    2.4060  -45.3670 N.ar   88  HIS88      -0.2268
     54  CD2        1.7880    4.4070  -44.4520 C.ar   88  HIS88       0.1154
     55  CE1        3.1450    2.8180  -45.0980 C.ar   88  HIS88       0.1986
     56  NE2        3.0780    4.0360  -44.5410 N.ar   88  HIS88      -0.2212
     57  N          4.0670   -0.8100  -48.0340 N.3    91  ILE91      -0.1245
     58  CA         4.6290   -0.1010  -49.1960 C.3    91  ILE91       0.1561
     59  C          5.8450   -0.8550  -49.7660 C.2    91  ILE91       0.2260
     60  O          6.4750   -0.4090  -50.7230 O.2    91  ILE91      -0.2867
     61  CB         5.0250    1.3750  -48.8450 C.3    91  ILE91       0.0252
     62  CG1        6.0780    1.4170  -47.7100 C.3    91  ILE91       0.0019
     63  CG2        3.7890    2.1740  -48.4820 C.3    91  ILE91       0.0019
     64  CD1        6.4280    2.8090  -47.2380 C.3    91  ILE91       0.0001
     65  N         10.4100    4.2030  -53.7590 N.3   102  ILE102     -0.1245
     66  CA        10.2280    5.5140  -53.0870 C.3   102  ILE102      0.1561
     67  C         11.5430    6.2770  -52.9390 C.2   102  ILE102      0.2260
     68  O         11.5630    7.4730  -53.0740 O.2   102  ILE102     -0.2867
     69  CB         9.5020    5.3970  -51.7170 C.3   102  ILE102      0.0252
     70  CG1       10.2820    4.5240  -50.7310 C.3   102  ILE102      0.0019
     71  CG2        8.0860    4.8660  -51.9090 C.3   102  ILE102      0.0019
     72  CD1        9.6600    4.4780  -49.3630 C.3   102  ILE102      0.0001
     73  N         12.1850   10.2050  -53.9890 N.3   106  PHE106     -0.1241
     74  CA        12.7560   11.2060  -53.1100 C.3   106  PHE106      0.1605
     75  C         13.9910   11.8230  -53.6990 C.2   106  PHE106      0.2264
     76  O         14.1460   13.0610  -53.6970 O.2   106  PHE106     -0.2867
     77  CB        13.0950   10.5890  -51.7380 C.3   106  PHE106      0.0534
     78  CG        11.8860   10.1380  -50.9590 C.ar  106  PHE106     -0.0203
     79  CD1       11.8790    8.9160  -50.3180 C.ar  106  PHE106     -0.0042
     80  CD2       10.7540   10.9410  -50.8690 C.ar  106  PHE106     -0.0042
     81  CE1       10.7680    8.5010  -49.5910 C.ar  106  PHE106     -0.0003
     82  CE2        9.6460   10.5280  -50.1450 C.ar  106  PHE106     -0.0003
     83  CZ         9.6520    9.3070  -49.5140 C.ar  106  PHE106     -0.0000
     84  N          4.8610    9.8120  -31.2320 N.3   193  PHE193     -0.1241
     85  CA         5.6360    9.0310  -32.2270 C.3   193  PHE193      0.1605
     86  C          6.6170    8.0020  -31.6200 C.2   193  PHE193      0.2264
     87  O          6.6870    6.8530  -32.1050 O.2   193  PHE193     -0.2867
     88  CB         6.3750    9.9490  -33.1930 C.3   193  PHE193      0.0534
     89  CG         6.6230    9.3290  -34.5550 C.ar  193  PHE193     -0.0203
     90  CD1        5.6400    9.3870  -35.5520 C.ar  193  PHE193     -0.0042
     91  CD2        7.8190    8.7140  -34.8430 C.ar  193  PHE193     -0.0042
     92  CE1        5.8610    8.8380  -36.7960 C.ar  193  PHE193     -0.0003
     93  CE2        8.0480    8.1540  -36.1030 C.ar  193  PHE193     -0.0003
     94  CZ         7.0700    8.2200  -37.0770 C.ar  193  PHE193     -0.0000
     95  N          4.3410   12.1820  -56.0980 N.3   237  ARG237     -0.1245
     96  CA         3.7990   11.1530  -55.1950 C.3   237  ARG237      0.1563
     97  C          2.3050   10.9550  -55.4130 C.2   237  ARG237      0.2260
     98  O          1.8270    9.8340  -55.4130 O.2   237  ARG237     -0.2867
     99  CB         4.0800   11.5200  -53.7540 C.3   237  ARG237      0.0307
    100  CG         5.5450   11.3650  -53.3680 C.3   237  ARG237      0.0489
    101  CD         5.8540   10.1000  -52.5650 C.3   237  ARG237      0.2205
    102  NE         5.2900    8.8710  -53.1180 N.pl3 237  ARG237     -0.0865
    103  CZ         4.1120    8.3420  -52.7750 C.cat 237  ARG237      0.5346
    104  NH1        3.7030    7.2090  -53.3430 N.pl3 237  ARG237      0.1354
    105  NH2        3.3320    8.9410  -51.8750 N.pl3 237  ARG237      0.1354
    106  N         -3.5960    1.7320  -53.3180 N.3   247  PHE247     -0.1241
    107  CA        -3.9840    2.3320  -52.0430 C.3   247  PHE247      0.1605
    108  C         -5.3320    2.9940  -52.1640 C.2   247  PHE247      0.2264
    109  O         -5.6510    3.5430  -53.1960 O.2   247  PHE247     -0.2867
    110  CB        -2.9510    3.3880  -51.5920 C.3   247  PHE247      0.0534
    111  CG        -1.6070    2.8170  -51.2280 C.ar  247  PHE247     -0.0203
    112  CD1       -0.4400    3.3630  -51.7540 C.ar  247  PHE247     -0.0042
    113  CD2       -1.5010    1.7280  -50.3570 C.ar  247  PHE247     -0.0042
    114  CE1        0.8150    2.8310  -51.4250 C.ar  247  PHE247     -0.0003
    115  CE2       -0.2560    1.2040  -50.0190 C.ar  247  PHE247     -0.0003
    116  CZ         0.9030    1.7570  -50.5560 C.ar  247  PHE247     -0.0000
    117  N          0.2750    8.4950  -47.0060 N.3   255  THR255     -0.1218
    118  CA         1.5920    8.5800  -47.6550 C.3   255  THR255      0.1862
    119  C          2.1230   10.0310  -47.7120 C.2   255  THR255      0.2287
    120  O          3.3290   10.2610  -47.6370 O.2   255  THR255     -0.2866
    121  CB         1.6100    7.9260  -49.0770 C.3   255  THR255      0.1770
    122  OG1        0.7770    8.6760  -49.9970 O.3   255  THR255     -0.2211
    123  CG2        1.1470    6.5200  -49.0150 C.3   255  THR255      0.0375
    124  N          3.2250   10.9100  -44.1300 N.3   258  VAL258     -0.1231
    125  CA         4.5350   10.3790  -43.9450 C.3   258  VAL258      0.1692
    126  C          5.5830   11.4210  -44.3730 C.2   258  VAL258      0.2591
    127  O          6.5350   11.7060  -43.6310 O.2   258  VAL258     -0.2718
    128  CB         4.7350    9.0680  -44.7340 C.3   258  VAL258      0.0266
    129  CG1        6.1630    8.6310  -44.6430 C.3   258  VAL258      0.0020
    130  CG2        3.8120    7.9830  -44.2100 C.3   258  VAL258      0.0020
    131  N          5.3810   12.0180  -45.5600 N.am  259  VAL259     -0.1980
    132  CA         6.3020   12.9880  -46.0980 C.3   259  VAL259      0.1595
    133  C          6.2570   14.3040  -45.2900 C.2   259  VAL259      0.2287
    134  O          7.2710   14.9380  -45.0970 O.2   259  VAL259     -0.2864
    135  CB         6.0170   13.2590  -47.6010 C.3   259  VAL259      0.0276
    136  CG1        6.8070   14.4520  -48.0800 C.3   259  VAL259      0.0022
    137  CG2        6.3100   11.9920  -48.4380 C.3   259  VAL259      0.0022
    138  N          5.7340   14.4110  -42.0660 N.3   261  TRP261     -0.1227
    139  CA         6.5340   14.0670  -40.8850 C.3   261  TRP261      0.1737
    140  C          8.0250   14.1190  -41.2180 C.2   261  TRP261      0.2595
    141  O          8.7970   14.7640  -40.5310 O.2   261  TRP261     -0.2718
    142  CB         6.1320   12.6930  -40.3410 C.3   261  TRP261      0.0564
    143  CG         6.7010   12.4390  -38.9840 C.ar  261  TRP261      0.0003
    144  CD1        6.1020   12.6870  -37.7700 C.ar  261  TRP261      0.0946
    145  CD2        8.0190   11.9170  -38.6760 C.ar  261  TRP261      0.0152
    146  NE1        6.9560   12.3380  -36.7320 N.ar  261  TRP261     -0.2442
    147  CE2        8.1240   11.8710  -37.2330 C.ar  261  TRP261      0.0810
    148  CE3        9.1010   11.4810  -39.4460 C.ar  261  TRP261      0.0012
    149  CZ2        9.2750   11.4190  -36.5870 C.ar  261  TRP261      0.0191
    150  CZ3       10.2480   11.0250  -38.7900 C.ar  261  TRP261      0.0001
    151  CH2       10.3290   11.0050  -37.3780 C.ar  261  TRP261      0.0015
    152  N          8.4140   13.4390  -42.3040 N.am  262  ALA262     -0.1980
    153  CA         9.8070   13.3840  -42.7480 C.3   262  ALA262      0.1597
    154  C         10.4200   14.7790  -42.9050 C.2   262  ALA262      0.2287
    155  O         11.5480   15.0070  -42.5040 O.2   262  ALA262     -0.2864
    156  CB         9.9040   12.6230  -44.0500 C.3   262  ALA262      0.0319
    157  N         12.5650   16.5130  -37.9270 N.3   266  ASN266     -0.1240
    158  CA        13.9650   16.7530  -37.6420 C.3   266  ASN266      0.1653
    159  C         14.3570   18.1730  -37.8780 C.2   266  ASN266      0.2266
    160  O         15.1720   18.7170  -37.1550 O.2   266  ASN266     -0.2867
    161  CB        14.8370   15.7850  -38.4820 C.3   266  ASN266      0.1155
    162  CG        14.7580   14.3550  -37.9760 C.2   266  ASN266      0.2627
    163  OD1       14.9080   14.1150  -36.7640 O.2   266  ASN266     -0.2716
    164  ND2       14.5300   13.3890  -38.8870 N.am  266  ASN266     -0.0877
    165  N         20.1210    9.4880  -33.8500 N.3   337  SER337     -0.1202
    166  CA        19.5780    8.6010  -34.8580 C.3   337  SER337      0.2020
    167  C         19.9420    7.1490  -34.6020 C.2   337  SER337      0.2618
    168  O         20.9850    6.8500  -34.0200 O.2   337  SER337     -0.2717
    169  CB        20.0760    9.0020  -36.2420 C.3   337  SER337      0.2103
    170  OG        19.2900   10.0160  -36.7590 O.3   337  SER337     -0.2182
    171  N         19.0530    6.2520  -35.0370 N.am  338  LEU338     -0.1979
    172  CA        19.3550    4.8360  -35.1750 C.3   338  LEU338      0.1596
    173  C         19.5240    4.5620  -36.6620 C.2   338  LEU338      0.2287
    174  O         18.6050    4.7960  -37.4400 O.2   338  LEU338     -0.2864
    175  CB        18.2280    3.9700  -34.6230 C.3   338  LEU338      0.0297
    176  CG        18.3780    3.4020  -33.2140 C.3   338  LEU338      0.0022
    177  CD1       17.0610    2.7470  -32.7770 C.3   338  LEU338      0.0001
    178  CD2       19.5210    2.3950  -33.1310 C.3   338  LEU338      0.0001
    179  N         20.0010    1.6450  -39.3030 N.3   340  ILE340     -0.1245
    180  CA        19.5930    0.2390  -39.2100 C.3   340  ILE340      0.1561
    181  C         19.6330   -0.4760  -40.5520 C.2   340  ILE340      0.2260
    182  O         19.3870    0.1080  -41.5930 O.2   340  ILE340     -0.2867
    183  CB        18.1460    0.1430  -38.6020 C.3   340  ILE340      0.0252
    184  CG1       18.2100    0.2680  -37.0770 C.3   340  ILE340      0.0019
    185  CG2       17.4170   -1.1530  -39.0150 C.3   340  ILE340      0.0019
    186  CD1       16.8600    0.3930  -36.4180 C.3   340  ILE340      0.0001
    187  N         19.4950   10.5250  -45.4630 N.3   421  CYS421     -0.1235
    188  CA        18.3560   11.3690  -45.7040 C.3   421  CYS421      0.1677
    189  C         18.4150   11.9800  -47.1130 C.2   421  CYS421      0.2270
    190  O         19.3260   12.7250  -47.3940 O.2   421  CYS421     -0.2867
    191  CB        18.3400   12.4950  -44.6930 C.3   421  CYS421      0.0956
    192  SG        17.0150   13.6200  -44.9550 S.3   421  CYS421     -0.0801
    193  N         16.6360    7.7260  -31.0070 N.3   459  GLY459     -0.1210
    194  CA        16.4820    6.8790  -32.2150 C.3   459  GLY459      0.1956
    195  C         15.7460    7.5530  -33.3720 C.2   459  GLY459      0.2612
    196  O         15.8320    7.0880  -34.5060 O.2   459  GLY459     -0.2717
    197  N         15.0360    8.6560  -33.0880 N.am  460  LEU460     -0.1965
    198  CA        14.1180    9.2910  -34.0830 C.3   460  LEU460      0.1728
    199  C         14.7440   10.4490  -34.8290 C.2   460  LEU460      0.2616
    200  O         14.1140   11.0210  -35.7280 O.2   460  LEU460     -0.2715
    201  CB        12.8280    9.7900  -33.3960 C.3   460  LEU460      0.0311
    202  CG        11.9210    8.7690  -32.6770 C.3   460  LEU460      0.0022
    203  CD1       10.6930    9.4660  -32.1280 C.3   460  LEU460      0.0001
    204  CD2       11.5210    7.6350  -33.6080 C.3   460  LEU460      0.0001
    205  N         15.9700   10.8200  -34.4480 N.am  461  GLY461     -0.1955
    206  CA        16.7030   11.8800  -35.1270 C.3   461  GLY461      0.1869
    207  C         17.1900   12.9230  -34.1840 C.2   461  GLY461      0.2309
    208  O         17.8040   12.6070  -33.1770 O.2   461  GLY461     -0.2863
@<TRIPOS>BOND
     1    95    96    1
     2    97    98    2
     3    97    96    1
     4    96    99    1
     5    73    74    1
     6    65    66    1
     7    99   100    1
     8    75    76    2
     9    75    74    1
    10   100   101    1
    11   104   103    1
    12   106   107    1
    13   109   108    2
    14   102   103    2
    15   102   101    1
    16    74    77    1
    17    66    67    1
    18    66    69    1
    19    68    67    2
    20   103   105    1
    21   108   107    1
    22   107   110    1
    23    71    69    1
    24   112   114   ar
    25   112   111   ar
    26    77    78    1
    27    69    70    1
    28   110   111    1
    29   114   116   ar
    30   111   113   ar
    31    78    80   ar
    32    78    79   ar
    33    80    82   ar
    34    70    72    1
    35    60    59    2
    36   116   115   ar
    37   113   115   ar
    38    79    81   ar
    39    82    83   ar
    40   122   121    1
    41    59    58    1
    42    81    83   ar
    43    58    61    1
    44    58    57    1
    45    21    19   ar
    46    21    20   ar
    47   121   123    1
    48   121   118    1
    49    61    63    1
    50    61    62    1
    51    19    17   ar
    52   137   135    1
    53    20    18   ar
    54   136   135    1
    55   119   118    1
    56   119   120    2
    57    62    64    1
    58   118   117    1
    59   135   132    1
    60    17    16   ar
    61   190   189    2
    62    18    16   ar
    63   189   188    1
    64    16    15    1
    65   132   131    1
    66   132   133    1
    67   188   187    1
    68   188   191    1
    69   131   126   am
    70    15    12    1
    71    53    55   ar
    72    53    52   ar
    73   133   134    2
    74    51    52    1
    75    51    48    1
    76    55    56   ar
    77    52    54   ar
    78   192   191    1
    79   128   129    1
    80   128   130    1
    81   128   125    1
    82    56    54   ar
    83    49    48    1
    84    49    50    2
    85   126   125    1
    86   126   127    2
    87    12    11    1
    88    12    13    1
    89    48    47    1
    90   124   125    1
    91   156   153    1
    92    11     3   am
    93    35    34    1
    94    13    14    2
    95     5     6    1
    96     5     2    1
    97    34    31    1
    98     7     6   ar
    99     7     9   ar
   100   154   153    1
   101   154   155    2
   102     3     4    2
   103     3     2    1
   104   153   152    1
   105     6     8   ar
   106   152   140   am
   107     2     1    1
   108     9    10   ar
   109   138   139    1
   110   182   181    2
   111    31    32    1
   112    31    30    1
   113    32    33    2
   114   140   139    1
   115   140   141    2
   116    40    41    1
   117    40    37    1
   118     8    10   ar
   119    30    24   am
   120   139   142    1
   121    41    42   ar
   122    41    43   ar
   123    42    44   ar
   124    43    45   ar
   125   181   180    1
   126    44    46   ar
   127    39    38    2
   128   142   143    1
   129    45    46   ar
   130    38    37    1
   131    22    23    1
   132    37    36    1
   133    24    23    1
   134    24    25    2
   135   148   150   ar
   136   148   145   ar
   137   179   180    1
   138   180   183    1
   139    23    26    1
   140   185   183    1
   141   143   145   ar
   142   143   144   ar
   143    26    27    1
   144   164   162   am
   145   150   151   ar
   146   145   147   ar
   147   183   184    1
   148    29    27    1
   149   161   162    1
   150   161   158    1
   151   162   163    2
   152   157   158    1
   153    27    28    1
   154   159   158    1
   155   159   160    2
   156   144   146   ar
   157   174   173    2
   158   151   149   ar
   159   147   146   ar
   160   147   149   ar
   161   184   186    1
   162    94    92   ar
   163    94    93   ar
   164    92    90   ar
   165   170   169    1
   166   173   172    1
   167   169   166    1
   168    93    91   ar
   169   200   199    2
   170    90    89   ar
   171   172   171    1
   172   172   175    1
   173   206   205    1
   174   206   207    1
   175   171   167   am
   176   166   167    1
   177   166   165    1
   178    91    89   ar
   179   199   205   am
   180   199   198    1
   181   175   176    1
   182   167   168    2
   183    89    88    1
   184   196   195    2
   185   207   208    2
   186   198   201    1
   187   198   197    1
   188   204   202    1
   189   201   202    1
   190   195   197   am
   191   195   194    1
   192   176   178    1
   193   176   177    1
   194    88    85    1
   195   202   203    1
   196    85    86    1
   197    85    84    1
   198   194   193    1
   199    87    86    2
