@<TRIPOS>MOLECULE
tmp/3v8iA00.pdb
 108 102 0 0 0
SMALL
GASTEIGER

@<TRIPOS>ATOM
      1  N         17.0120  -15.9430  -20.6040 N.3    23  PHE23      -0.1241
      2  CA        16.2610  -16.1700  -21.8430 C.3    23  PHE23       0.1605
      3  C         15.6330  -17.5620  -21.9840 C.2    23  PHE23       0.2264
      4  O         14.4140  -17.6920  -22.1380 O.2    23  PHE23      -0.2867
      5  CB        17.1350  -15.8540  -23.0650 C.3    23  PHE23       0.0534
      6  CG        16.4310  -16.0670  -24.3650 C.ar   23  PHE23      -0.0203
      7  CD1       15.4660  -15.1740  -24.8000 C.ar   23  PHE23      -0.0042
      8  CD2       16.7120  -17.1750  -25.1410 C.ar   23  PHE23      -0.0042
      9  CE1       14.8030  -15.3810  -25.9950 C.ar   23  PHE23      -0.0003
     10  CE2       16.0520  -17.3890  -26.3360 C.ar   23  PHE23      -0.0003
     11  CZ        15.0960  -16.4980  -26.7600 C.ar   23  PHE23      -0.0000
     12  N         11.2360  -18.8130  -22.2570 N.3    27  GLU27      -0.1245
     13  CA        10.6300  -18.9480  -23.5800 C.3    27  GLU27       0.1567
     14  C          9.4560  -19.9300  -23.5560 C.2    27  GLU27       0.2260
     15  O          9.5730  -21.0350  -23.0350 O.2    27  GLU27      -0.2867
     16  CB        11.6670  -19.3280  -24.6340 C.3    27  GLU27       0.0388
     17  CG        12.4950  -18.1320  -25.0960 C.3    27  GLU27       0.1160
     18  CD        11.6270  -16.9850  -25.6110 C.2    27  GLU27       0.3649
     19  OE1       11.2240  -17.0490  -26.7940 O.co2  27  GLU27      -0.2457
     20  OE2       11.3470  -16.0270  -24.8440 O.co2  27  GLU27      -0.2457
     21  N         16.2810  -11.8730  -28.8460 N.3   126  LEU126     -0.1231
     22  CA        16.3460  -10.6170  -28.1270 C.3   126  LEU126      0.1693
     23  C         16.1140  -10.9290  -26.6530 C.2   126  LEU126      0.2593
     24  O         15.0860  -11.5130  -26.2880 O.2   126  LEU126     -0.2718
     25  CB        15.2750   -9.6440  -28.6320 C.3   126  LEU126      0.0284
     26  CG        15.0450   -8.4110  -27.7570 C.3   126  LEU126      0.0019
     27  CD1       16.2400   -7.4530  -27.8640 C.3   126  LEU126      0.0001
     28  CD2       13.7230   -7.6960  -28.0770 C.3   126  LEU126      0.0001
     29  N         17.0730  -10.5760  -25.8060 N.am  127  SER127     -0.1938
     30  CA        16.9110  -10.8410  -24.3810 C.3   127  SER127      0.2055
     31  C         17.5300   -9.7250  -23.5570 C.2   127  SER127      0.2642
     32  O         18.5990   -9.2230  -23.8920 O.2   127  SER127     -0.2714
     33  CB        17.5430  -12.1780  -24.0210 C.3   127  SER127      0.2130
     34  OG        17.3540  -12.4950  -22.6570 O.3   127  SER127     -0.2179
     35  N         16.8400   -9.3260  -22.4890 N.am  128  VAL128     -0.1977
     36  CA        17.3510   -8.2980  -21.5920 C.3   128  VAL128      0.1596
     37  C         17.2660   -8.7380  -20.1240 C.2   128  VAL128      0.2287
     38  O         16.2390   -9.2360  -19.6560 O.2   128  VAL128     -0.2864
     39  CB        16.6080   -6.9470  -21.7860 C.3   128  VAL128      0.0276
     40  CG1       17.1140   -5.8660  -20.7870 C.3   128  VAL128      0.0022
     41  CG2       16.7230   -6.4680  -23.2090 C.3   128  VAL128      0.0022
     42  N         15.6530   -3.8220  -17.5060 N.3   133  ARG133     -0.1231
     43  CA        14.5040   -3.6240  -18.3840 C.3   133  ARG133      0.1694
     44  C         13.8440   -2.2750  -18.1110 C.2   133  ARG133      0.2592
     45  O         13.9530   -1.7150  -17.0090 O.2   133  ARG133     -0.2718
     46  CB        13.4860   -4.7580  -18.2260 C.3   133  ARG133      0.0321
     47  CG        13.9610   -6.0870  -18.7910 C.3   133  ARG133      0.0489
     48  CD        12.9910   -7.2120  -18.4540 C.3   133  ARG133      0.2205
     49  NE        13.5300   -8.5050  -18.8500 N.pl3 133  ARG133     -0.0865
     50  CZ        12.9520   -9.6760  -18.6130 C.cat 133  ARG133      0.5346
     51  NH1       11.7900   -9.7300  -17.9820 N.pl3 133  ARG133      0.1354
     52  NH2       13.5390  -10.7950  -19.0210 N.pl3 133  ARG133      0.1354
     53  N         13.1700   -1.7440  -19.1260 N.am  134  GLY134     -0.1957
     54  CA        12.4100   -0.5180  -18.9600 C.3   134  GLY134      0.1869
     55  C         13.2230    0.7200  -19.2270 C.2   134  GLY134      0.2309
     56  O         12.7570    1.8400  -18.9970 O.2   134  GLY134     -0.2863
     57  N         14.8960    1.1620  -22.2880 N.3   136  GLY136     -0.1210
     58  CA        15.0090    1.3290  -23.7280 C.3   136  GLY136      0.1956
     59  C         16.0680    0.5010  -24.4380 C.2   136  GLY136      0.2612
     60  O         16.4120    0.7770  -25.5870 O.2   136  GLY136     -0.2717
     61  N         16.5760   -0.5280  -23.7790 N.am  137  ILE137     -0.1965
     62  CA        17.6550   -1.3140  -24.3640 C.3   137  ILE137      0.1727
     63  C         17.2370   -1.9980  -25.6760 C.2   137  ILE137      0.2616
     64  O         17.9860   -1.9960  -26.6440 O.2   137  ILE137     -0.2715
     65  CB        18.2140   -2.3390  -23.3630 C.3   137  ILE137      0.0290
     66  CG1       18.9700   -1.6220  -22.2410 C.3   137  ILE137      0.0022
     67  CG2       19.1260   -3.3180  -24.0540 C.3   137  ILE137      0.0023
     68  CD1       19.3940   -2.5280  -21.1170 C.3   137  ILE137      0.0001
     69  N         16.0500   -2.5830  -25.7210 N.am  138  ALA138     -0.1963
     70  CA        15.6250   -3.2510  -26.9440 C.3   138  ALA138      0.1728
     71  C         15.6140   -2.2760  -28.1210 C.2   138  ALA138      0.2616
     72  O         16.0250   -2.6210  -29.2300 O.2   138  ALA138     -0.2715
     73  CB        14.2520   -3.9190  -26.7580 C.3   138  ALA138      0.0334
     74  N         15.1430   -1.0550  -27.8760 N.am  139  GLY139     -0.1955
     75  CA        15.1080   -0.0370  -28.9120 C.3   139  GLY139      0.1869
     76  C         16.5030    0.3760  -29.3650 C.2   139  GLY139      0.2309
     77  O         16.7410    0.6040  -30.5400 O.2   139  GLY139     -0.2863
     78  N          7.3790  -15.8650  -28.9310 N.3   163  SER163     -0.1217
     79  CA         6.7360  -15.3300  -27.7330 C.3   163  SER163      0.1889
     80  C          5.9350  -14.0740  -28.0620 C.2   163  SER163      0.2288
     81  O          6.4410  -13.1520  -28.7100 O.2   163  SER163     -0.2866
     82  CB         7.8090  -15.0040  -26.6900 C.3   163  SER163      0.2089
     83  OG         7.3910  -13.9690  -25.8200 O.3   163  SER163     -0.2183
     84  N          5.3950  -11.7840  -26.1750 N.3   165  TYR165     -0.1227
     85  CA         6.0680  -10.6620  -25.5480 C.3   165  TYR165      0.1736
     86  C          7.1240  -10.0690  -26.4600 C.2   165  TYR165      0.2596
     87  O          7.2950   -8.8500  -26.4940 O.2   165  TYR165     -0.2718
     88  CB         6.6800  -11.0700  -24.2020 C.3   165  TYR165      0.0548
     89  CG         5.6410  -11.5970  -23.2500 C.ar  165  TYR165     -0.0200
     90  CD1        4.3180  -11.1940  -23.3640 C.ar  165  TYR165     -0.0009
     91  CD2        5.9680  -12.5030  -22.2520 C.ar  165  TYR165     -0.0009
     92  CE1        3.3500  -11.6690  -22.5100 C.ar  165  TYR165      0.0417
     93  CE2        4.9970  -12.9860  -21.3870 C.ar  165  TYR165      0.0417
     94  CZ         3.6950  -12.5650  -21.5220 C.ar  165  TYR165      0.1957
     95  OH         2.7090  -13.0330  -20.6730 O.3   165  TYR165     -0.2866
     96  N          7.8480  -10.9300  -27.1760 N.am  166  SER166     -0.1952
     97  CA         8.8420  -10.4550  -28.1350 C.3   166  SER166      0.1924
     98  C          8.1370   -9.7170  -29.2680 C.2   166  SER166      0.2314
     99  O          8.5420   -8.6200  -29.6650 O.2   166  SER166     -0.2863
    100  CB         9.6610  -11.6170  -28.7110 C.3   166  SER166      0.2116
    101  OG        10.3010  -12.3530  -27.6870 O.3   166  SER166     -0.2180
    102  N          7.0530   -6.2050  -28.1940 N.3   169  VAL169     -0.1245
    103  CA         8.1740   -5.2800  -28.2660 C.3   169  VAL169      0.1561
    104  C          8.4500   -4.8280  -29.7170 C.2   169  VAL169      0.2260
    105  O          8.6150   -3.6230  -29.9880 O.2   169  VAL169     -0.2867
    106  CB         9.4470   -5.9220  -27.6810 C.3   169  VAL169      0.0252
    107  CG1       10.6510   -5.0070  -27.8810 C.3   169  VAL169      0.0019
    108  CG2        9.2330   -6.2560  -26.2060 C.3   169  VAL169      0.0019
@<TRIPOS>BOND
     1    77    76    2
     2   105   104    2
     3   104   103    1
     4    99    98    2
     5    76    75    1
     6    98    97    1
     7    72    71    2
     8    78    79    1
     9    75    74    1
    10    21    22    1
    11   100    97    1
    12   100   101    1
    13    81    80    2
    14    25    22    1
    15    25    26    1
    16   103   102    1
    17   103   106    1
    18    97    96    1
    19    22    23    1
    20    71    74   am
    21    71    70    1
    22    28    26    1
    23    80    79    1
    24   107   106    1
    25    27    26    1
    26    79    82    1
    27   106   108    1
    28    96    86   am
    29    70    73    1
    30    70    69    1
    31    19    18   ar
    32    11    10   ar
    33    11     9   ar
    34    82    83    1
    35    23    24    2
    36    23    29   am
    37    64    63    2
    38    87    86    2
    39    86    85    1
    40    10     8   ar
    41    84    85    1
    42     9     7   ar
    43    29    30    1
    44    69    63   am
    45    63    62    1
    46    18    17    1
    47    18    20   ar
    48    60    59    2
    49    85    88    1
    50     8     6   ar
    51    17    16    1
    52     7     6   ar
    53    16    13    1
    54    59    61   am
    55    59    58    1
    56    30    33    1
    57    30    31    1
    58     6     5    1
    59    62    61    1
    60    62    65    1
    61    88    89    1
    62    67    65    1
    63    33    34    1
    64    32    31    2
    65    58    57    1
    66    13    14    1
    67    13    12    1
    68    31    35   am
    69    14    15    2
    70    90    89   ar
    71    90    92   ar
    72    65    66    1
    73    89    91   ar
    74    41    39    1
    75     5     2    1
    76    92    94   ar
    77    35    36    1
    78    91    93   ar
    79    66    68    1
    80     4     3    2
    81     3     2    1
    82     2     1    1
    83    39    36    1
    84    39    40    1
    85    36    37    1
    86    94    93   ar
    87    94    95    1
    88    37    38    2
    89    55    56    2
    90    55    54    1
    91    53    54    1
    92    53    44   am
    93    52    50    1
    94    49    50    2
    95    49    48    1
    96    47    48    1
    97    47    46    1
    98    50    51    1
    99    43    46    1
   100    43    44    1
   101    43    42    1
   102    44    45    2
