@<TRIPOS>MOLECULE
tmp/3v8kA00.pdb
 170 165 0 0 0
SMALL
GASTEIGER

@<TRIPOS>ATOM
      1  N         49.6160   11.9510   31.6100 N.3    92  SER92      -0.1202
      2  CA        49.0270   12.3230   30.3100 C.3    92  SER92       0.2020
      3  C         47.6440   11.7070   30.1440 C.2    92  SER92       0.2619
      4  O         47.4420   10.5350   30.4750 O.2    92  SER92      -0.2717
      5  CB        49.9100   11.8880   29.1370 C.3    92  SER92       0.2103
      6  OG        49.1770   11.8380   27.9200 O.3    92  SER92      -0.2182
      7  N         46.7070   12.4920   29.6080 N.am   93  THR93      -0.1938
      8  CA        45.3520   12.0110   29.3340 C.3    93  THR93       0.2028
      9  C         45.3270   10.9410   28.2580 C.2    93  THR93       0.2642
     10  O         44.3890   10.1640   28.2130 O.2    93  THR93      -0.2714
     11  CB        44.4230   13.1150   28.8560 C.3    93  THR93       0.1808
     12  OG1       44.9020   13.6280   27.6080 O.3    93  THR93      -0.2208
     13  CG2       44.3350   14.2290   29.8690 C.3    93  THR93       0.0379
     14  N         46.3220   10.9170   27.3670 N.am   94  GLN94      -0.1976
     15  CA        46.4550    9.8050   26.4090 C.3    94  GLN94       0.1601
     16  C         46.8990    8.5150   27.1000 C.2    94  GLN94       0.2287
     17  O         46.2900    7.4540   26.8890 O.2    94  GLN94      -0.2864
     18  CB        47.3850   10.1470   25.2560 C.3    94  GLN94       0.0394
     19  CG        46.6720   10.8670   24.1260 C.3    94  GLN94       0.0908
     20  CD        46.0480    9.9460   23.0780 C.2    94  GLN94       0.2608
     21  OE1       44.9860   10.2440   22.5270 O.2    94  GLN94      -0.2717
     22  NE2       46.7170    8.8430   22.7830 N.am   94  GLN94      -0.0878
     23  N         48.7790   18.6520   32.6540 N.3   115  GLN115     -0.1245
     24  CA        49.5170   17.4310   32.3390 C.3   115  GLN115      0.1566
     25  C         50.9840   17.6210   32.6910 C.2   115  GLN115      0.2260
     26  O         51.5620   18.6650   32.3750 O.2   115  GLN115     -0.2867
     27  CB        49.3620   17.0520   30.8710 C.3   115  GLN115      0.0367
     28  CG        48.0290   16.4280   30.5560 C.3   115  GLN115      0.0905
     29  CD        47.8690   16.0850   29.0970 C.2   115  GLN115      0.2608
     30  OE1       47.8420   14.9100   28.7320 O.2   115  GLN115     -0.2717
     31  NE2       47.7590   17.1090   28.2480 N.am  115  GLN115     -0.0878
     32  N         52.7960   15.4560   29.0560 N.3   118  GLY118     -0.1210
     33  CA        51.9470   15.4060   27.8710 C.3   118  GLY118      0.1956
     34  C         52.7770   15.4700   26.6190 C.2   118  GLY118      0.2612
     35  O         53.6500   16.3100   26.5230 O.2   118  GLY118     -0.2717
     36  N         52.5090   14.5870   25.6620 N.am  119  ARG119     -0.1965
     37  CA        53.2680   14.5420   24.4090 C.3   119  ARG119      0.1729
     38  C         52.3830   14.7600   23.1750 C.2   119  ARG119      0.2617
     39  O         51.1510   14.6080   23.2540 O.2   119  ARG119     -0.2715
     40  CB        53.9940   13.2040   24.2820 C.3   119  ARG119      0.0348
     41  CG        54.9480   12.8880   25.4270 C.3   119  ARG119      0.0492
     42  CD        56.3420   13.4920   25.2130 C.3   119  ARG119      0.2205
     43  NE        57.2320   13.1810   26.3260 N.pl3 119  ARG119     -0.0865
     44  CZ        57.2670   13.8660   27.4650 C.cat 119  ARG119      0.5346
     45  NH1       56.4600   14.9000   27.6500 N.pl3 119  ARG119      0.1354
     46  NH2       58.1020   13.5110   28.4260 N.pl3 119  ARG119      0.1354
     47  N         53.0040   15.1100   22.0440 N.am  120  GLY120     -0.1940
     48  CA        52.2820   15.2950   20.7770 C.3   120  GLY120      0.2014
     49  C         52.7070   14.2920   19.7270 C.2   120  GLY120      0.2638
     50  O         53.1610   13.1970   20.0620 O.2   120  GLY120     -0.2714
     51  N         52.5680   14.6550   18.4560 N.am  121  ARG121     -0.1977
     52  CA        53.1160   13.8470   17.3680 C.3   121  ARG121      0.1597
     53  C         54.5950   13.5700   17.5920 C.2   121  ARG121      0.2287
     54  O         55.3090   14.3700   18.1970 O.2   121  ARG121     -0.2864
     55  CB        52.9390   14.5510   16.0290 C.3   121  ARG121      0.0334
     56  CG        51.6040   14.2920   15.3530 C.3   121  ARG121      0.0492
     57  CD        51.1580   15.4870   14.4830 C.3   121  ARG121      0.2205
     58  NE        51.4980   15.4450   13.0520 N.pl3 121  ARG121     -0.0865
     59  CZ        51.9870   14.4040   12.3710 C.cat 121  ARG121      0.5346
     60  NH1       52.2360   13.2370   12.9540 N.pl3 121  ARG121      0.1354
     61  NH2       52.2300   14.5340   11.0750 N.pl3 121  ARG121      0.1354
     62  N         56.9200   14.6980   20.6950 N.3   124  ARG124     -0.1245
     63  CA        57.3250   16.0550   21.0410 C.3   124  ARG124      0.1563
     64  C         56.6720   16.4600   22.3430 C.2   124  ARG124      0.2260
     65  O         55.5490   16.0510   22.6270 O.2   124  ARG124     -0.2867
     66  CB        56.9060   17.0440   19.9580 C.3   124  ARG124      0.0307
     67  CG        57.4300   16.7080   18.5990 C.3   124  ARG124      0.0489
     68  CD        57.5100   17.9230   17.7360 C.3   124  ARG124      0.2205
     69  NE        57.4790   17.5600   16.3250 N.pl3 124  ARG124     -0.0865
     70  CZ        56.3600   17.4160   15.6190 C.cat 124  ARG124      0.5346
     71  NH1       55.1790   17.6110   16.2060 N.pl3 124  ARG124      0.1354
     72  NH2       56.4140   17.0810   14.3300 N.pl3 124  ARG124      0.1354
     73  N         54.5090   18.5500   24.8230 N.3   126  TRP126     -0.1241
     74  CA        53.3160   19.3840   24.6980 C.3   126  TRP126      0.1605
     75  C         53.0320   20.1000   26.0070 C.2   126  TRP126      0.2264
     76  O         52.8200   19.4650   27.0470 O.2   126  TRP126     -0.2867
     77  CB        52.0980   18.5690   24.2860 C.3   126  TRP126      0.0550
     78  CG        50.8590   19.4020   24.2140 C.ar  126  TRP126      0.0003
     79  CD1       49.9140   19.5520   25.1890 C.ar  126  TRP126      0.0946
     80  CD2       50.4380   20.2220   23.1210 C.ar  126  TRP126      0.0152
     81  NE1       48.9270   20.4080   24.7690 N.ar  126  TRP126     -0.2442
     82  CE2       49.2240   20.8350   23.5020 C.ar  126  TRP126      0.0810
     83  CE3       50.9630   20.4930   21.8550 C.ar  126  TRP126      0.0012
     84  CZ2       48.5300   21.7090   22.6600 C.ar  126  TRP126      0.0191
     85  CZ3       50.2670   21.3580   21.0150 C.ar  126  TRP126      0.0001
     86  CH2       49.0670   21.9560   21.4230 C.ar  126  TRP126      0.0015
     87  N         42.6610   19.8300   27.8270 N.3   135  TRP135     -0.1227
     88  CA        43.5200   18.6950   27.5370 C.3   135  TRP135      0.1737
     89  C         42.7370   17.4240   27.7510 C.2   135  TRP135      0.2595
     90  O         42.4050   17.0800   28.8910 O.2   135  TRP135     -0.2718
     91  CB        44.7520   18.6710   28.4380 C.3   135  TRP135      0.0564
     92  CG        45.3630   19.9950   28.7810 C.ar  135  TRP135      0.0003
     93  CD1       45.6030   20.4690   30.0280 C.ar  135  TRP135      0.0946
     94  CD2       45.8260   20.9950   27.8750 C.ar  135  TRP135      0.0152
     95  NE1       46.1860   21.7020   29.9640 N.ar  135  TRP135     -0.2442
     96  CE2       46.3310   22.0550   28.6520 C.ar  135  TRP135      0.0810
     97  CE3       45.8550   21.1050   26.4800 C.ar  135  TRP135      0.0012
     98  CZ2       46.8660   23.2150   28.0870 C.ar  135  TRP135      0.0191
     99  CZ3       46.3870   22.2570   25.9110 C.ar  135  TRP135      0.0001
    100  CH2       46.8890   23.3000   26.7200 C.ar  135  TRP135      0.0015
    101  N         42.4680   16.7140   26.6570 N.am  136  MET136     -0.1965
    102  CA        41.4830   15.6380   26.6560 C.3   136  MET136      0.1736
    103  C         41.8080   14.5820   25.6300 C.2   136  MET136      0.2617
    104  O         42.0560   14.9030   24.4710 O.2   136  MET136     -0.2715
    105  CB        40.1060   16.2360   26.3410 C.3   136  MET136      0.0427
    106  CG        39.0050   15.2450   26.0700 C.3   136  MET136      0.0599
    107  SD        37.4670   16.0740   25.6260 S.3   136  MET136     -0.1393
    108  CE        37.6310   16.3180   23.8660 C.3   136  MET136      0.0692
    109  N         41.7940   13.3210   26.0440 N.am  137  SER137     -0.1950
    110  CA        41.7420   12.2310   25.0690 C.3   137  SER137      0.1924
    111  C         40.3230   11.6640   24.9970 C.2   137  SER137      0.2314
    112  O         39.6100   11.6290   25.9930 O.2   137  SER137     -0.2863
    113  CB        42.7170   11.1310   25.4320 C.3   137  SER137      0.2116
    114  OG        43.9040   11.6920   25.9180 O.3   137  SER137     -0.2180
    115  N         46.8000   19.9230   12.8370 N.3   179  ASP179     -0.1239
    116  CA        46.9140   21.1610   13.5850 C.3   179  ASP179      0.1674
    117  C         45.7890   22.1160   13.2460 C.2   179  ASP179      0.2266
    118  O         45.3570   22.1810   12.1030 O.2   179  ASP179     -0.2867
    119  CB        48.2640   21.8120   13.2810 C.3   179  ASP179      0.1410
    120  CG        49.4530   20.9690   13.7450 C.2   179  ASP179      0.3668
    121  OD1       50.3530   21.5420   14.3910 O.co2 179  ASP179     -0.2456
    122  OD2       49.5050   19.7470   13.4620 O.co2 179  ASP179     -0.2456
    123  N         49.0900   28.6090   16.2400 N.3   186  LYS186     -0.1245
    124  CA        48.5490   27.2700   16.3980 C.3   186  LYS186      0.1561
    125  C         47.7150   27.2790   17.6740 C.2   186  LYS186      0.2260
    126  O         48.2650   27.4260   18.7600 O.2   186  LYS186     -0.2867
    127  CB        49.6840   26.2500   16.4720 C.3   186  LYS186      0.0271
    128  CG        49.2230   24.8160   16.5270 C.3   186  LYS186      0.0035
    129  CD        50.3940   23.8870   16.7590 C.3   186  LYS186      0.0206
    130  CE        49.9390   22.4600   17.0080 C.3   186  LYS186      0.1093
    131  NZ        51.0380   21.4940   16.7480 N.3   186  LYS186     -0.1314
    132  N         46.5680   21.4360   18.7140 N.3   189  GLY189     -0.1210
    133  CA        47.0920   20.2770   18.0040 C.3   189  GLY189      0.1956
    134  C         46.3340   19.0610   18.5010 C.2   189  GLY189      0.2612
    135  O         45.9500   19.0000   19.6760 O.2   189  GLY189     -0.2717
    136  N         46.0940   18.0980   17.6190 N.am  190  PHE190     -0.1962
    137  CA        45.4430   16.8660   18.0260 C.3   190  PHE190      0.1771
    138  C         46.0900   15.6990   17.3160 C.2   190  PHE190      0.2619
    139  O         46.7690   15.8880   16.3180 O.2   190  PHE190     -0.2715
    140  CB        43.9420   16.9180   17.7270 C.3   190  PHE190      0.0574
    141  CG        43.6030   16.8400   16.2560 C.ar  190  PHE190     -0.0200
    142  CD1       43.4340   18.0080   15.4990 C.ar  190  PHE190     -0.0042
    143  CD2       43.4420   15.6010   15.6250 C.ar  190  PHE190     -0.0042
    144  CE1       43.1210   17.9520   14.1340 C.ar  190  PHE190     -0.0003
    145  CE2       43.1320   15.5300   14.2670 C.ar  190  PHE190     -0.0003
    146  CZ        42.9690   16.7110   13.5180 C.ar  190  PHE190     -0.0000
    147  N         45.8420   14.4940   17.8180 N.am  191  LEU191     -0.1977
    148  CA        46.5240   13.2790   17.3660 C.3   191  LEU191      0.1596
    149  C         45.6210   12.0470   17.4810 C.2   191  LEU191      0.2287
    150  O         45.0360   11.7980   18.5300 O.2   191  LEU191     -0.2864
    151  CB        47.7990   13.1210   18.1920 C.3   191  LEU191      0.0297
    152  CG        48.2570   11.7980   18.7640 C.3   191  LEU191      0.0022
    153  CD1       49.1790   11.1140   17.7890 C.3   191  LEU191      0.0001
    154  CD2       48.9710   12.1010   20.0490 C.3   191  LEU191      0.0001
    155  N         43.6070   12.1660   20.9520 N.3   207  GLY207     -0.1210
    156  CA        44.0090   13.1320   21.9870 C.3   207  GLY207      0.1956
    157  C         43.9720   14.5680   21.4870 C.2   207  GLY207      0.2612
    158  O         44.5350   14.8840   20.4360 O.2   207  GLY207     -0.2717
    159  N         43.3070   15.4410   22.2400 N.am  208  ILE208     -0.1965
    160  CA        43.0550   16.8010   21.7820 C.3   208  ILE208      0.1727
    161  C         43.4650   17.8520   22.7990 C.2   208  ILE208      0.2616
    162  O         42.9180   17.9150   23.9060 O.2   208  ILE208     -0.2715
    163  CB        41.5730   17.0140   21.4330 C.3   208  ILE208      0.0290
    164  CG1       41.0900   15.9750   20.4180 C.3   208  ILE208      0.0022
    165  CG2       41.3700   18.3930   20.8730 C.3   208  ILE208      0.0023
    166  CD1       39.5930   15.7610   20.4120 C.3   208  ILE208      0.0001
    167  N         44.4230   18.6850   22.3920 N.am  209  GLY209     -0.1955
    168  CA        44.8630   19.8530   23.1670 C.3   209  GLY209      0.1869
    169  C         44.5780   21.1920   22.5080 C.2   209  GLY209      0.2309
    170  O         45.1670   21.5490   21.4840 O.2   209  GLY209     -0.2863
@<TRIPOS>BOND
     1    61    59    1
     2   118   117    2
     3    59    60    1
     4    59    58    2
     5   115   116    1
     6    58    57    1
     7   117   116    1
     8   119   116    1
     9   119   120    1
    10   122   120   ar
    11   146   144   ar
    12   146   145   ar
    13   120   121   ar
    14   144   142   ar
    15   145   143   ar
    16    72    70    1
    17    57    56    1
    18    56    55    1
    19   142   141   ar
    20    70    71    1
    21    70    69    2
    22   143   141   ar
    23    55    52    1
    24   123   124    1
    25   141   140    1
    26   139   138    2
    27    69    68    1
    28   124   127    1
    29   124   125    1
    30   127   128    1
    31   128   129    1
    32   131   130    1
    33   129   130    1
    34   138   147   am
    35   138   137    1
    36   148   149    1
    37   148   147    1
    38   148   151    1
    39    52    53    1
    40    52    51    1
    41   149   150    2
    42    53    54    2
    43   136   137    1
    44   136   134   am
    45   125   126    2
    46   140   137    1
    47    68    67    1
    48   153   152    1
    49   133   134    1
    50   133   132    1
    51   151   152    1
    52    51    49   am
    53   134   135    2
    54    67    66    1
    55   152   154    1
    56    49    50    2
    57    49    48    1
    58    66    63    1
    59   166   164    1
    60   164   163    1
    61   158   157    2
    62    62    63    1
    63    48    47    1
    64   165   163    1
    65   155   156    1
    66    85    86   ar
    67    85    83   ar
    68    63    64    1
    69    86    84   ar
    70   163   160    1
    71   170   169    2
    72   157   156    1
    73   157   159   am
    74   160   159    1
    75   160   161    1
    76    83    80   ar
    77    47    38   am
    78    64    65    2
    79   167   161   am
    80   167   168    1
    81   169   168    1
    82    21    20    2
    83    84    82   ar
    84    22    20   am
    85   161   162    2
    86    20    19    1
    87    80    82   ar
    88    80    78   ar
    89    38    39    2
    90    38    37    1
    91    82    81   ar
    92   108   107    1
    93    19    18    1
    94    78    77    1
    95    78    79   ar
    96    40    37    1
    97    40    41    1
    98    77    74    1
    99    37    36    1
   100   104   103    2
   101    74    73    1
   102    74    75    1
   103    81    79   ar
   104   111   110    1
   105   111   112    2
   106   110   113    1
   107   110   109    1
   108    42    41    1
   109    42    43    1
   110    18    15    1
   111   113   114    1
   112   107   106    1
   113   103   109   am
   114   103   102    1
   115    36    34   am
   116    99    97   ar
   117    99   100   ar
   118    75    76    2
   119   106   105    1
   120    43    44    2
   121   105   102    1
   122    15    16    1
   123    15    14    1
   124    97    94   ar
   125    35    34    2
   126    34    33    1
   127   102   101    1
   128   101    89   am
   129   100    98   ar
   130    17    16    2
   131    14     9   am
   132    44    45    1
   133    44    46    1
   134    88    89    1
   135    88    87    1
   136    88    91    1
   137    12    11    1
   138    89    90    2
   139    33    32    1
   140    94    96   ar
   141    94    92   ar
   142     6     5    1
   143    98    96   ar
   144    10     9    2
   145    31    29   am
   146     9     8    1
   147    91    92    1
   148    96    95   ar
   149    30    29    2
   150    92    93   ar
   151    11     8    1
   152    11    13    1
   153    29    28    1
   154     5     2    1
   155     8     7    1
   156     7     3   am
   157    95    93   ar
   158     3     2    1
   159     3     4    2
   160     2     1    1
   161    28    27    1
   162    27    24    1
   163    24    23    1
   164    24    25    1
   165    26    25    2
