@<TRIPOS>MOLECULE
tmp/3v8nA01.pdb
 100 95 0 0 0
SMALL
GASTEIGER

@<TRIPOS>ATOM
      1  N          9.0960   15.0810   23.5650 N.3     8  LYS8       -0.1245
      2  CA         9.0210   13.7100   23.0710 C.3     8  LYS8        0.1561
      3  C          7.7400   13.0180   23.5440 C.2     8  LYS8        0.2260
      4  O          7.2180   12.1370   22.8630 O.2     8  LYS8       -0.2867
      5  CB        10.2500   12.9170   23.5220 C.3     8  LYS8        0.0271
      6  CG        10.2840   11.4770   23.0410 C.3     8  LYS8        0.0035
      7  CD        11.4880   10.7450   23.6130 C.3     8  LYS8        0.0206
      8  CE        11.5970    9.3370   23.0540 C.3     8  LYS8        0.1093
      9  NZ        11.7540    9.3450   21.5750 N.3     8  LYS8       -0.1314
     10  N         16.7090   13.6440   18.2620 N.3    45  ASP45      -0.1225
     11  CA        16.8240   14.3110   16.9680 C.3    45  ASP45       0.1805
     12  C         15.5030   14.2800   16.2000 C.2    45  ASP45       0.2598
     13  O         15.1740   15.2240   15.4820 O.2    45  ASP45      -0.2718
     14  CB        17.9520   13.6950   16.1380 C.3    45  ASP45       0.1424
     15  CG        19.3270   14.1440   16.6010 C.2    45  ASP45       0.3668
     16  OD1       19.4150   15.2050   17.2520 O.co2  45  ASP45      -0.2456
     17  OD2       20.3200   13.4420   16.3090 O.co2  45  ASP45      -0.2456
     18  N         14.7460   13.1970   16.3640 N.am   46  GLY46      -0.1942
     19  CA        13.4410   13.0720   15.7380 C.3    46  GLY46       0.2014
     20  C         12.4460   14.1040   16.2430 C.2    46  GLY46       0.2639
     21  O         11.6640   14.6570   15.4690 O.2    46  GLY46      -0.2714
     22  N         12.4690   14.3630   17.5470 N.am   47  THR47      -0.1950
     23  CA        11.6160   15.3920   18.1320 C.3    47  THR47       0.1897
     24  C         11.9720   16.7600   17.5520 C.2    47  THR47       0.2313
     25  O         11.0930   17.5760   17.2740 O.2    47  THR47      -0.2863
     26  CB        11.7280   15.4200   19.6760 C.3    47  THR47       0.1794
     27  OG1       11.4540   14.1160   20.2000 O.3    47  THR47      -0.2208
     28  CG2       10.7380   16.4130   20.2760 C.3    47  THR47       0.0378
     29  N         13.3210   17.3090   14.5530 N.3    49  LEU49      -0.1231
     30  CA        12.8220   17.2690   13.1770 C.3    49  LEU49       0.1693
     31  C         11.3600   17.6990   13.0780 C.2    49  LEU49       0.2592
     32  O         11.0040   18.5420   12.2540 O.2    49  LEU49      -0.2718
     33  CB        12.9750   15.8620   12.5940 C.3    49  LEU49       0.0284
     34  CG        14.1290   15.5930   11.6270 C.3    49  LEU49       0.0019
     35  CD1       14.1370   14.1290   11.2120 C.3    49  LEU49       0.0001
     36  CD2       14.0300   16.4970   10.4080 C.3    49  LEU49       0.0001
     37  N         10.5170   17.1040   13.9150 N.am   50  SER50      -0.1952
     38  CA         9.1020   17.4500   13.9630 C.3    50  SER50       0.1924
     39  C          8.9040   18.9210   14.2990 C.2    50  SER50       0.2314
     40  O          7.9560   19.5500   13.8270 O.2    50  SER50      -0.2863
     41  CB         8.3750   16.5890   14.9970 C.3    50  SER50       0.2116
     42  OG         8.4510   15.2130   14.6670 O.3    50  SER50      -0.2180
     43  N         17.1390   17.1400    6.8110 N.3   118  ASN118     -0.1225
     44  CA        18.0410   16.0110    6.6590 C.3   118  ASN118      0.1785
     45  C         18.2460   15.6360    5.2040 C.2   118  ASN118      0.2597
     46  O         19.3290   15.8000    4.6540 O.2   118  ASN118     -0.2718
     47  CB        17.5090   14.7940    7.4190 C.3   118  ASN118      0.1169
     48  CG        17.8840   14.8110    8.8830 C.2   118  ASN118      0.2627
     49  OD1       18.7660   15.5600    9.3020 O.2   118  ASN118     -0.2716
     50  ND2       17.2240   13.9690    9.6700 N.am  118  ASN118     -0.0877
     51  N         17.1910   15.1190    4.5890 N.am  119  GLU119     -0.1979
     52  CA        17.2840   14.6180    3.2350 C.3   119  GLU119      0.1602
     53  C         15.9140   14.4380    2.6000 C.2   119  GLU119      0.2287
     54  O         14.8780   14.4880    3.2720 O.2   119  GLU119     -0.2864
     55  CB        18.0310   13.2840    3.2190 C.3   119  GLU119      0.0415
     56  CG        17.2100   12.0990    3.6990 C.3   119  GLU119      0.1163
     57  CD        17.0210   12.0830    5.2040 C.2   119  GLU119      0.3649
     58  OE1       15.8590   12.0300    5.6580 O.co2 119  GLU119     -0.2457
     59  OE2       18.0360   12.1120    5.9340 O.co2 119  GLU119     -0.2457
     60  N         23.0490   11.1700    8.9210 N.3   158  ALA158     -0.1231
     61  CA        21.8550   10.3320    8.9670 C.3   158  ALA158      0.1694
     62  C         21.8130    9.2910    7.8410 C.2   158  ALA158      0.2592
     63  O         22.7550    8.5170    7.6540 O.2   158  ALA158     -0.2718
     64  CB        20.6050   11.2030    8.9370 C.3   158  ALA158      0.0304
     65  N         20.7100    9.2840    7.0980 N.am  159  TYR159     -0.1976
     66  CA        20.4790    8.3070    6.0350 C.3   159  TYR159      0.1639
     67  C         21.6530    8.2480    5.0440 C.2   159  TYR159      0.2290
     68  O         22.1340    7.1690    4.7020 O.2   159  TYR159     -0.2864
     69  CB        19.1680    8.6310    5.3130 C.3   159  TYR159      0.0560
     70  CG        18.5150    7.4620    4.6080 C.ar  159  TYR159     -0.0198
     71  CD1       19.1670    6.2410    4.4820 C.ar  159  TYR159     -0.0009
     72  CD2       17.2460    7.5850    4.0600 C.ar  159  TYR159     -0.0009
     73  CE1       18.5710    5.1760    3.8320 C.ar  159  TYR159      0.0417
     74  CE2       16.6410    6.5250    3.4070 C.ar  159  TYR159      0.0417
     75  CZ        17.3070    5.3250    3.2950 C.ar  159  TYR159      0.1957
     76  OH        16.7000    4.2740    2.6460 O.3   159  TYR159     -0.2866
     77  N         24.5320    5.9220    5.9760 N.3   162  SER162     -0.1217
     78  CA        24.2780    4.4970    5.8110 C.3   162  SER162      0.1889
     79  C         24.4460    4.0460    4.3580 C.2   162  SER162      0.2288
     80  O         24.6680    2.8670    4.0880 O.2   162  SER162     -0.2866
     81  CB        22.8770    4.1430    6.3180 C.3   162  SER162      0.2089
     82  OG        22.7770    4.3190    7.7200 O.3   162  SER162     -0.2183
     83  N         12.4950   14.0080    4.9960 N.3   215  ASP215     -0.1225
     84  CA        12.7500   13.7160    6.4050 C.3   215  ASP215      0.1805
     85  C         11.8870   12.5460    6.8830 C.2   215  ASP215      0.2597
     86  O         12.0520   11.4250    6.4070 O.2   215  ASP215     -0.2718
     87  CB        12.5680   14.9670    7.2770 C.3   215  ASP215      0.1424
     88  CG        13.5700   16.0620    6.9400 C.2   215  ASP215      0.3668
     89  OD1       13.2270   17.2510    7.0610 O.co2 215  ASP215     -0.2456
     90  OD2       14.7020   15.7320    6.5390 O.co2 215  ASP215     -0.2456
     91  N         10.9690   12.7990    7.8100 N.am  216  HIS216     -0.1975
     92  CA        10.1400   11.7260    8.3520 C.3   216  HIS216      0.1656
     93  C          8.8330   11.5280    7.5750 C.2   216  HIS216      0.2291
     94  O          8.2280   10.4560    7.6220 O.2   216  HIS216     -0.2864
     95  CB         9.8530   11.9670    9.8370 C.3   216  HIS216      0.0771
     96  CG         9.2710   13.3140   10.1270 C.ar  216  HIS216      0.0820
     97  ND1        9.9690   14.4850    9.9210 N.ar  216  HIS216     -0.2267
     98  CD2        8.0590   13.6770   10.6060 C.ar  216  HIS216      0.1154
     99  CE1        9.2100   15.5120   10.2610 C.ar  216  HIS216      0.1986
    100  NE2        8.0460   15.0480   10.6790 N.ar  216  HIS216     -0.2212
@<TRIPOS>BOND
     1    53    52    1
     2    53    54    2
     3    76    75    1
     4    55    52    1
     5    55    56    1
     6    52    51    1
     7    75    74   ar
     8    75    73   ar
     9    74    72   ar
    10    56    57    1
    11    73    71   ar
    12    72    70   ar
    13    80    79    2
    14    79    78    1
    15    71    70   ar
    16    51    45   am
    17    70    69    1
    18    46    45    2
    19    68    67    2
    20    83    84    1
    21    67    66    1
    22    45    44    1
    23    57    58   ar
    24    57    59   ar
    25    69    66    1
    26    78    77    1
    27    78    81    1
    28    66    65    1
    29    81    82    1
    30    84    85    1
    31    84    87    1
    32    86    85    2
    33    90    88   ar
    34    44    43    1
    35    44    47    1
    36    85    91   am
    37    88    89   ar
    38    88    87    1
    39    65    62   am
    40    47    48    1
    41    93    94    2
    42    93    92    1
    43    63    62    2
    44    91    92    1
    45    62    61    1
    46    92    95    1
    47    48    49    2
    48    48    50   am
    49    60    61    1
    50    64    61    1
    51    95    96    1
    52    97    96   ar
    53    97    99   ar
    54    96    98   ar
    55    99   100   ar
    56    36    34    1
    57    98   100   ar
    58    35    34    1
    59    34    33    1
    60    32    31    2
    61    33    30    1
    62    31    30    1
    63    31    37   am
    64    30    29    1
    65    40    39    2
    66    37    38    1
    67    38    39    1
    68    38    41    1
    69    42    41    1
    70    21    20    2
    71    13    12    2
    72    19    20    1
    73    19    18    1
    74    14    15    1
    75    14    11    1
    76    12    18   am
    77    12    11    1
    78    20    22   am
    79    17    15   ar
    80    15    16   ar
    81    11    10    1
    82    25    24    2
    83    22    23    1
    84    24    23    1
    85    23    26    1
    86    26    27    1
    87    26    28    1
    88     9     8    1
    89     4     3    2
    90     6     5    1
    91     6     7    1
    92     8     7    1
    93     2     5    1
    94     2     3    1
    95     2     1    1
