@<TRIPOS>MOLECULE
tmp/3v8pA01.pdb
 137 133 0 0 0
SMALL
GASTEIGER

@<TRIPOS>ATOM
      1  N         16.4090   13.2850   17.9840 N.3    45  ASP45      -0.1225
      2  CA        16.5150   13.9740   16.7040 C.3    45  ASP45       0.1805
      3  C         15.2150   13.8580   15.9160 C.2    45  ASP45       0.2598
      4  O         14.9190   14.6970   15.0670 O.2    45  ASP45      -0.2718
      5  CB        17.6940   13.4350   15.8870 C.3    45  ASP45       0.1424
      6  CG        19.0280   13.9870   16.3560 C.2    45  ASP45       0.3668
      7  OD1       19.0370   15.0730   16.9740 O.co2  45  ASP45      -0.2456
      8  OD2       20.0670   13.3400   16.1010 O.co2  45  ASP45      -0.2456
      9  N         14.4420   12.8150   16.2070 N.am   46  GLY46      -0.1957
     10  CA        13.1370   12.6380   15.5950 C.3    46  GLY46       0.1869
     11  C         12.1400   13.6700   16.0930 C.2    46  GLY46       0.2309
     12  O         11.2590   14.1090   15.3510 O.2    46  GLY46      -0.2863
     13  N         13.1940   16.9880   14.4030 N.3    49  LEU49      -0.1245
     14  CA        12.6780   16.9790   13.0370 C.3    49  LEU49       0.1561
     15  C         11.2440   17.4980   12.9880 C.2    49  LEU49       0.2260
     16  O         10.9110   18.3620   12.1740 O.2    49  LEU49      -0.2867
     17  CB        12.7350   15.5700   12.4400 C.3    49  LEU49       0.0270
     18  CG        14.0410   15.0960   11.7980 C.3    49  LEU49       0.0019
     19  CD1       13.8350   13.7450   11.1280 C.3    49  LEU49       0.0001
     20  CD2       14.5580   16.1180   10.8000 C.3    49  LEU49       0.0001
     21  N         22.9530   11.3080   23.0110 N.3    72  LEU72      -0.1231
     22  CA        23.4730   12.4900   22.3350 C.3    72  LEU72       0.1693
     23  C         22.9520   12.5610   20.8990 C.2    72  LEU72       0.2593
     24  O         23.2600   11.7030   20.0720 O.2    72  LEU72      -0.2718
     25  CB        25.0060   12.4990   22.3660 C.3    72  LEU72       0.0284
     26  CG        25.7240   13.7470   21.8440 C.3    72  LEU72       0.0019
     27  CD1       26.0970   13.5930   20.3800 C.3    72  LEU72       0.0001
     28  CD2       24.8650   14.9910   22.0500 C.3    72  LEU72       0.0001
     29  N         22.1470   13.5810   20.6180 N.am   73  GLY73      -0.1942
     30  CA        21.6120   13.7900   19.2850 C.3    73  GLY73       0.2014
     31  C         22.4340   14.8080   18.5200 C.2    73  GLY73       0.2639
     32  O         23.1360   15.6250   19.1160 O.2    73  GLY73      -0.2714
     33  N         22.3580   14.7600   17.1950 N.am   74  PHE74      -0.1959
     34  CA        23.0860   15.7160   16.3710 C.3    74  PHE74       0.1771
     35  C         22.4480   17.0940   16.4260 C.2    74  PHE74       0.2619
     36  O         23.1390   18.1110   16.3820 O.2    74  PHE74      -0.2715
     37  CB        23.1820   15.2270   14.9250 C.3    74  PHE74       0.0574
     38  CG        24.4030   14.4120   14.6550 C.ar   74  PHE74      -0.0200
     39  CD1       25.5770   15.0200   14.2470 C.ar   74  PHE74      -0.0042
     40  CD2       24.3870   13.0400   14.8270 C.ar   74  PHE74      -0.0042
     41  CE1       26.7120   14.2760   14.0040 C.ar   74  PHE74      -0.0003
     42  CE2       25.5200   12.2870   14.5870 C.ar   74  PHE74      -0.0003
     43  CZ        26.6850   12.9060   14.1740 C.ar   74  PHE74      -0.0000
     44  N         21.1250   17.1200   16.5230 N.am   75  TYR75      -0.1974
     45  CA        20.3950   18.3730   16.6230 C.3    75  TYR75       0.1639
     46  C         20.0730   18.6820   18.0790 C.2    75  TYR75       0.2290
     47  O         20.0170   19.8420   18.4810 O.2    75  TYR75      -0.2864
     48  CB        19.1160   18.3030   15.7920 C.3    75  TYR75       0.0560
     49  CG        19.3720   18.1040   14.3170 C.ar   75  TYR75      -0.0198
     50  CD1       18.7060   17.1180   13.6030 C.ar   75  TYR75      -0.0009
     51  CD2       20.2780   18.9070   13.6360 C.ar   75  TYR75      -0.0009
     52  CE1       18.9380   16.9330   12.2540 C.ar   75  TYR75       0.0417
     53  CE2       20.5150   18.7320   12.2890 C.ar   75  TYR75       0.0417
     54  CZ        19.8420   17.7430   11.6010 C.ar   75  TYR75       0.1957
     55  OH        20.0770   17.5650   10.2560 O.3    75  TYR75      -0.2866
     56  N         17.1940   16.9560    6.9110 N.3   118  ASN118     -0.1225
     57  CA        18.0910   15.8230    6.7150 C.3   118  ASN118      0.1785
     58  C         18.2460   15.4760    5.2400 C.2   118  ASN118      0.2597
     59  O         19.2790   15.7600    4.6350 O.2   118  ASN118     -0.2718
     60  CB        17.6080   14.5930    7.4910 C.3   118  ASN118      0.1169
     61  CG        18.0130   14.6230    8.9570 C.2   118  ASN118      0.2627
     62  OD1       18.8860   15.3930    9.3610 O.2   118  ASN118     -0.2716
     63  ND2       17.3900   13.7670    9.7570 N.am  118  ASN118     -0.0877
     64  N         17.2150   14.8650    4.6620 N.am  119  GLU119     -0.1979
     65  CA        17.2830   14.4360    3.2720 C.3   119  GLU119      0.1602
     66  C         15.9140   14.2150    2.6430 C.2   119  GLU119      0.2287
     67  O         14.8920   14.1470    3.3280 O.2   119  GLU119     -0.2864
     68  CB        18.1000   13.1460    3.1500 C.3   119  GLU119      0.0415
     69  CG        17.3520   11.8870    3.5940 C.3   119  GLU119      0.1163
     70  CD        17.1180   11.8340    5.0970 C.2   119  GLU119      0.3649
     71  OE1       15.9420   11.8690    5.5190 O.co2 119  GLU119     -0.2457
     72  OE2       18.1090   11.7530    5.8530 O.co2 119  GLU119     -0.2457
     73  N         24.0250   18.6530    7.3210 N.3   154  SER154     -0.1217
     74  CA        23.7810   18.0800    8.6420 C.3   154  SER154      0.1889
     75  C         23.1090   16.7100    8.5430 C.2   154  SER154      0.2288
     76  O         23.1820   15.9000    9.4680 O.2   154  SER154     -0.2866
     77  CB        22.9620   19.0360    9.5200 C.3   154  SER154      0.2089
     78  OG        21.6830   19.2960    8.9650 O.3   154  SER154     -0.2183
     79  N         25.0750   12.7090    8.2960 N.3   157  THR157     -0.1203
     80  CA        25.3530   11.7770    9.3840 C.3   157  THR157      0.1994
     81  C         24.1820   10.8280    9.6020 C.2   157  THR157      0.2618
     82  O         24.2460    9.9230   10.4340 O.2   157  THR157     -0.2717
     83  CB        25.6770   12.5130   10.6970 C.3   157  THR157      0.1784
     84  OG1       24.6870   13.5170   10.9430 O.3   157  THR157     -0.2211
     85  CG2       27.0420   13.1760   10.6100 C.3   157  THR157      0.0376
     86  N         23.1160   11.0360    8.8370 N.am  158  ALA158     -0.1965
     87  CA        21.9260   10.1990    8.9350 C.3   158  ALA158      0.1728
     88  C         21.8690    9.1470    7.8220 C.2   158  ALA158      0.2616
     89  O         22.8250    8.4030    7.6120 O.2   158  ALA158     -0.2715
     90  CB        20.6740   11.0630    8.9270 C.3   158  ALA158      0.0334
     91  N         20.7430    9.0960    7.1160 N.am  159  TYR159     -0.1974
     92  CA        20.5230    8.1170    6.0520 C.3   159  TYR159      0.1639
     93  C         21.6860    8.0820    5.0570 C.2   159  TYR159      0.2290
     94  O         22.1780    7.0120    4.6900 O.2   159  TYR159     -0.2864
     95  CB        19.2200    8.4440    5.3220 C.3   159  TYR159      0.0560
     96  CG        18.6340    7.3010    4.5250 C.ar  159  TYR159     -0.0198
     97  CD1       19.2110    6.0390    4.5430 C.ar  159  TYR159     -0.0009
     98  CD2       17.4980    7.4890    3.7550 C.ar  159  TYR159     -0.0009
     99  CE1       18.6690    4.9960    3.8150 C.ar  159  TYR159      0.0417
    100  CE2       16.9510    6.4580    3.0250 C.ar  159  TYR159      0.0417
    101  CZ        17.5380    5.2150    3.0550 C.ar  159  TYR159      0.1957
    102  OH        16.9800    4.1980    2.3200 O.3   159  TYR159     -0.2866
    103  N         24.4970    5.8130    5.9920 N.3   162  SER162     -0.1217
    104  CA        24.2290    4.3870    5.8310 C.3   162  SER162      0.1889
    105  C         24.3830    3.9410    4.3780 C.2   162  SER162      0.2288
    106  O         24.5130    2.7510    4.0970 O.2   162  SER162     -0.2866
    107  CB        22.8250    4.0440    6.3350 C.3   162  SER162      0.2089
    108  OG        22.6830    4.3750    7.7040 O.3   162  SER162     -0.2183
    109  N         12.6360   13.7760    5.0790 N.3   218  ASP218     -0.1225
    110  CA        12.9260   13.5170    6.4830 C.3   218  ASP218      0.1805
    111  C         12.0800   12.3460    6.9820 C.2   218  ASP218      0.2597
    112  O         12.1820   11.2370    6.4570 O.2   218  ASP218     -0.2718
    113  CB        12.7150   14.7780    7.3270 C.3   218  ASP218      0.1424
    114  CG        13.6350   15.9130    6.9100 C.2   218  ASP218      0.3668
    115  OD1       14.7140   15.6280    6.3530 O.co2 218  ASP218     -0.2456
    116  OD2       13.2850   17.0880    7.1320 O.co2 218  ASP218     -0.2456
    117  N         11.2440   12.5840    7.9860 N.am  219  HIS219     -0.1975
    118  CA        10.4210   11.5100    8.5390 C.3   219  HIS219      0.1656
    119  C          9.1370   11.2750    7.7370 C.2   219  HIS219      0.2291
    120  O          8.4990   10.2310    7.8640 O.2   219  HIS219     -0.2864
    121  CB        10.1000   11.7680   10.0170 C.3   219  HIS219      0.0771
    122  CG         9.5470   13.1320   10.2920 C.ar  219  HIS219      0.0820
    123  ND1       10.0440   14.2720    9.6960 N.ar  219  HIS219     -0.2267
    124  CD2        8.5420   13.5400   11.1020 C.ar  219  HIS219      0.1154
    125  CE1        9.3690   15.3220   10.1270 C.ar  219  HIS219      0.1986
    126  NE2        8.4510   14.9050   10.9800 N.ar  219  HIS219     -0.2212
    127  N         29.5190    8.5700   17.0010 N.3   257  PHE257     -0.1241
    128  CA        29.9520    7.3960   16.2460 C.3   257  PHE257      0.1605
    129  C         31.2080    6.7140   16.7920 C.2   257  PHE257      0.2264
    130  O         31.3370    5.4940   16.7080 O.2   257  PHE257     -0.2867
    131  CB        30.1330    7.7430   14.7610 C.3   257  PHE257      0.0534
    132  CG        28.8560    8.1430   14.0730 C.ar  257  PHE257     -0.0203
    133  CD1       27.8900    7.1980   13.7730 C.ar  257  PHE257     -0.0042
    134  CD2       28.6210    9.4640   13.7280 C.ar  257  PHE257     -0.0042
    135  CE1       26.7110    7.5640   13.1430 C.ar  257  PHE257     -0.0003
    136  CE2       27.4440    9.8350   13.0960 C.ar  257  PHE257     -0.0003
    137  CZ        26.4890    8.8850   12.8030 C.ar  257  PHE257     -0.0000
@<TRIPOS>BOND
     1   102   101    1
     2    66    65    1
     3    66    67    2
     4   100   101   ar
     5   100    98   ar
     6   101    99   ar
     7    68    65    1
     8    68    69    1
     9    65    64    1
    10    69    70    1
    11    98    96   ar
    12    99    97   ar
    13   106   105    2
    14   105   104    1
    15    96    97   ar
    16    96    95    1
    17    59    58    2
    18    64    58   am
    19    94    93    2
    20    93    92    1
    21   109   110    1
    22    70    71   ar
    23    70    72   ar
    24    58    57    1
    25    95    92    1
    26   104   103    1
    27   104   107    1
    28    92    91    1
    29   107   108    1
    30   115   114   ar
    31   112   111    2
    32   110   111    1
    33   110   113    1
    34    57    56    1
    35    57    60    1
    36   114   116   ar
    37   114   113    1
    38   111   117   am
    39    91    88   am
    40    73    74    1
    41    60    61    1
    42    89    88    2
    43   119   120    2
    44   119   118    1
    45    88    87    1
    46   117   118    1
    47    79    80    1
    48   118   121    1
    49    75    74    1
    50    75    76    2
    51    74    77    1
    52    86    87    1
    53    86    81   am
    54    90    87    1
    55    61    62    2
    56    61    63   am
    57    78    77    1
    58    80    81    1
    59    80    83    1
    60    81    82    2
    61   123   125   ar
    62   123   122   ar
    63   121   122    1
    64   125   126   ar
    65    55    54    1
    66   122   124   ar
    67    85    83    1
    68    83    84    1
    69    20    18    1
    70   126   124   ar
    71    19    18    1
    72    54    52   ar
    73    54    53   ar
    74    18    17    1
    75    16    15    2
    76    52    50   ar
    77    53    51   ar
    78    17    14    1
    79   137   136   ar
    80   137   135   ar
    81    15    14    1
    82    14    13    1
    83   136   134   ar
    84   135   133   ar
    85    50    49   ar
    86    51    49   ar
    87   134   132   ar
    88   133   132   ar
    89    41    43   ar
    90    41    39   ar
    91   132   131    1
    92    43    42   ar
    93    39    38   ar
    94    49    48    1
    95    42    40   ar
    96    38    40   ar
    97    38    37    1
    98   131   128    1
    99    37    34    1
   100     4     3    2
   101    12    11    2
   102    10    11    1
   103    10     9    1
   104    48    45    1
   105     5     6    1
   106     5     2    1
   107     3     9   am
   108     3     2    1
   109     8     6   ar
   110   128   129    1
   111   128   127    1
   112     6     7   ar
   113    34    35    1
   114    34    33    1
   115    36    35    2
   116    35    44   am
   117    44    45    1
   118    45    46    1
   119     2     1    1
   120   130   129    2
   121    33    31   am
   122    46    47    2
   123    31    32    2
   124    31    30    1
   125    30    29    1
   126    24    23    2
   127    27    26    1
   128    29    23   am
   129    23    22    1
   130    26    28    1
   131    26    25    1
   132    22    25    1
   133    22    21    1
