@<TRIPOS>MOLECULE
tmp/3v8rA00.pdb
 98 94 0 0 0
SMALL
GASTEIGER

@<TRIPOS>ATOM
      1  N         16.4430   13.8090   18.0770 N.3    45  ASP45      -0.1225
      2  CA        16.5320   14.4770   16.7860 C.3    45  ASP45       0.1805
      3  C         15.1890   14.4430   16.0630 C.2    45  ASP45       0.2598
      4  O         14.8300   15.3830   15.3540 O.2    45  ASP45      -0.2718
      5  CB        17.6410   13.8660   15.9300 C.3    45  ASP45       0.1424
      6  CG        19.0230   14.2990   16.3810 C.2    45  ASP45       0.3668
      7  OD1       19.1490   15.4250   16.9060 O.co2  45  ASP45      -0.2456
      8  OD2       19.9810   13.5150   16.2130 O.co2  45  ASP45      -0.2456
      9  N         14.4450   13.3580   16.2580 N.am   46  GLY46      -0.1957
     10  CA        13.1120   13.2360   15.7000 C.3    46  GLY46       0.1869
     11  C         12.1750   14.3240   16.1960 C.2    46  GLY46       0.2309
     12  O         11.4470   14.9320   15.4080 O.2    46  GLY46      -0.2863
     13  N         13.0520   17.4010   14.4440 N.3    49  LEU49      -0.1245
     14  CA        12.5590   17.3870   13.0680 C.3    49  LEU49       0.1561
     15  C         11.1170   17.8790   12.9710 C.2    49  LEU49       0.2260
     16  O         10.7970   18.7340   12.1410 O.2    49  LEU49      -0.2867
     17  CB        12.6630   15.9840   12.4680 C.3    49  LEU49       0.0270
     18  CG        13.9000   15.6460   11.6300 C.3    49  LEU49       0.0019
     19  CD1       13.7800   14.2310   11.0910 C.3    49  LEU49       0.0001
     20  CD2       14.0830   16.6410   10.4900 C.3    49  LEU49       0.0001
     21  N         22.8100   11.6700   23.0560 N.3    72  LEU72      -0.1231
     22  CA        23.1260   12.8670   22.2920 C.3    72  LEU72       0.1693
     23  C         22.5350   12.8080   20.8820 C.2    72  LEU72       0.2593
     24  O         22.5540   11.7640   20.2320 O.2    72  LEU72      -0.2718
     25  CB        24.6440   13.0300   22.2030 C.3    72  LEU72       0.0284
     26  CG        25.1950   14.1610   21.3340 C.3    72  LEU72       0.0019
     27  CD1       25.0210   15.5000   22.0250 C.3    72  LEU72       0.0001
     28  CD2       26.6530   13.9130   20.9980 C.3    72  LEU72       0.0001
     29  N         21.9980   13.9310   20.4210 N.am   73  GLY73      -0.1942
     30  CA        21.5210   14.0420   19.0560 C.3    73  GLY73       0.2014
     31  C         22.3800   15.0330   18.2950 C.2    73  GLY73       0.2639
     32  O         23.2660   15.6610   18.8750 O.2    73  GLY73      -0.2714
     33  N         22.1330   15.1780   16.9990 N.am   74  PHE74      -0.1959
     34  CA        22.8780   16.1570   16.2220 C.3    74  PHE74       0.1771
     35  C         22.1920   17.5170   16.2560 C.2    74  PHE74       0.2619
     36  O         22.8440   18.5490   16.1170 O.2    74  PHE74      -0.2715
     37  CB        23.1170   15.6710   14.7880 C.3    74  PHE74       0.0574
     38  CG        24.2340   14.6720   14.6720 C.ar   74  PHE74      -0.0200
     39  CD1       25.5290   15.0870   14.4010 C.ar   74  PHE74      -0.0042
     40  CD2       23.9950   13.3210   14.8550 C.ar   74  PHE74      -0.0042
     41  CE1       26.5660   14.1720   14.3030 C.ar   74  PHE74      -0.0003
     42  CE2       25.0220   12.3990   14.7600 C.ar   74  PHE74      -0.0003
     43  CZ        26.3110   12.8260   14.4830 C.ar   74  PHE74      -0.0000
     44  N         20.8790   17.5140   16.4580 N.am   75  TYR75      -0.1974
     45  CA        20.1470   18.7590   16.6650 C.3    75  TYR75       0.1639
     46  C         19.7760   18.9180   18.1400 C.2    75  TYR75       0.2290
     47  O         19.6460   20.0340   18.6450 O.2    75  TYR75      -0.2864
     48  CB        18.8930   18.8140   15.7920 C.3    75  TYR75       0.0560
     49  CG        19.1570   18.5920   14.3220 C.ar   75  TYR75      -0.0198
     50  CD1       18.6280   17.4930   13.6630 C.ar   75  TYR75      -0.0009
     51  CD2       19.9450   19.4780   13.5940 C.ar   75  TYR75      -0.0009
     52  CE1       18.8700   17.2840   12.3190 C.ar   75  TYR75       0.0417
     53  CE2       20.1930   19.2770   12.2510 C.ar   75  TYR75       0.0417
     54  CZ        19.6520   18.1770   11.6180 C.ar   75  TYR75       0.1957
     55  OH        19.8920   17.9630   10.2800 O.3    75  TYR75      -0.2866
     56  N         16.9420   17.1490    6.7830 N.3   117  ASN117     -0.1240
     57  CA        17.8690   16.0410    6.6050 C.3   117  ASN117      0.1653
     58  C         18.0570   15.7030    5.1360 C.2   117  ASN117      0.2266
     59  O         19.0820   16.0330    4.5480 O.2   117  ASN117     -0.2867
     60  CB        17.4090   14.8000    7.3750 C.3   117  ASN117      0.1155
     61  CG        17.7560   14.8650    8.8460 C.2   117  ASN117      0.2627
     62  OD1       18.6670   15.5900    9.2530 O.2   117  ASN117     -0.2716
     63  ND2       17.0360   14.0980    9.6560 N.am  117  ASN117     -0.0877
     64  N         23.9010   18.8720    7.2740 N.3   153  SER153     -0.1217
     65  CA        23.6200   18.3260    8.5970 C.3   153  SER153      0.1889
     66  C         22.9250   16.9730    8.4960 C.2   153  SER153      0.2288
     67  O         22.9840   16.1620    9.4170 O.2   153  SER153     -0.2866
     68  CB        22.7840   19.3020    9.4300 C.3   153  SER153      0.2089
     69  OG        21.4980   19.4890    8.8690 O.3   153  SER153     -0.2183
     70  N         24.8710   12.8990    8.3740 N.3   156  THR156     -0.1203
     71  CA        25.0840   11.9500    9.4590 C.3   156  THR156      0.1994
     72  C         23.8790   11.0250    9.6370 C.2   156  THR156      0.2617
     73  O         23.9050   10.1110   10.4590 O.2   156  THR156     -0.2717
     74  CB        25.3750   12.6780   10.7790 C.3   156  THR156      0.1784
     75  OG1       24.3120   13.5950   11.0580 O.3   156  THR156     -0.2211
     76  CG2       26.6700   13.4560   10.6730 C.3   156  THR156      0.0376
     77  N         22.8310   11.2620    8.8540 N.am  157  ALA157     -0.1979
     78  CA        21.6260   10.4400    8.9150 C.3   157  ALA157      0.1597
     79  C         21.6070    9.3520    7.8380 C.2   157  ALA157      0.2287
     80  O         22.5590    8.5780    7.7110 O.2   157  ALA157     -0.2864
     81  CB        20.3780   11.3140    8.8200 C.3   157  ALA157      0.0319
     82  N         28.9880   10.8270   18.8110 N.3   254  SER254     -0.1202
     83  CA        27.9020    9.9980   18.3010 C.3   254  SER254      0.2020
     84  C         28.3540    8.6430   17.7510 C.2   254  SER254      0.2618
     85  O         27.6960    7.6320   17.9880 O.2   254  SER254     -0.2717
     86  CB        27.1040   10.7560   17.2410 C.3   254  SER254      0.2103
     87  OG        26.4740   11.8970   17.8000 O.3   254  SER254     -0.2182
     88  N         29.4710    8.6150   17.0270 N.am  255  PHE255     -0.1975
     89  CA        29.8700    7.3990   16.3140 C.3   255  PHE255      0.1639
     90  C         31.1160    6.6870   16.8500 C.2   255  PHE255      0.2290
     91  O         31.2520    5.4760   16.6910 O.2   255  PHE255     -0.2864
     92  CB        30.0280    7.6800   14.8110 C.3   255  PHE255      0.0560
     93  CG        28.7510    8.0840   14.1340 C.ar  255  PHE255     -0.0200
     94  CD1       28.5630    9.3850   13.6970 C.ar  255  PHE255     -0.0042
     95  CD2       27.7320    7.1660   13.9520 C.ar  255  PHE255     -0.0042
     96  CE1       27.3870    9.7630   13.0800 C.ar  255  PHE255     -0.0003
     97  CE2       26.5540    7.5340   13.3380 C.ar  255  PHE255     -0.0003
     98  CZ        26.3800    8.8370   12.8980 C.ar  255  PHE255     -0.0000
@<TRIPOS>BOND
     1    59    58    2
     2    58    57    1
     3    57    56    1
     4    57    60    1
     5    64    65    1
     6    60    61    1
     7    80    79    2
     8    79    78    1
     9    70    71    1
    10    66    65    1
    11    66    67    2
    12    65    68    1
    13    81    78    1
    14    61    62    2
    15    61    63   am
    16    77    78    1
    17    77    72   am
    18    69    68    1
    19    71    72    1
    20    71    74    1
    21    72    73    2
    22    55    54    1
    23    20    18    1
    24    76    74    1
    25    74    75    1
    26    19    18    1
    27    54    53   ar
    28    54    52   ar
    29    18    17    1
    30    16    15    2
    31    53    51   ar
    32    52    50   ar
    33    17    14    1
    34    98    96   ar
    35    98    97   ar
    36    15    14    1
    37    14    13    1
    38    96    94   ar
    39    97    95   ar
    40    51    49   ar
    41    50    49   ar
    42    94    93   ar
    43    95    93   ar
    44    93    92    1
    45    41    39   ar
    46    41    43   ar
    47    49    48    1
    48    39    38   ar
    49    43    42   ar
    50    38    37    1
    51    38    40   ar
    52    42    40   ar
    53    37    34    1
    54    92    89    1
    55     4     3    2
    56    12    11    2
    57    10    11    1
    58    10     9    1
    59    48    45    1
    60     5     6    1
    61     5     2    1
    62     3     9   am
    63     3     2    1
    64    36    35    2
    65     8     6   ar
    66    34    35    1
    67    34    33    1
    68    35    44   am
    69    89    90    1
    70    89    88    1
    71     6     7   ar
    72    44    45    1
    73    45    46    1
    74    91    90    2
    75     2     1    1
    76    33    31   am
    77    88    84   am
    78    86    87    1
    79    86    83    1
    80    84    85    2
    81    84    83    1
    82    46    47    2
    83    31    32    2
    84    31    30    1
    85    83    82    1
    86    30    29    1
    87    24    23    2
    88    29    23   am
    89    23    22    1
    90    28    26    1
    91    26    27    1
    92    26    25    1
    93    25    22    1
    94    22    21    1
