@<TRIPOS>MOLECULE
tmp/3v8sC00.pdb
 175 167 0 0 0
SMALL
GASTEIGER

@<TRIPOS>ATOM
      1  N        -81.3620  -38.3150  -16.3030 N.3    75  ILE75      -0.1231
      2  CA       -82.3910  -39.3420  -16.4120 C.3    75  ILE75       0.1692
      3  C        -82.3990  -40.3750  -15.2870 C.2    75  ILE75       0.2593
      4  O        -83.2740  -41.2420  -15.2580 O.2    75  ILE75      -0.2718
      5  CB       -82.3330  -40.0350  -17.7820 C.3    75  ILE75       0.0266
      6  CG1      -80.9400  -40.6130  -18.0170 C.3    75  ILE75       0.0019
      7  CG2      -82.6540  -39.0410  -18.8860 C.3    75  ILE75       0.0020
      8  CD1      -80.7910  -41.3330  -19.3320 C.3    75  ILE75       0.0001
      9  N        -81.4380  -40.2850  -14.3670 N.am   76  GLY76      -0.1942
     10  CA       -81.3790  -41.1950  -13.2290 C.3    76  GLY76       0.2014
     11  C        -80.4330  -40.7670  -12.1210 C.2    76  GLY76       0.2639
     12  O        -79.4760  -40.0350  -12.3770 O.2    76  GLY76      -0.2714
     13  N        -80.7040  -41.2310  -10.8990 N.am   77  ARG77      -0.1963
     14  CA       -79.8670  -40.9800   -9.7160 C.3    77  ARG77       0.1729
     15  C        -79.7140  -42.2270   -8.8430 C.2    77  ARG77       0.2616
     16  O        -80.7030  -42.8420   -8.4690 O.2    77  ARG77      -0.2715
     17  CB       -80.4530  -39.8720   -8.8460 C.3    77  ARG77       0.0348
     18  CG       -80.3660  -38.5030   -9.4460 C.3    77  ARG77       0.0492
     19  CD       -79.9090  -37.4770   -8.4110 C.3    77  ARG77       0.2205
     20  NE       -79.5340  -36.2400   -9.0830 N.pl3  77  ARG77      -0.0865
     21  CZ       -80.4110  -35.3590   -9.5590 C.cat  77  ARG77       0.5346
     22  NH1      -81.7170  -35.5710   -9.4170 N.pl3  77  ARG77       0.1354
     23  NH2      -79.9810  -34.2610  -10.1700 N.pl3  77  ARG77       0.1354
     24  N        -78.4710  -42.6110   -8.5560 N.am   78  GLY78      -0.1955
     25  CA       -78.1730  -43.7760   -7.7360 C.3    78  GLY78       0.1869
     26  C        -77.5000  -43.5860   -6.3760 C.2    78  GLY78       0.2309
     27  O        -77.0850  -44.5740   -5.7540 O.2    78  GLY78      -0.2863
     28  N        -74.7190  -43.1070   -5.5820 N.3    80  PHE80      -0.1227
     29  CA       -73.3070  -43.1020   -5.9220 C.3    80  PHE80       0.1736
     30  C        -73.0920  -42.2010   -7.1430 C.2    80  PHE80       0.2596
     31  O        -71.9720  -42.0200   -7.6120 O.2    80  PHE80      -0.2718
     32  CB       -72.7730  -44.5200   -6.1450 C.3    80  PHE80       0.0547
     33  CG       -72.1540  -45.1320   -4.9140 C.ar   80  PHE80      -0.0202
     34  CD1      -71.3090  -44.3900   -4.1020 C.ar   80  PHE80      -0.0042
     35  CD2      -72.4290  -46.4420   -4.5580 C.ar   80  PHE80      -0.0042
     36  CE1      -70.7400  -44.9500   -2.9660 C.ar   80  PHE80      -0.0003
     37  CE2      -71.8680  -47.0040   -3.4210 C.ar   80  PHE80      -0.0003
     38  CZ       -71.0220  -46.2550   -2.6250 C.ar   80  PHE80      -0.0000
     39  N        -74.1780  -41.6270   -7.6450 N.am   81  GLY81      -0.1942
     40  CA       -74.0890  -40.7360   -8.7790 C.3    81  GLY81       0.2014
     41  C        -75.3790  -40.6160   -9.5610 C.2    81  GLY81       0.2639
     42  O        -76.4750  -40.8030   -9.0250 O.2    81  GLY81      -0.2714
     43  N        -75.2520  -40.2760  -10.8390 N.am   82  GLU82      -0.1963
     44  CA       -76.4200  -40.0570  -11.6790 C.3    82  GLU82       0.1733
     45  C        -76.1580  -40.5420  -13.0770 C.2    82  GLU82       0.2616
     46  O        -75.0340  -40.8790  -13.4150 O.2    82  GLU82      -0.2715
     47  CB       -76.8290  -38.5810  -11.6980 C.3    82  GLU82       0.0429
     48  CG       -75.6920  -37.6180  -11.9850 C.3    82  GLU82       0.1163
     49  CD       -76.1220  -36.1570  -11.8790 C.2    82  GLU82       0.3649
     50  OE1      -76.5750  -35.7360  -10.7920 O.co2  82  GLU82      -0.2457
     51  OE2      -76.0080  -35.4310  -12.8900 O.co2  82  GLU82      -0.2457
     52  N        -77.2140  -40.6170  -13.8720 N.am   83  VAL83      -0.1977
     53  CA       -77.0710  -40.9100  -15.2740 C.3    83  VAL83       0.1596
     54  C        -77.6160  -39.7260  -16.0650 C.2    83  VAL83       0.2287
     55  O        -78.6750  -39.1920  -15.7520 O.2    83  VAL83      -0.2864
     56  CB       -77.7920  -42.2290  -15.6600 C.3    83  VAL83       0.0276
     57  CG1      -77.8170  -42.4000  -17.1760 C.3    83  VAL83       0.0022
     58  CG2      -77.0990  -43.4280  -15.0140 C.3    83  VAL83       0.0022
     59  N        -76.1330  -42.3850  -23.1210 N.3    96  ALA96      -0.1245
     60  CA       -76.4130  -42.2660  -21.6910 C.3    96  ALA96       0.1562
     61  C        -75.0670  -42.2540  -20.9680 C.2    96  ALA96       0.2260
     62  O        -74.1720  -43.0460  -21.2700 O.2    96  ALA96      -0.2867
     63  CB       -77.2910  -43.4080  -21.1960 C.3    96  ALA96       0.0290
     64  N        -73.1620  -42.3810  -17.2690 N.3    98  LYS98      -0.1245
     65  CA       -73.1800  -42.5600  -15.8390 C.3    98  LYS98       0.1561
     66  C        -71.9490  -41.9290  -15.1970 C.2    98  LYS98       0.2260
     67  O        -70.8130  -42.1300  -15.6600 O.2    98  LYS98      -0.2867
     68  CB       -73.2490  -44.0440  -15.4930 C.3    98  LYS98       0.0271
     69  CG       -73.2810  -44.3110  -14.0100 C.3    98  LYS98       0.0035
     70  CD       -73.4420  -45.7900  -13.7350 C.3    98  LYS98       0.0206
     71  CE       -74.8770  -46.2350  -13.9790 C.3    98  LYS98       0.1093
     72  NZ       -75.0760  -47.6610  -13.6090 N.3    98  LYS98      -0.1314
     73  N        -69.9460  -41.7170  -11.5310 N.3   100  LEU100     -0.1245
     74  CA       -69.7750  -42.3540  -10.2380 C.3   100  LEU100      0.1561
     75  C        -68.8310  -41.5130   -9.3890 C.2   100  LEU100      0.2260
     76  O        -67.6890  -41.2620   -9.7800 O.2   100  LEU100     -0.2867
     77  CB       -69.2630  -43.7990  -10.3820 C.3   100  LEU100      0.0270
     78  CG       -70.1960  -44.8730  -10.9880 C.3   100  LEU100      0.0019
     79  CD1      -69.5100  -46.2320  -11.1170 C.3   100  LEU100      0.0001
     80  CD2      -71.4950  -45.0370  -10.1900 C.3   100  LEU100      0.0001
     81  N        -66.7400  -52.2180   -7.3430 N.3   113  PHE113     -0.1241
     82  CA       -67.8560  -52.8290   -8.0920 C.3   113  PHE113      0.1605
     83  C        -67.8940  -52.3820   -9.5600 C.2   113  PHE113      0.2264
     84  O        -68.4430  -53.0720  -10.4240 O.2   113  PHE113     -0.2867
     85  CB       -69.1900  -52.4810   -7.4350 C.3   113  PHE113      0.0534
     86  CG       -69.4600  -51.0090   -7.4010 C.ar  113  PHE113     -0.0203
     87  CD1      -70.1000  -50.3870   -8.4570 C.ar  113  PHE113     -0.0042
     88  CD2      -69.0210  -50.2370   -6.3370 C.ar  113  PHE113     -0.0042
     89  CE1      -70.3350  -49.0170   -8.4480 C.ar  113  PHE113     -0.0003
     90  CE2      -69.2460  -48.8680   -6.3150 C.ar  113  PHE113     -0.0003
     91  CZ       -69.9050  -48.2540   -7.3750 C.ar  113  PHE113     -0.0000
     92  N        -76.8080  -53.5400  -22.3310 N.3   130  VAL130     -0.1245
     93  CA       -76.4420  -52.1960  -22.7660 C.3   130  VAL130      0.1561
     94  C        -74.9290  -52.1250  -23.0140 C.2   130  VAL130      0.2260
     95  O        -74.1200  -52.4610  -22.1420 O.2   130  VAL130     -0.2867
     96  CB       -76.8320  -51.1320  -21.7370 C.3   130  VAL130      0.0252
     97  CG1      -76.1930  -49.7830  -22.0980 C.3   130  VAL130      0.0019
     98  CG2      -78.3370  -51.0010  -21.6570 C.3   130  VAL130      0.0019
     99  N        -72.5690  -44.9940  -22.4570 N.3   146  MET146     -0.1230
    100  CA       -73.3230  -46.1770  -22.8500 C.3   146  MET146      0.1702
    101  C        -74.3330  -45.8040  -23.9150 C.2   146  MET146      0.2592
    102  O        -74.6950  -44.6320  -24.0500 O.2   146  MET146     -0.2718
    103  CB       -74.0910  -46.7140  -21.6390 C.3   146  MET146      0.0401
    104  CG       -73.1900  -47.0290  -20.4350 C.3   146  MET146      0.0596
    105  SD       -74.0920  -47.1400  -18.8630 S.3   146  MET146     -0.1393
    106  CE       -74.7890  -45.4870  -18.6540 C.3   146  MET146      0.0692
    107  N        -74.8050  -46.8000  -24.6530 N.am  147  GLU147     -0.1966
    108  CA       -75.8900  -46.5550  -25.5800 C.3   147  GLU147      0.1733
    109  C        -77.1060  -46.0390  -24.8280 C.2   147  GLU147      0.2616
    110  O        -77.3850  -46.4380  -23.6920 O.2   147  GLU147     -0.2715
    111  CB       -76.2290  -47.8030  -26.4300 C.3   147  GLU147      0.0429
    112  CG       -76.8300  -48.9910  -25.6810 C.3   147  GLU147      0.1163
    113  CD       -77.0130  -50.2210  -26.5870 C.2   147  GLU147      0.3649
    114  OE1      -76.4370  -51.2890  -26.2740 O.co2 147  GLU147     -0.2457
    115  OE2      -77.7300  -50.1240  -27.6150 O.co2 147  GLU147     -0.2457
    116  N        -77.8230  -45.1280  -25.4640 N.am  148  TYR148     -0.1960
    117  CA       -79.0250  -44.5800  -24.8720 C.3   148  TYR148      0.1771
    118  C        -80.2000  -45.4900  -25.2180 C.2   148  TYR148      0.2619
    119  O        -80.2940  -45.9900  -26.3320 O.2   148  TYR148     -0.2715
    120  CB       -79.2520  -43.1610  -25.3780 C.3   148  TYR148      0.0574
    121  CG       -80.5540  -42.5300  -24.9330 C.ar  148  TYR148     -0.0198
    122  CD1      -80.9320  -42.5460  -23.6030 C.ar  148  TYR148     -0.0009
    123  CD2      -81.3900  -41.8990  -25.8510 C.ar  148  TYR148     -0.0009
    124  CE1      -82.1040  -41.9640  -23.1900 C.ar  148  TYR148      0.0417
    125  CE2      -82.5650  -41.3090  -25.4520 C.ar  148  TYR148      0.0417
    126  CZ       -82.9180  -41.3410  -24.1210 C.ar  148  TYR148      0.1957
    127  OH       -84.0950  -40.7600  -23.7110 O.3   148  TYR148     -0.2866
    128  N        -81.0890  -45.6980  -24.2550 N.am  149  MET149     -0.1977
    129  CA       -82.2260  -46.5970  -24.4390 C.3   149  MET149      0.1605
    130  C        -83.4860  -45.7810  -24.3010 C.2   149  MET149      0.2287
    131  O        -84.0480  -45.6760  -23.2110 O.2   149  MET149     -0.2864
    132  CB       -82.1870  -47.6970  -23.3860 C.3   149  MET149      0.0413
    133  CG       -80.9250  -48.5630  -23.4440 C.3   149  MET149      0.0598
    134  SD       -81.0150  -49.8010  -24.7560 S.3   149  MET149     -0.1393
    135  CE       -80.5050  -48.8790  -26.2040 C.3   149  MET149      0.0692
    136  N        -86.6700  -51.4540  -12.8130 N.3   195  ASP195     -0.1239
    137  CA       -85.9230  -50.2100  -12.9770 C.3   195  ASP195      0.1674
    138  C        -84.6670  -50.4250  -13.8100 C.2   195  ASP195      0.2266
    139  O        -84.1680  -49.4950  -14.4330 O.2   195  ASP195     -0.2867
    140  CB       -85.5410  -49.6160  -11.6200 C.3   195  ASP195      0.1410
    141  CG       -86.6460  -49.7390  -10.5890 C.2   195  ASP195      0.3668
    142  OD1      -87.0440  -50.8840  -10.2720 O.co2 195  ASP195     -0.2456
    143  OD2      -87.1110  -48.6890  -10.0940 O.co2 195  ASP195     -0.2456
    144  N        -84.4070  -51.9620  -19.5700 N.3   198  LEU198     -0.1245
    145  CA       -84.5820  -50.8270  -20.4720 C.3   198  LEU198      0.1561
    146  C        -85.0100  -51.2830  -21.8540 C.2   198  LEU198      0.2260
    147  O        -84.6720  -52.3800  -22.3100 O.2   198  LEU198     -0.2867
    148  CB       -83.2870  -49.9990  -20.5710 C.3   198  LEU198      0.0270
    149  CG       -82.7630  -49.5090  -19.2150 C.3   198  LEU198      0.0019
    150  CD1      -81.4090  -48.8030  -19.3580 C.3   198  LEU198      0.0001
    151  CD2      -83.7850  -48.6090  -18.5100 C.3   198  LEU198      0.0001
    152  N        -79.4090  -53.2440  -17.7610 N.3   208  ALA208     -0.1231
    153  CA       -78.4240  -52.2410  -17.3820 C.3   208  ALA208      0.1694
    154  C        -78.1590  -52.3300  -15.8710 C.2   208  ALA208      0.2592
    155  O        -78.7750  -53.1560  -15.1800 O.2   208  ALA208     -0.2718
    156  CB       -78.9180  -50.8550  -17.7650 C.3   208  ALA208      0.0304
    157  N        -77.2460  -51.4840  -15.3840 N.am  209  ASP209     -0.1974
    158  CA       -76.9000  -51.3610  -13.9590 C.3   209  ASP209      0.1709
    159  C        -76.3240  -52.6350  -13.2980 C.2   209  ASP209      0.2293
    160  O        -76.9510  -53.2830  -12.4460 O.2   209  ASP209     -0.2864
    161  CB       -78.0640  -50.7580  -13.1520 C.3   209  ASP209      0.1436
    162  CG       -78.3020  -49.2800  -13.4780 C.2   209  ASP209      0.3671
    163  OD1      -79.1910  -48.6670  -12.8440 O.co2 209  ASP209     -0.2456
    164  OD2      -77.6090  -48.7280  -14.3710 O.co2 209  ASP209     -0.2456
    165  N        -88.6940  -41.0730  -19.5120 N.3   361  PHE361     -0.1241
    166  CA       -87.9600  -40.9620  -18.2600 C.3   361  PHE361      0.1605
    167  C        -88.5490  -39.8820  -17.3510 C.2   361  PHE361      0.2264
    168  O        -88.8470  -38.7790  -17.8000 O.2   361  PHE361     -0.2867
    169  CB       -86.4930  -40.6460  -18.5590 C.3   361  PHE361      0.0534
    170  CG       -85.7710  -41.7550  -19.2670 C.ar  361  PHE361     -0.0203
    171  CD1      -85.0950  -42.7280  -18.5460 C.ar  361  PHE361     -0.0042
    172  CD2      -85.7880  -41.8380  -20.6470 C.ar  361  PHE361     -0.0042
    173  CE1      -84.4280  -43.7520  -19.1940 C.ar  361  PHE361     -0.0003
    174  CE2      -85.1340  -42.8540  -21.3050 C.ar  361  PHE361     -0.0003
    175  CZ       -84.4480  -43.8180  -20.5850 C.ar  361  PHE361     -0.0000
@<TRIPOS>BOND
     1   115   113   ar
     2   113   114   ar
     3   113   112    1
     4   111   112    1
     5   111   108    1
     6   119   118    2
     7   135   134    1
     8   123   125   ar
     9   123   121   ar
    10   108   109    1
    11   108   107    1
    12   116   117    1
    13   116   109   am
    14   125   126   ar
    15   120   121    1
    16   120   117    1
    17   118   117    1
    18   118   128   am
    19   121   122   ar
    20   109   110    2
    21   134   133    1
    22   107   101   am
    23   129   130    1
    24   129   128    1
    25   129   132    1
    26   130   131    2
    27   126   127    1
    28   126   124   ar
    29   102   101    2
    30   101   100    1
    31   122   124   ar
    32   133   132    1
    33    59    60    1
    34    94    93    1
    35    94    95    2
    36   100    99    1
    37   100   103    1
    38    93    92    1
    39    93    96    1
    40   147   146    2
    41    97    96    1
    42   146   145    1
    43    96    98    1
    44    60    63    1
    45    60    61    1
    46   103   104    1
    47   174   172   ar
    48   174   175   ar
    49    62    61    2
    50   172   170   ar
    51   175   173   ar
    52   148   145    1
    53   148   149    1
    54   145   144    1
    55   104   105    1
    56   165   166    1
    57   150   149    1
    58     8     6    1
    59   170   169    1
    60   170   171   ar
    61   149   151    1
    62   173   171   ar
    63     7     5    1
    64   105   106    1
    65   169   166    1
    66   166   167    1
    67     6     5    1
    68   168   167    2
    69     5     2    1
    70   156   153    1
    71   152   153    1
    72   153   154    1
    73    64    65    1
    74    57    56    1
    75     2     1    1
    76     2     3    1
    77    54    55    2
    78    54    53    1
    79   154   157   am
    80   154   155    2
    81    65    68    1
    82    65    66    1
    83    67    66    2
    84    56    53    1
    85    56    58    1
    86    68    69    1
    87   157   158    1
    88     3     4    2
    89     3     9   am
    90    53    52    1
    91   139   138    2
    92   164   162   ar
    93     9    10    1
    94    69    70    1
    95    71    70    1
    96    71    72    1
    97   158   159    1
    98   158   161    1
    99    52    45   am
   100   138   137    1
   101   162   161    1
   102   162   163   ar
   103    46    45    2
   104   159   160    2
   105    10    11    1
   106    45    44    1
   107   137   136    1
   108   137   140    1
   109    51    49   ar
   110    12    11    2
   111    11    13   am
   112    48    49    1
   113    48    47    1
   114    49    50   ar
   115    47    44    1
   116    44    43    1
   117   140   141    1
   118    73    74    1
   119    79    78    1
   120    78    77    1
   121    78    80    1
   122    13    14    1
   123    43    41   am
   124   141   142   ar
   125   141   143   ar
   126    84    83    2
   127    77    74    1
   128    74    75    1
   129    23    21    1
   130    76    75    2
   131    14    17    1
   132    14    15    1
   133    41    42    2
   134    41    40    1
   135    83    82    1
   136    21    22    1
   137    21    20    2
   138    18    17    1
   139    18    19    1
   140    20    19    1
   141    15    24   am
   142    15    16    2
   143    40    39    1
   144    24    25    1
   145    87    89   ar
   146    87    86   ar
   147    89    91   ar
   148    82    85    1
   149    82    81    1
   150    25    26    1
   151    39    30   am
   152    31    30    2
   153    85    86    1
   154    86    88   ar
   155    91    90   ar
   156    30    29    1
   157    26    27    2
   158    88    90   ar
   159    32    29    1
   160    32    33    1
   161    29    28    1
   162    33    35   ar
   163    33    34   ar
   164    35    37   ar
   165    34    36   ar
   166    37    38   ar
   167    36    38   ar
