@<TRIPOS>MOLECULE
tmp/3v8tA00.pdb
 158 152 0 0 0
SMALL
GASTEIGER

@<TRIPOS>ATOM
      1  N        -50.2210  -23.2040   28.5600 N.3    15  ILE15      -0.1231
      2  CA       -51.0730  -22.3080   29.3560 C.3    15  ILE15       0.1692
      3  C        -52.5450  -22.2860   28.9130 C.2    15  ILE15       0.2592
      4  O        -53.3900  -21.7140   29.6070 O.2    15  ILE15      -0.2718
      5  CB       -50.4450  -20.8850   29.4700 C.3    15  ILE15       0.0266
      6  CG1      -50.2420  -20.2370   28.0670 C.3    15  ILE15       0.0019
      7  CG2      -49.1340  -20.9370   30.2870 C.3    15  ILE15       0.0020
      8  CD1      -49.7530  -18.7680   28.0340 C.3    15  ILE15       0.0001
      9  N        -52.8270  -22.9050   27.7700 N.am   16  GLY16      -0.1957
     10  CA       -54.1680  -22.9820   27.2020 C.3    16  GLY16       0.1869
     11  C        -54.3300  -24.0940   26.1880 C.2    16  GLY16       0.2309
     12  O        -53.3510  -24.5200   25.5680 O.2    16  GLY16      -0.2863
     13  N        -52.0340  -23.2760   23.4690 N.3    20  VAL20      -0.1245
     14  CA       -51.3480  -22.0070   23.7320 C.3    20  VAL20       0.1561
     15  C        -50.2060  -22.2810   24.7140 C.2    20  VAL20       0.2260
     16  O        -50.4310  -22.8600   25.7790 O.2    20  VAL20      -0.2867
     17  CB       -52.3050  -20.8770   24.2140 C.3    20  VAL20       0.0252
     18  CG1      -51.5400  -19.5920   24.5310 C.3    20  VAL20       0.0019
     19  CG2      -53.3950  -20.5980   23.1800 C.3    20  VAL20       0.0019
     20  N        -46.6740  -20.6310   26.7620 N.3    22  LEU22      -0.1245
     21  CA       -45.8790  -19.4950   27.2010 C.3    22  LEU22       0.1561
     22  C        -44.4830  -19.8280   26.6750 C.2    22  LEU22       0.2260
     23  O        -44.0340  -20.9720   26.8000 O.2    22  LEU22      -0.2867
     24  CB       -45.8700  -19.3660   28.7400 C.3    22  LEU22       0.0270
     25  CG       -44.7470  -18.5160   29.3750 C.3    22  LEU22       0.0019
     26  CD1      -44.8910  -17.0380   29.0310 C.3    22  LEU22       0.0001
     27  CD2      -44.7170  -18.6930   30.8710 C.3    22  LEU22       0.0001
     28  N        -46.7390  -15.7580   23.4850 N.3    32  ALA32      -0.1245
     29  CA       -47.7920  -16.7590   23.5940 C.3    32  ALA32       0.1562
     30  C        -47.8190  -17.4380   22.2320 C.2    32  ALA32       0.2260
     31  O        -48.1640  -16.8090   21.2270 O.2    32  ALA32      -0.2867
     32  CB       -49.1280  -16.1100   23.8990 C.3    32  ALA32       0.0290
     33  N        -49.2700  -20.0630   19.7370 N.3    34  LYS34      -0.1245
     34  CA       -50.5050  -20.7870   19.4520 C.3    34  LYS34       0.1561
     35  C        -50.2610  -21.8510   18.3830 C.2    34  LYS34       0.2260
     36  O        -50.1700  -21.5200   17.2010 O.2    34  LYS34      -0.2867
     37  CB       -51.6250  -19.8140   19.0340 C.3    34  LYS34       0.0271
     38  CG       -53.0110  -20.4520   18.9710 C.3    34  LYS34       0.0035
     39  CD       -54.0440  -19.4900   18.4100 C.3    34  LYS34       0.0206
     40  CE       -55.4050  -20.1300   18.3080 C.3    34  LYS34       0.1093
     41  NZ       -56.4020  -19.2060   17.7070 N.3    34  LYS34      -0.1314
     42  N        -54.9550   -7.4610   19.8500 N.3    62  VAL62      -0.1245
     43  CA       -53.7430   -8.2510   20.0730 C.3    62  VAL62       0.1561
     44  C        -52.7740   -8.1800   18.8730 C.2    62  VAL62       0.2260
     45  O        -53.2100   -8.0660   17.7210 O.2    62  VAL62      -0.2867
     46  CB       -54.0440   -9.6970   20.5650 C.3    62  VAL62       0.0252
     47  CG1      -54.5170  -10.6030   19.4280 C.3    62  VAL62       0.0019
     48  CG2      -52.8440  -10.3020   21.2940 C.3    62  VAL62       0.0019
     49  N        -47.6860  -14.7360   19.1860 N.3    78  PHE78      -0.1227
     50  CA       -48.3720  -13.5500   19.7050 C.3    78  PHE78       0.1736
     51  C        -47.5900  -12.8940   20.8230 C.2    78  PHE78       0.2595
     52  O        -46.7840  -13.5480   21.4870 O.2    78  PHE78      -0.2718
     53  CB       -49.7510  -13.9360   20.2700 C.3    78  PHE78       0.0547
     54  CG       -50.8050  -14.3550   19.2760 C.ar   78  PHE78      -0.0202
     55  CD1      -50.9680  -15.6920   18.9340 C.ar   78  PHE78      -0.0042
     56  CD2      -51.6910  -13.4260   18.7450 C.ar   78  PHE78      -0.0042
     57  CE1      -51.9720  -16.0860   18.0450 C.ar   78  PHE78      -0.0003
     58  CE2      -52.6940  -13.8210   17.8540 C.ar   78  PHE78      -0.0003
     59  CZ       -52.8210  -15.1470   17.5020 C.ar   78  PHE78      -0.0000
     60  N        -47.8930  -11.6070   21.0890 N.am   79  GLU79      -0.1965
     61  CA       -47.3490  -10.8940   22.2390 C.3    79  GLU79       0.1733
     62  C        -47.9730  -11.5760   23.4700 C.2    79  GLU79       0.2616
     63  O        -49.0960  -12.0830   23.3820 O.2    79  GLU79      -0.2715
     64  CB       -47.7330   -9.4010   22.1990 C.3    79  GLU79       0.0429
     65  CG       -49.2320   -9.1240   22.2420 C.3    79  GLU79       0.1163
     66  CD       -49.6440   -7.6740   22.3890 C.2    79  GLU79       0.3649
     67  OE1      -48.9790   -6.9310   23.1450 O.co2  79  GLU79      -0.2457
     68  OE2      -50.6670   -7.2940   21.7780 O.co2  79  GLU79      -0.2457
     69  N        -47.2410  -11.6420   24.5790 N.am   80  PHE80      -0.1960
     70  CA       -47.7640  -12.2850   25.7750 C.3    80  PHE80       0.1771
     71  C        -48.6160  -11.3180   26.5870 C.2    80  PHE80       0.2619
     72  O        -48.1620  -10.2200   26.9160 O.2    80  PHE80      -0.2715
     73  CB       -46.6320  -12.8900   26.6270 C.3    80  PHE80       0.0574
     74  CG       -47.1190  -13.5880   27.8770 C.ar   80  PHE80      -0.0200
     75  CD1      -47.7560  -14.8220   27.8010 C.ar   80  PHE80      -0.0042
     76  CD2      -46.9450  -13.0100   29.1280 C.ar   80  PHE80      -0.0042
     77  CE1      -48.2220  -15.4570   28.9550 C.ar   80  PHE80      -0.0003
     78  CE2      -47.4000  -13.6530   30.2810 C.ar   80  PHE80      -0.0003
     79  CZ       -48.0350  -14.8710   30.1860 C.ar   80  PHE80      -0.0000
     80  N        -49.8530  -11.7320   26.9030 N.am   81  MET81      -0.1963
     81  CA       -50.7830  -10.9490   27.7180 C.3    81  MET81       0.1736
     82  C        -50.7810  -11.5660   29.1120 C.2    81  MET81       0.2616
     83  O        -51.2000  -12.7140   29.2810 O.2    81  MET81      -0.2715
     84  CB       -52.1860  -10.9040   27.0870 C.3    81  MET81       0.0427
     85  CG       -52.2230  -10.2030   25.7280 C.3    81  MET81       0.0599
     86  SD       -51.9130   -8.4190   25.8010 S.3    81  MET81      -0.1393
     87  CE       -53.5250   -7.8400   26.2670 C.3    81  MET81       0.0692
     88  N        -50.2330  -10.8190   30.0900 N.am   82  GLU82      -0.1963
     89  CA       -50.0150  -11.2340   31.4820 C.3    82  GLU82       0.1733
     90  C        -51.1620  -11.9080   32.2310 C.2    82  GLU82       0.2616
     91  O        -50.9010  -12.8060   33.0330 O.2    82  GLU82      -0.2715
     92  CB       -49.4200  -10.0860   32.3200 C.3    82  GLU82       0.0429
     93  CG       -47.9650   -9.7660   31.9990 C.3    82  GLU82       0.1163
     94  CD       -46.9070  -10.7060   32.5470 C.2    82  GLU82       0.3649
     95  OE1      -47.0270  -11.1330   33.7180 O.co2  82  GLU82      -0.2457
     96  OE2      -45.9160  -10.9580   31.8240 O.co2  82  GLU82      -0.2457
     97  N        -52.4150  -11.4800   32.0010 N.am   83  HIS83      -0.1959
     98  CA       -53.5460  -12.0460   32.7400 C.3    83  HIS83       0.1787
     99  C        -54.4670  -13.0240   31.9900 C.2    83  HIS83       0.2621
    100  O        -55.5410  -13.3610   32.4920 O.2    83  HIS83      -0.2715
    101  CB       -54.3200  -10.9480   33.4820 C.3    83  HIS83       0.0785
    102  CG       -53.4870  -10.1720   34.4530 C.ar   83  HIS83       0.0821
    103  ND1      -53.0790  -10.7220   35.6560 N.ar   83  HIS83      -0.2267
    104  CD2      -53.0190   -8.9050   34.3690 C.ar   83  HIS83       0.1154
    105  CE1      -52.3720   -9.7790   36.2590 C.ar   83  HIS83       0.1986
    106  NE2      -52.3130   -8.6670   35.5240 N.ar   83  HIS83      -0.2212
    107  N        -54.0190  -13.5020   30.8300 N.am   84  GLY84      -0.1940
    108  CA       -54.7510  -14.4740   30.0230 C.3    84  GLY84       0.2014
    109  C        -56.0820  -14.0060   29.4750 C.2    84  GLY84       0.2639
    110  O        -56.3170  -12.7970   29.3590 O.2    84  GLY84      -0.2714
    111  N        -56.9640  -14.9770   29.1400 N.am   85  CYS85      -0.1967
    112  CA       -58.2670  -14.6420   28.5820 C.3    85  CYS85       0.1712
    113  C        -59.2070  -14.0240   29.6040 C.2    85  CYS85       0.2296
    114  O        -59.1800  -14.3780   30.7860 O.2    85  CYS85      -0.2864
    115  CB       -58.9000  -15.8070   27.8250 C.3    85  CYS85       0.0983
    116  SG       -59.4940  -17.1530   28.8760 S.3    85  CYS85      -0.0798
    117  N        -61.7000  -16.2220   31.9330 N.3    88  ASP88      -0.1225
    118  CA       -61.0320  -16.8150   33.0950 C.3    88  ASP88       0.1805
    119  C        -60.6740  -15.7690   34.1510 C.2    88  ASP88       0.2597
    120  O        -60.9100  -16.0120   35.3330 O.2    88  ASP88      -0.2718
    121  CB       -59.7890  -17.6170   32.6760 C.3    88  ASP88       0.1424
    122  CG       -60.0710  -18.8570   31.8450 C.2    88  ASP88       0.3668
    123  OD1      -59.1240  -19.3760   31.2200 O.co2  88  ASP88      -0.2456
    124  OD2      -61.2380  -19.3080   31.8200 O.co2  88  ASP88      -0.2456
    125  N        -60.1350  -14.6040   33.7270 N.am   89  TYR89      -0.1976
    126  CA       -59.7500  -13.5030   34.6210 C.3    89  TYR89       0.1639
    127  C        -60.9220  -12.9450   35.4360 C.2    89  TYR89       0.2290
    128  O        -60.7420  -12.6200   36.6130 O.2    89  TYR89      -0.2864
    129  CB       -59.0440  -12.3790   33.8420 C.3    89  TYR89       0.0560
    130  CG       -58.4640  -11.2890   34.7190 C.ar   89  TYR89      -0.0198
    131  CD1      -57.3060  -11.5060   35.4630 C.ar   89  TYR89      -0.0009
    132  CD2      -59.0480  -10.0270   34.7750 C.ar   89  TYR89      -0.0009
    133  CE1      -56.7570  -10.5000   36.2580 C.ar   89  TYR89       0.0417
    134  CE2      -58.5090   -9.0140   35.5690 C.ar   89  TYR89       0.0417
    135  CZ       -57.3620   -9.2550   36.3080 C.ar   89  TYR89       0.1957
    136  OH       -56.8240   -8.2610   37.0890 O.3    89  TYR89      -0.2866
    137  N        -58.2680  -10.7000   25.6690 N.3   132  LEU132     -0.1245
    138  CA       -57.1230  -10.9210   26.5530 C.3   132  LEU132      0.1561
    139  C        -56.8920   -9.7740   27.5210 C.2   132  LEU132      0.2260
    140  O        -57.2290   -8.6320   27.2130 O.2   132  LEU132     -0.2867
    141  CB       -55.8550  -11.1970   25.7310 C.3   132  LEU132      0.0270
    142  CG       -55.8880  -12.4430   24.8440 C.3   132  LEU132      0.0019
    143  CD1      -54.9010  -12.3140   23.7160 C.3   132  LEU132      0.0001
    144  CD2      -55.6390  -13.7180   25.6520 C.3   132  LEU132      0.0001
    145  N        -58.9270  -10.5230   20.6330 N.3   142  SER142     -0.1202
    146  CA       -58.0800  -11.5240   19.9790 C.3   142  SER142      0.2020
    147  C        -58.8720  -12.3150   18.9320 C.2   142  SER142      0.2618
    148  O        -60.1010  -12.2220   18.9040 O.2   142  SER142     -0.2717
    149  CB       -57.4780  -12.4680   21.0160 C.3   142  SER142      0.2103
    150  OG       -56.5030  -13.3200   20.4360 O.3   142  SER142     -0.2182
    151  N        -58.1600  -13.0910   18.0760 N.am  143  ASP143     -0.1973
    152  CA       -58.7160  -13.9500   17.0140 C.3   143  ASP143      0.1709
    153  C        -59.7450  -13.2200   16.1300 C.2   143  ASP143      0.2293
    154  O        -60.8580  -13.7100   15.9140 O.2   143  ASP143     -0.2864
    155  CB       -59.2770  -15.2640   17.6050 C.3   143  ASP143      0.1436
    156  CG       -58.3110  -16.0220   18.5010 C.2   143  ASP143      0.3671
    157  OD1      -58.6900  -16.3350   19.6480 O.co2 143  ASP143     -0.2456
    158  OD2      -57.1740  -16.3010   18.0530 O.co2 143  ASP143     -0.2456
@<TRIPOS>BOND
     1   154   153    2
     2   153   152    1
     3   152   155    1
     4   152   151    1
     5    36    35    2
     6    59    58   ar
     7    59    57   ar
     8   155   156    1
     9    41    40    1
    10    45    44    2
    11    58    56   ar
    12    57    55   ar
    13   158   156   ar
    14   151   147   am
    15    40    39    1
    16    35    34    1
    17    39    38    1
    18   156   157   ar
    19    56    54   ar
    20    44    43    1
    21   148   147    2
    22   147   146    1
    23    55    54   ar
    24    38    37    1
    25    37    34    1
    26    49    50    1
    27    54    53    1
    28    47    46    1
    29    34    33    1
    30    50    53    1
    31    50    51    1
    32    42    43    1
    33   146   145    1
    34   146   149    1
    35    43    46    1
    36   150   149    1
    37    46    48    1
    38    51    60   am
    39    51    52    2
    40    60    61    1
    41    31    30    2
    42    68    66   ar
    43    64    61    1
    44    64    65    1
    45    30    29    1
    46    61    62    1
    47    65    66    1
    48    66    67   ar
    49    19    17    1
    50    63    62    2
    51    13    14    1
    52    62    69   am
    53    28    29    1
    54    29    32    1
    55   143   142    1
    56    14    17    1
    57    14    15    1
    58    17    18    1
    59    69    70    1
    60    15    16    2
    61   142   144    1
    62   142   141    1
    63    12    11    2
    64   137   138    1
    65    85    86    1
    66    85    84    1
    67   141   138    1
    68    70    71    1
    69    70    73    1
    70    86    87    1
    71    11    10    1
    72   138   139    1
    73    71    80   am
    74    71    72    2
    75    73    74    1
    76    22    23    2
    77    22    21    1
    78    20    21    1
    79    80    81    1
    80    84    81    1
    81    21    24    1
    82    10     9    1
    83   140   139    2
    84    81    82    1
    85     9     3   am
    86    75    74   ar
    87    75    77   ar
    88   115   112    1
    89   115   116    1
    90    74    76   ar
    91     8     6    1
    92     6     5    1
    93     1     2    1
    94   112   111    1
    95   112   113    1
    96    24    25    1
    97     3     2    1
    98     3     4    2
    99    77    79   ar
   100    26    25    1
   101    82    83    2
   102    82    88   am
   103    76    78   ar
   104   111   109   am
   105     2     5    1
   106   110   109    2
   107    25    27    1
   108     5     7    1
   109   109   108    1
   110   113   114    2
   111   108   107    1
   112    88    89    1
   113    79    78   ar
   114   107    99   am
   115   123   122   ar
   116    89    90    1
   117    89    92    1
   118   124   122   ar
   119    96    94   ar
   120   122   121    1
   121   117   118    1
   122    99   100    2
   123    99    98    1
   124    93    92    1
   125    93    94    1
   126    97    90   am
   127    97    98    1
   128    90    91    2
   129    94    95   ar
   130   121   118    1
   131    98   101    1
   132   118   119    1
   133   101   102    1
   134   125   119   am
   135   125   126    1
   136   129   126    1
   137   129   130    1
   138   119   120    2
   139   104   102   ar
   140   104   106   ar
   141   102   103   ar
   142   126   127    1
   143   130   132   ar
   144   130   131   ar
   145   132   134   ar
   146   127   128    2
   147   131   133   ar
   148   106   105   ar
   149   134   135   ar
   150   103   105   ar
   151   133   135   ar
   152   135   136    1
