@<TRIPOS>MOLECULE
tmp/3v8tB00.pdb
 138 132 0 0 0
SMALL
GASTEIGER

@<TRIPOS>ATOM
      1  N        -45.7180   18.0340   26.6990 N.3    15  ILE15      -0.1231
      2  CA       -44.6080   17.1420   27.0620 C.3    15  ILE15       0.1692
      3  C        -43.4450   17.1320   26.0630 C.2    15  ILE15       0.2592
      4  O        -42.3480   16.6880   26.4080 O.2    15  ILE15      -0.2718
      5  CB       -45.1180   15.7130   27.4140 C.3    15  ILE15       0.0266
      6  CG1      -45.9220   15.0890   26.2370 C.3    15  ILE15       0.0019
      7  CG2      -45.9180   15.7310   28.7330 C.3    15  ILE15       0.0020
      8  CD1      -46.4060   13.6480   26.4120 C.3    15  ILE15       0.0001
      9  N        -43.6980   17.6160   24.8490 N.am   16  GLY16      -0.1957
     10  CA       -42.7090   17.6840   23.7800 C.3    16  GLY16       0.1869
     11  C        -43.0060   18.7530   22.7480 C.2    16  GLY16       0.2309
     12  O        -44.1680   19.1200   22.5490 O.2    16  GLY16      -0.2863
     13  N        -46.3180   18.0240   21.2320 N.3    21  VAL21      -0.1245
     14  CA       -46.8030   16.7740   21.8270 C.3    21  VAL21       0.1561
     15  C        -47.4000   17.0890   23.2040 C.2    21  VAL21       0.2260
     16  O        -46.7560   17.7470   24.0250 O.2    21  VAL21      -0.2867
     17  CB       -45.7220   15.6550   21.8800 C.3    21  VAL21       0.0252
     18  CG1      -46.2760   14.3720   22.4990 C.3    21  VAL21       0.0019
     19  CG2      -45.1560   15.3660   20.4910 C.3    21  VAL21       0.0019
     20  N        -49.6840   15.4680   26.6700 N.3    23  LEU23      -0.1245
     21  CA       -50.2070   14.3470   27.4390 C.3    23  LEU23       0.1561
     22  C        -51.6940   14.6670   27.5670 C.2    23  LEU23       0.2260
     23  O        -52.0520   15.8120   27.8530 O.2    23  LEU23      -0.2867
     24  CB       -49.5490   14.2530   28.8370 C.3    23  LEU23       0.0270
     25  CG       -50.2810   13.4160   29.9170 C.3    23  LEU23       0.0019
     26  CD1      -50.2470   11.9300   29.6050 C.3    23  LEU23       0.0001
     27  CD2      -49.6880   13.6540   31.2840 C.3    23  LEU23       0.0001
     28  N        -51.0880   10.4620   23.8510 N.3    33  ALA33      -0.1245
     29  CA       -50.0830   11.4430   23.4670 C.3    33  ALA33       0.1562
     30  C        -50.6180   12.0890   22.1940 C.2    33  ALA33       0.2260
     31  O        -50.7170   11.4320   21.1520 O.2    33  ALA33      -0.2867
     32  CB       -48.7490   10.7740   23.2160 C.3    33  ALA33       0.0290
     33  N        -50.3790   14.6310   19.2020 N.3    35  LYS35      -0.1245
     34  CA       -49.3880   15.3190   18.3780 C.3    35  LYS35       0.1561
     35  C        -50.0760   16.3110   17.4340 C.2    35  LYS35       0.2260
     36  O        -50.7060   15.8970   16.4620 O.2    35  LYS35      -0.2867
     37  CB       -48.5120   14.3100   17.6090 C.3    35  LYS35       0.0271
     38  CG       -47.2810   14.9320   16.9530 C.3    35  LYS35       0.0035
     39  CD       -46.5090   13.9190   16.1270 C.3    35  LYS35       0.0206
     40  CE       -45.3330   14.5490   15.4240 C.3    35  LYS35       0.1093
     41  NZ       -44.6550   13.5870   14.5160 N.3    35  LYS35      -0.1314
     42  N        -45.0380    1.9520   17.3960 N.3    60  VAL60      -0.1245
     43  CA       -46.0380    2.7680   18.0930 C.3    60  VAL60       0.1561
     44  C        -47.4240    2.6740   17.4320 C.2    60  VAL60       0.2260
     45  O        -47.5230    2.5260   16.2110 O.2    60  VAL60      -0.2867
     46  CB       -45.5600    4.2290   18.3440 C.3    60  VAL60       0.0252
     47  CG1      -45.7240    5.1070   17.1050 C.3    60  VAL60       0.0019
     48  CG2      -46.2670    4.8460   19.5490 C.3    60  VAL60       0.0019
     49  N        -52.0450    9.2670   19.5910 N.3    76  PHE76      -0.1227
     50  CA       -51.1820    8.1040   19.7950 C.3    76  PHE76       0.1736
     51  C        -51.3900    7.4980   21.1690 C.2    76  PHE76       0.2598
     52  O        -51.8440    8.1820   22.0890 O.2    76  PHE76      -0.2717
     53  CB       -49.7050    8.5210   19.7010 C.3    76  PHE76       0.0547
     54  CG       -49.1760    8.8770   18.3360 C.ar   76  PHE76      -0.0202
     55  CD1      -49.2050   10.1900   17.8820 C.ar   76  PHE76      -0.0042
     56  CD2      -48.5710    7.9150   17.5360 C.ar   76  PHE76      -0.0042
     57  CE1      -48.6730   10.5280   16.6350 C.ar   76  PHE76      -0.0003
     58  CE2      -48.0470    8.2530   16.2840 C.ar   76  PHE76      -0.0003
     59  CZ       -48.1040    9.5560   15.8410 C.ar   76  PHE76      -0.0000
     60  N        -50.9670    6.2310   21.3300 N.am   77  GLU77      -0.1920
     61  CA       -50.9550    5.5590   22.6250 C.3    77  GLU77       0.1949
     62  C        -49.8900    6.2830   23.4630 C.2    77  GLU77       0.2659
     63  O        -48.9240    6.8150   22.8950 O.2    77  GLU77      -0.2711
     64  CB       -50.6080    4.0610   22.4710 C.2    77  GLU77       0.0111
     65  CG       -49.2230    3.7680   21.9000 C.2    77  GLU77       0.0838
     66  CD       -48.7730    2.3210   21.9420 C.2    77  GLU77       0.3877
     67  OE1      -49.0830    1.6260   22.9350 O.co2  77  GLU77      -0.2406
     68  OE2      -48.0690    1.8950   20.9990 O.co2  77  GLU77      -0.2406
     69  N        -50.0840    6.3580   24.7830 N.am   78  PHE78      -0.1957
     70  CA       -49.1170    7.0380   25.6310 C.3    78  PHE78       0.1771
     71  C        -47.9980    6.1040   26.0820 C.2    78  PHE78       0.2619
     72  O        -48.2610    5.0650   26.6900 O.2    78  PHE78      -0.2715
     73  CB       -49.7870    7.7530   26.8210 C.3    78  PHE78       0.0574
     74  CG       -48.7990    8.5330   27.6580 C.ar   78  PHE78      -0.0200
     75  CD1      -48.3120    9.7610   27.2240 C.ar   78  PHE78      -0.0042
     76  CD2      -48.3180    8.0180   28.8550 C.ar   78  PHE78      -0.0042
     77  CE1      -47.3640   10.4610   27.9780 C.ar   78  PHE78      -0.0003
     78  CE2      -47.3700    8.7180   29.6050 C.ar   78  PHE78      -0.0003
     79  CZ       -46.9090    9.9390   29.1680 C.ar   78  PHE78      -0.0000
     80  N        -46.7490    6.4950   25.7900 N.am   79  MET79      -0.1963
     81  CA       -45.5490    5.7450   26.1600 C.3    79  MET79       0.1736
     82  C        -44.9620    6.4070   27.4020 C.2    79  MET79       0.2616
     83  O        -44.5130    7.5520   27.3430 O.2    79  MET79      -0.2715
     84  CB       -44.5520    5.6830   24.9870 C.3    79  MET79       0.0427
     85  CG       -45.0990    4.9490   23.7600 C.3    79  MET79       0.0599
     86  SD       -45.2990    3.1640   23.9980 S.3    79  MET79      -0.1393
     87  CE       -43.5980    2.6370   23.8640 C.3    79  MET79       0.0692
     88  N        -45.0410    5.6940   28.5390 N.am   80  GLU80      -0.1963
     89  CA       -44.6670    6.1360   29.8900 C.3    80  GLU80       0.1733
     90  C        -43.3150    6.8140   30.0890 C.2    80  GLU80       0.2616
     91  O        -43.2150    7.7100   30.9290 O.2    80  GLU80      -0.2715
     92  CB       -44.8640    5.0040   30.9180 C.3    80  GLU80       0.0429
     93  CG       -46.3210    4.6590   31.1910 C.3    80  GLU80       0.1163
     94  CD       -47.1110    5.6610   32.0130 C.2    80  GLU80       0.3649
     95  OE1      -46.6010    6.1110   33.0650 O.co2  80  GLU80      -0.2457
     96  OE2      -48.2620    5.9640   31.6240 O.co2  80  GLU80      -0.2457
     97  N        -42.2790    6.3890   29.3510 N.am   81  HIS81      -0.1959
     98  CA       -40.9380    6.9440   29.5240 C.3    81  HIS81       0.1787
     99  C        -40.4110    7.8790   28.4230 C.2    81  HIS81       0.2621
    100  O        -39.2240    8.2080   28.4170 O.2    81  HIS81      -0.2715
    101  CB       -39.9370    5.8470   29.9160 C.3    81  HIS81       0.0785
    102  CG       -40.2500    5.2030   31.2290 C.ar   81  HIS81       0.0821
    103  ND1      -39.9240    5.8130   32.4260 N.ar   81  HIS81      -0.2267
    104  CD2      -40.8660    4.0270   31.4900 C.ar   81  HIS81       0.1154
    105  CE1      -40.3420    4.9900   33.3740 C.ar   81  HIS81       0.1986
    106  NE2      -40.9170    3.9030   32.8580 N.ar   81  HIS81      -0.2212
    107  N        -41.3020    8.3320   27.5420 N.am   82  GLY82      -0.1940
    108  CA       -40.9760    9.2710   26.4730 C.3    82  GLY82       0.2014
    109  C        -40.0010    8.7830   25.4250 C.2    82  GLY82       0.2639
    110  O        -39.8490    7.5720   25.2280 O.2    82  GLY82      -0.2714
    111  N        -39.3340    9.7440   24.7480 N.am   83  CYS83      -0.1967
    112  CA       -38.3570    9.4760   23.6910 C.3    83  CYS83       0.1712
    113  C        -37.1090    8.7730   24.2260 C.2    83  CYS83       0.2296
    114  O        -36.6340    9.1240   25.3090 O.2    83  CYS83      -0.2864
    115  CB       -38.0060   10.7580   22.9430 C.3    83  CYS83       0.0983
    116  SG       -39.4330   11.6050   22.2130 S.3    83  CYS83      -0.0798
    117  N        -39.6380    5.4000   21.1850 N.3   130  LEU130     -0.1245
    118  CA       -40.2970    5.6490   22.4700 C.3   130  LEU130      0.1561
    119  C        -40.0940    4.5220   23.4720 C.2   130  LEU130      0.2260
    120  O        -39.8940    3.3790   23.0740 O.2   130  LEU130     -0.2867
    121  CB       -41.7890    5.9400   22.2690 C.3   130  LEU130      0.0270
    122  CG       -42.1300    7.1780   21.4350 C.3   130  LEU130      0.0019
    123  CD1      -43.4990    7.0460   20.8330 C.3   130  LEU130      0.0001
    124  CD2      -42.0180    8.4630   22.2560 C.3   130  LEU130      0.0001
    125  N        -41.1680    5.0160   16.3860 N.3   140  SER140     -0.1202
    126  CA       -42.2050    6.0180   16.1230 C.3   140  SER140      0.2020
    127  C        -41.9050    6.7920   14.8340 C.2   140  SER140      0.2618
    128  O        -40.7990    6.6780   14.2990 O.2   140  SER140     -0.2717
    129  CB       -42.3240    6.9780   17.3030 C.3   140  SER140      0.2103
    130  OG       -43.4680    7.8080   17.1810 O.3   140  SER140     -0.2182
    131  N        -42.8990    7.5720   14.3380 N.am  141  ASP141     -0.1973
    132  CA       -42.8270    8.4070   13.1270 C.3   141  ASP141      0.1709
    133  C        -42.3170    7.6310   11.8950 C.2   141  ASP141      0.2293
    134  O        -41.4390    8.1060   11.1690 O.2   141  ASP141     -0.2864
    135  CB       -42.0140    9.6970   13.3930 C.3   141  ASP141      0.1436
    136  CG       -42.5250   10.5340   14.5550 C.2   141  ASP141      0.3671
    137  OD1      -41.7450   10.7690   15.5050 O.co2 141  ASP141     -0.2456
    138  OD2      -43.7050   10.9510   14.5160 O.co2 141  ASP141     -0.2456
@<TRIPOS>BOND
     1   134   133    2
     2   133   132    1
     3   132   135    1
     4   132   131    1
     5   135   136    1
     6   128   127    2
     7   131   127   am
     8    41    40    1
     9   138   136   ar
    10   136   137   ar
    11   127   126    1
    12    40    39    1
    13    59    58   ar
    14    59    57   ar
    15   126   125    1
    16   126   129    1
    17    39    38    1
    18    45    44    2
    19    58    56   ar
    20    36    35    2
    21    57    55   ar
    22    38    37    1
    23    47    46    1
    24   130   129    1
    25    42    43    1
    26    44    43    1
    27    35    34    1
    28    56    54   ar
    29    37    34    1
    30    55    54   ar
    31    43    46    1
    32    54    53    1
    33    46    48    1
    34    34    33    1
    35    49    50    1
    36    53    50    1
    37    50    51    1
    38    19    17    1
    39   123   122    1
    40    68    66   ar
    41    31    30    2
    42    51    60   am
    43    51    52    2
    44   117   118    1
    45    13    14    1
    46    60    61    1
    47   122   124    1
    48   122   121    1
    49    14    17    1
    50    14    15    1
    51    17    18    1
    52    65    66    1
    53    65    64    2
    54    66    67   ar
    55    30    29    1
    56   116   115    1
    57   121   118    1
    58   118   119    1
    59    64    61    1
    60    12    11    2
    61    61    62    1
    62    11    10    1
    63    63    62    2
    64   115   112    1
    65   120   119    2
    66    15    16    2
    67    32    29    1
    68    62    69   am
    69    29    28    1
    70   112   113    1
    71   112   111    1
    72    85    86    1
    73    85    84    1
    74    10     9    1
    75    87    86    1
    76   113   114    2
    77   111   109   am
    78    69    70    1
    79     9     3   am
    80    84    81    1
    81   110   109    2
    82   109   108    1
    83    70    71    1
    84    70    73    1
    85    80    71   am
    86    80    81    1
    87     3     4    2
    88     3     2    1
    89    71    72    2
    90    81    82    1
    91     6     8    1
    92     6     5    1
    93   108   107    1
    94    20    21    1
    95     1     2    1
    96    73    74    1
    97     2     5    1
    98    75    74   ar
    99    75    77   ar
   100    83    82    2
   101    82    88   am
   102     5     7    1
   103    21    22    1
   104    21    24    1
   105   107    99   am
   106    22    23    2
   107    74    76   ar
   108    77    79   ar
   109   100    99    2
   110    99    98    1
   111    88    89    1
   112    24    25    1
   113    76    78   ar
   114    79    78   ar
   115    97    98    1
   116    97    90   am
   117    98   101    1
   118    26    25    1
   119    89    90    1
   120    89    92    1
   121   101   102    1
   122    25    27    1
   123    90    91    2
   124    92    93    1
   125    93    94    1
   126   102   104   ar
   127   102   103   ar
   128   104   106   ar
   129    96    94   ar
   130    94    95   ar
   131   103   105   ar
   132   106   105   ar
