@<TRIPOS>MOLECULE
tmp/3v8vA01.pdb
 117 116 0 0 0
SMALL
GASTEIGER

@<TRIPOS>ATOM
      1  N         26.3700   -0.9280   57.1970 N.3   493  PHE493     -0.1241
      2  CA        26.7940    0.4840   57.1450 C.3   493  PHE493      0.1605
      3  C         28.2790    0.6160   56.7980 C.2   493  PHE493      0.2264
      4  O         29.1620    0.3800   57.6260 O.2   493  PHE493     -0.2867
      5  CB        26.4510    1.2120   58.4370 C.3   493  PHE493      0.0534
      6  CG        24.9720    1.3520   58.6650 C.ar  493  PHE493     -0.0203
      7  CD1       24.2730    2.4700   58.1820 C.ar  493  PHE493     -0.0042
      8  CD2       24.2610    0.3790   59.3560 C.ar  493  PHE493     -0.0042
      9  CE1       22.8760    2.6080   58.4000 C.ar  493  PHE493     -0.0003
     10  CE2       22.8820    0.5030   59.5640 C.ar  493  PHE493     -0.0003
     11  CZ        22.1930    1.5910   59.0880 C.ar  493  PHE493     -0.0000
     12  N         23.2120   -2.9100   70.4850 N.3   516  PHE516     -0.1241
     13  CA        22.6220   -2.2640   69.2630 C.3   516  PHE516      0.1605
     14  C         23.3430   -2.8090   68.0390 C.2   516  PHE516      0.2264
     15  O         24.0490   -2.0780   67.2950 O.2   516  PHE516     -0.2867
     16  CB        22.7620   -0.7350   69.2810 C.3   516  PHE516      0.0534
     17  CG        22.2320   -0.1170   70.5080 C.ar  516  PHE516     -0.0203
     18  CD1       20.8940    0.3030   70.5650 C.ar  516  PHE516     -0.0042
     19  CD2       23.0530    0.0300   71.6300 C.ar  516  PHE516     -0.0042
     20  CE1       20.3710    0.8990   71.7240 C.ar  516  PHE516     -0.0003
     21  CE2       22.5550    0.6060   72.8010 C.ar  516  PHE516     -0.0003
     22  CZ        21.2040    1.0450   72.8530 C.ar  516  PHE516     -0.0000
     23  N         22.3620   -4.4610   65.3030 N.3   518  TYR518     -0.1241
     24  CA        21.8570   -4.4480   63.9260 C.3   518  TYR518      0.1605
     25  C         22.1970   -5.7950   63.3360 C.2   518  TYR518      0.2264
     26  O         21.9420   -6.7920   63.9810 O.2   518  TYR518     -0.2867
     27  CB        22.4460   -3.2810   63.1050 C.3   518  TYR518      0.0534
     28  CG        21.8980   -3.1030   61.6980 C.ar  518  TYR518     -0.0201
     29  CD1       20.5070   -3.0730   61.4440 C.ar  518  TYR518     -0.0009
     30  CD2       22.7730   -2.9580   60.6040 C.ar  518  TYR518     -0.0009
     31  CE1       20.0020   -2.8950   60.1520 C.ar  518  TYR518      0.0417
     32  CE2       22.2910   -2.7840   59.3130 C.ar  518  TYR518      0.0417
     33  CZ        20.9070   -2.7310   59.0870 C.ar  518  TYR518      0.1957
     34  OH        20.4490   -2.5560   57.7740 O.3   518  TYR518     -0.2866
     35  N         20.2020   -6.9340   70.4750 N.3   538  ASP538     -0.1225
     36  CA        19.3950   -6.0510   69.6670 C.3   538  ASP538      0.1805
     37  C         17.9160   -6.3370   69.9280 C.2   538  ASP538      0.2598
     38  O         17.5360   -7.4260   70.4000 O.2   538  ASP538     -0.2718
     39  CB        19.7430   -6.2430   68.1940 C.3   538  ASP538      0.1424
     40  CG        19.2410   -5.1130   67.3140 C.2   538  ASP538      0.3668
     41  OD1       20.0840   -4.3800   66.7490 O.co2 538  ASP538     -0.2456
     42  OD2       18.0090   -4.9780   67.1530 O.co2 538  ASP538     -0.2456
     43  N         17.0810   -5.3500   69.6450 N.am  539  MET539     -0.1965
     44  CA        15.6600   -5.4640   69.9490 C.3   539  MET539      0.1736
     45  C         14.8760   -6.0980   68.8250 C.2   539  MET539      0.2617
     46  O         13.7350   -6.5060   69.0500 O.2   539  MET539     -0.2715
     47  CB        15.0630   -4.1100   70.3060 C.3   539  MET539      0.0427
     48  CG        14.5710   -3.2580   69.1150 C.3   539  MET539      0.0599
     49  SD        14.5600   -1.4790   69.4960 S.3   539  MET539     -0.1393
     50  CE        13.2830   -0.8660   68.3760 C.3   539  MET539      0.0692
     51  N         15.4790   -6.1670   67.6230 N.am  540  SER540     -0.1950
     52  CA        14.8270   -6.7310   66.4250 C.3   540  SER540      0.1924
     53  C         15.1480   -8.2000   66.1770 C.2   540  SER540      0.2314
     54  O         16.2940   -8.5620   65.9530 O.2   540  SER540     -0.2863
     55  CB        15.2020   -5.9500   65.1750 C.3   540  SER540      0.2116
     56  OG        14.9180   -6.7470   64.0290 O.3   540  SER540     -0.2180
     57  N         16.6400   -8.5880   62.5800 N.3   543  TYR543     -0.1241
     58  CA        18.0420   -8.2220   62.5670 C.3   543  TYR543      0.1605
     59  C         18.9850   -9.1880   63.2930 C.2   543  TYR543      0.2264
     60  O         20.1310   -9.3770   62.8720 O.2   543  TYR543     -0.2867
     61  CB        18.2300   -6.7780   63.0490 C.3   543  TYR543      0.0534
     62  CG        17.6150   -5.7760   62.1090 C.ar  543  TYR543     -0.0201
     63  CD1       17.6860   -5.9650   60.7330 C.ar  543  TYR543     -0.0009
     64  CD2       16.9750   -4.6400   62.5870 C.ar  543  TYR543     -0.0009
     65  CE1       17.1190   -5.0680   59.8420 C.ar  543  TYR543      0.0417
     66  CE2       16.3940   -3.7060   61.6870 C.ar  543  TYR543      0.0417
     67  CZ        16.4680   -3.9390   60.3170 C.ar  543  TYR543      0.1957
     68  OH        15.9240   -3.0540   59.4120 O.3   543  TYR543     -0.2866
     69  N         16.6880   -8.1810   73.2820 N.3   566  ALA566     -0.1231
     70  CA        16.2870   -7.2970   74.4080 C.3   566  ALA566      0.1694
     71  C         16.4310   -5.8570   74.0000 C.2   566  ALA566      0.2592
     72  O         17.0960   -5.5540   73.0120 O.2   566  ALA566     -0.2718
     73  CB        17.1060   -7.5350   75.6460 C.3   566  ALA566      0.0304
     74  N         15.7650   -4.9920   74.7620 N.am  567  ASP567     -0.1960
     75  CA        16.0610   -3.5910   74.8080 C.3   567  ASP567      0.1840
     76  C         17.4320   -3.5210   75.4770 C.2   567  ASP567      0.2622
     77  O         17.5670   -3.9480   76.6050 O.2   567  ASP567     -0.2715
     78  CB        14.9930   -2.9000   75.6660 C.3   567  ASP567      0.1450
     79  CG        15.2780   -1.4130   75.8890 C.2   567  ASP567      0.3671
     80  OD1       16.4510   -1.0280   76.1120 O.co2 567  ASP567     -0.2456
     81  OD2       14.3170   -0.6170   75.8500 O.co2 567  ASP567     -0.2456
     82  N         18.4480   -3.0120   74.7940 N.am  568  CYS568     -0.1954
     83  CA        19.7940   -2.9410   75.3730 C.3   568  CYS568      0.1843
     84  C         19.8770   -2.1460   76.6890 C.2   568  CYS568      0.2625
     85  O         20.5470   -2.5420   77.6220 O.2   568  CYS568     -0.2714
     86  CB        20.7920   -2.3940   74.3460 C.3   568  CYS568      0.0997
     87  SG        21.1440   -3.5380   72.9140 S.3   568  CYS568     -0.0797
     88  N         19.1830   -1.0310   76.7840 N.am  569  LEU569     -0.1977
     89  CA        19.1950   -0.2940   78.0320 C.3   569  LEU569      0.1596
     90  C         18.7290   -1.0930   79.2620 C.2   569  LEU569      0.2287
     91  O         19.3430   -0.9800   80.3130 O.2   569  LEU569     -0.2864
     92  CB        18.4350    1.0230   77.9150 C.3   569  LEU569      0.0297
     93  CG        19.0580    2.2050   77.1530 C.3   569  LEU569      0.0022
     94  CD1       20.5820    2.0350   76.9650 C.3   569  LEU569      0.0001
     95  CD2       18.3470    2.4280   75.8120 C.3   569  LEU569      0.0001
     96  N         27.1370    1.1290   69.7910 N.3   585  ASP585     -0.1225
     97  CA        26.9090    2.0710   68.7190 C.3   585  ASP585      0.1790
     98  C         25.4380    2.4080   68.5970 C.2   585  ASP585      0.2440
     99  O         24.8100    2.0040   67.6310 O.2   585  ASP585     -0.2733
    100  CB        27.3990    1.4620   67.4280 C.3   585  ASP585      0.1423
    101  CG        27.2040    2.3720   66.2420 C.2   585  ASP585      0.3668
    102  OD1       27.3000    3.6390   66.3700 O.co2 585  ASP585     -0.2456
    103  OD2       26.9810    1.8080   65.1500 O.co2 585  ASP585     -0.2456
    104  N         24.9050    3.1750   69.5700 N.am  586  PRO586     -0.2718
    105  CA        23.4780    3.3860   69.7500 C.3   586  PRO586      0.1520
    106  C         22.8370    4.2930   68.7130 C.2   586  PRO586      0.2440
    107  O         23.5400    4.9990   67.9420 O.2   586  PRO586     -0.2731
    108  CB        23.3810    4.0840   71.1280 C.3   586  PRO586      0.0310
    109  CG        24.6880    3.9430   71.7560 C.3   586  PRO586      0.0237
    110  CD        25.6660    3.8850   70.6090 C.3   586  PRO586      0.0939
    111  N         21.4930    4.2960   68.7110 N.am  587  PRO587     -0.2727
    112  CA        20.7940    5.2820   67.9410 C.3   587  PRO587      0.1402
    113  C         20.8650    6.5940   68.7360 C.2   587  PRO587      0.2269
    114  O         20.8770    6.5620   69.9830 O.2   587  PRO587     -0.2865
    115  CB        19.3680    4.7280   67.9090 C.3   587  PRO587      0.0296
    116  CG        19.2150    3.9910   69.2140 C.3   587  PRO587      0.0237
    117  CD        20.6000    3.6230   69.6790 C.3   587  PRO587      0.0939
@<TRIPOS>BOND
     1     3     2    1
     2     3     4    2
     3     2     1    1
     4     2     5    1
     5    34    33    1
     6     7     9   ar
     7     7     6   ar
     8     9    11   ar
     9     5     6    1
    10     6     8   ar
    11    33    32   ar
    12    33    31   ar
    13    11    10   ar
    14    32    30   ar
    15     8    10   ar
    16    68    67    1
    17    65    67   ar
    18    65    63   ar
    19    31    29   ar
    20    67    66   ar
    21    30    28   ar
    22    63    62   ar
    23    29    28   ar
    24    66    64   ar
    25    28    27    1
    26    62    64   ar
    27    62    61    1
    28    58    57    1
    29    58    61    1
    30    58    59    1
    31    60    59    2
    32    27    24    1
    33    25    24    1
    34    25    26    2
    35    24    23    1
    36    56    55    1
    37   103   101   ar
    38    55    52    1
    39    54    53    2
    40    53    52    1
    41   101   102   ar
    42   101   100    1
    43    52    51    1
    44    41    40   ar
    45    42    40   ar
    46    15    14    2
    47    40    39    1
    48   100    97    1
    49    51    45   am
    50    99    98    2
    51   115   112    1
    52   115   116    1
    53   112   111    1
    54   112   113    1
    55   107   106    2
    56    14    13    1
    57    39    36    1
    58    50    49    1
    59    98    97    1
    60    98   104   am
    61   111   106   am
    62   111   117    1
    63   106   105    1
    64    97    96    1
    65   113   114    2
    66    45    46    2
    67    45    44    1
    68    48    49    1
    69    48    47    1
    70   116   117    1
    71    13    16    1
    72    13    12    1
    73    16    17    1
    74   104   105    1
    75   104   110    1
    76    43    37   am
    77    43    44    1
    78    36    37    1
    79    36    35    1
    80   105   108    1
    81    37    38    2
    82    44    47    1
    83    17    18   ar
    84    17    19   ar
    85    18    20   ar
    86   110   109    1
    87   108   109    1
    88    19    21   ar
    89    20    22   ar
    90    21    22   ar
    91    87    86    1
    92    72    71    2
    93    69    70    1
    94    71    70    1
    95    71    74   am
    96    86    83    1
    97    70    73    1
    98    74    75    1
    99    82    83    1
   100    82    76   am
   101    75    76    1
   102    75    78    1
   103    83    84    1
   104    76    77    2
   105    78    79    1
   106    95    93    1
   107    81    79   ar
   108    79    80   ar
   109    84    88   am
   110    84    85    2
   111    88    89    1
   112    94    93    1
   113    93    92    1
   114    92    89    1
   115    89    90    1
   116    90    91    2
