@<TRIPOS>MOLECULE
tmp/3v8wA00.pdb
 154 146 0 0 0
SMALL
GASTEIGER

@<TRIPOS>ATOM
      1  N        -50.3640  -23.0700   28.6270 N.3    15  ILE15      -0.1231
      2  CA       -51.2530  -22.1350   29.3330 C.3    15  ILE15       0.1692
      3  C        -52.7190  -22.1510   28.8690 C.2    15  ILE15       0.2592
      4  O        -53.5900  -21.6580   29.5880 O.2    15  ILE15      -0.2718
      5  CB       -50.6530  -20.6990   29.4090 C.3    15  ILE15       0.0266
      6  CG1      -50.2530  -20.1660   28.0030 C.3    15  ILE15       0.0019
      7  CG2      -49.4830  -20.6540   30.4060 C.3    15  ILE15       0.0020
      8  CD1      -49.9740  -18.6570   27.8920 C.3    15  ILE15       0.0001
      9  N        -52.9700  -22.7170   27.6890 N.am   16  GLY16      -0.1957
     10  CA       -54.3050  -22.8100   27.1090 C.3    16  GLY16       0.1869
     11  C        -54.5240  -24.0280   26.2350 C.2    16  GLY16       0.2309
     12  O        -53.5620  -24.6520   25.7760 O.2    16  GLY16      -0.2863
     13  N        -52.2540  -23.3940   23.5240 N.3    21  VAL21      -0.1245
     14  CA       -51.6040  -22.1010   23.7630 C.3    21  VAL21       0.1561
     15  C        -50.4620  -22.3200   24.7580 C.2    21  VAL21       0.2260
     16  O        -50.6930  -22.8150   25.8640 O.2    21  VAL21      -0.2867
     17  CB       -52.5840  -20.9850   24.2320 C.3    21  VAL21       0.0252
     18  CG1      -51.8630  -19.6480   24.3960 C.3    21  VAL21       0.0019
     19  CG2      -53.7640  -20.8370   23.2760 C.3    21  VAL21       0.0019
     20  N        -46.8700  -20.6400   26.7300 N.3    23  LEU23      -0.1245
     21  CA       -46.1040  -19.4780   27.1650 C.3    23  LEU23       0.1561
     22  C        -44.6680  -19.7700   26.7360 C.2    23  LEU23       0.2260
     23  O        -44.1610  -20.8660   26.9920 O.2    23  LEU23      -0.2867
     24  CB       -46.1990  -19.2890   28.7000 C.3    23  LEU23       0.0270
     25  CG       -45.1210  -18.4210   29.3910 C.3    23  LEU23       0.0019
     26  CD1      -45.2370  -16.9490   29.0070 C.3    23  LEU23       0.0001
     27  CD2      -45.1930  -18.5630   30.8930 C.3    23  LEU23       0.0001
     28  N        -46.8810  -15.6930   23.4190 N.3    33  ALA33      -0.1245
     29  CA       -47.9390  -16.6920   23.5200 C.3    33  ALA33       0.1562
     30  C        -47.9920  -17.4090   22.1720 C.2    33  ALA33       0.2260
     31  O        -48.2560  -16.7830   21.1410 O.2    33  ALA33      -0.2867
     32  CB       -49.2700  -16.0310   23.8330 C.3    33  ALA33       0.0290
     33  N        -49.6170  -20.1220   19.7220 N.3    35  LYS35      -0.1245
     34  CA       -50.8480  -20.8320   19.3660 C.3    35  LYS35       0.1561
     35  C        -50.5410  -21.8900   18.2910 C.2    35  LYS35       0.2260
     36  O        -50.3760  -21.5510   17.1180 O.2    35  LYS35      -0.2867
     37  CB       -51.9390  -19.8290   18.9110 C.3    35  LYS35       0.0271
     38  CG       -53.2190  -20.4570   18.3870 C.3    35  LYS35       0.0035
     39  CD       -54.0460  -21.0390   19.5400 C.3    35  LYS35       0.0206
     40  CE       -55.3610  -21.6230   19.0650 C.3    35  LYS35       0.1093
     41  NZ       -56.1540  -22.1310   20.2200 N.3    35  LYS35      -0.1314
     42  N        -54.8760  -10.0820   10.7000 N.3    53  MET53      -0.1245
     43  CA       -54.5570   -9.5770   12.0400 C.3    53  MET53       0.1570
     44  C        -53.2950   -8.7050   12.0750 C.2    53  MET53       0.2261
     45  O        -53.2200   -7.7840   12.8900 O.2    53  MET53      -0.2867
     46  CB       -54.4640  -10.7230   13.0630 C.3    53  MET53       0.0387
     47  CG       -55.8170  -11.2730   13.4760 C.3    53  MET53       0.0595
     48  SD       -55.7790  -12.2610   14.9920 S.3    53  MET53      -0.1393
     49  CE       -55.3260  -13.8520   14.3290 C.3    53  MET53       0.0692
     50  N        -55.1410   -7.4530   19.7460 N.3    62  VAL62      -0.1245
     51  CA       -53.9440   -8.2670   20.0110 C.3    62  VAL62       0.1561
     52  C        -53.0170   -8.2570   18.7880 C.2    62  VAL62       0.2260
     53  O        -53.4820   -8.4160   17.6570 O.2    62  VAL62      -0.2867
     54  CB       -54.2750   -9.7100   20.4980 C.3    62  VAL62       0.0252
     55  CG1      -53.0230  -10.4340   20.9930 C.3    62  VAL62       0.0019
     56  CG2      -55.3340   -9.6940   21.5940 C.3    62  VAL62       0.0019
     57  N        -48.6750  -19.6680   15.5540 N.3    76  LEU76      -0.1245
     58  CA       -48.7610  -18.2060   15.5310 C.3    76  LEU76       0.1561
     59  C        -48.0500  -17.6530   16.7630 C.2    76  LEU76       0.2260
     60  O        -48.2520  -18.1600   17.8690 O.2    76  LEU76      -0.2867
     61  CB       -50.2270  -17.7160   15.5190 C.3    76  LEU76       0.0270
     62  CG       -51.2140  -18.3580   14.5380 C.3    76  LEU76       0.0019
     63  CD1      -52.6350  -17.9360   14.8350 C.3    76  LEU76       0.0001
     64  CD2      -50.8750  -18.0470   13.0980 C.3    76  LEU76       0.0001
     65  N        -47.9300  -14.7130   19.1420 N.3    78  PHE78      -0.1227
     66  CA       -48.6590  -13.5590   19.6750 C.3    78  PHE78       0.1736
     67  C        -47.9070  -12.8930   20.8220 C.2    78  PHE78       0.2598
     68  O        -47.0320  -13.5140   21.4300 O.2    78  PHE78      -0.2717
     69  CB       -50.0400  -13.9970   20.1930 C.3    78  PHE78       0.0547
     70  CG       -51.1040  -14.2190   19.1490 C.ar   78  PHE78      -0.0202
     71  CD1      -51.3820  -15.4960   18.6790 C.ar   78  PHE78      -0.0042
     72  CD2      -51.8740  -13.1610   18.6820 C.ar   78  PHE78      -0.0042
     73  CE1      -52.3910  -15.7070   17.7360 C.ar   78  PHE78      -0.0003
     74  CE2      -52.8800  -13.3720   17.7350 C.ar   78  PHE78      -0.0003
     75  CZ       -53.1290  -14.6420   17.2650 C.ar   78  PHE78      -0.0000
     76  N        -48.2820  -11.6380   21.1440 N.am   79  GLU79      -0.1920
     77  CA       -47.7250  -10.9010   22.2800 C.3    79  GLU79       0.1949
     78  C        -48.3210  -11.5030   23.5590 C.2    79  GLU79       0.2659
     79  O        -49.4870  -11.9100   23.5540 O.2    79  GLU79      -0.2711
     80  CB       -48.0100   -9.3840   22.1770 C.2    79  GLU79       0.0111
     81  CG       -49.4830   -8.9930   22.0960 C.2    79  GLU79       0.0838
     82  CD       -49.8320   -7.5250   22.2690 C.2    79  GLU79       0.3877
     83  OE1      -48.9490   -6.7320   22.6710 O.co2  79  GLU79      -0.2406
     84  OE2      -51.0080   -7.1740   22.0240 O.co2  79  GLU79      -0.2406
     85  N        -47.5220  -11.6150   24.6270 N.am   80  PHE80      -0.1957
     86  CA       -48.0200  -12.2000   25.8660 C.3    80  PHE80       0.1771
     87  C        -48.8470  -11.2210   26.6940 C.2    80  PHE80       0.2619
     88  O        -48.3750  -10.1330   27.0260 O.2    80  PHE80      -0.2715
     89  CB       -46.8930  -12.8460   26.6940 C.3    80  PHE80       0.0574
     90  CG       -47.3690  -13.5290   27.9570 C.ar   80  PHE80      -0.0200
     91  CD1      -48.0800  -14.7230   27.8970 C.ar   80  PHE80      -0.0042
     92  CD2      -47.1070  -12.9790   29.2050 C.ar   80  PHE80      -0.0042
     93  CE1      -48.5310  -15.3470   29.0640 C.ar   80  PHE80      -0.0003
     94  CE2      -47.5520  -13.6080   30.3720 C.ar   80  PHE80      -0.0003
     95  CZ       -48.2590  -14.7880   30.2930 C.ar   80  PHE80      -0.0000
     96  N        -50.0860  -11.6220   27.0180 N.am   81  MET81      -0.1963
     97  CA       -51.0120  -10.8480   27.8460 C.3    81  MET81       0.1736
     98  C        -50.9560  -11.4460   29.2540 C.2    81  MET81       0.2616
     99  O        -51.3310  -12.6040   29.4500 O.2    81  MET81      -0.2715
    100  CB       -52.4390  -10.8670   27.2600 C.3    81  MET81       0.0427
    101  CG       -52.5370  -10.2710   25.8560 C.3    81  MET81       0.0599
    102  SD       -52.2780   -8.4770   25.7710 S.3    81  MET81      -0.1393
    103  CE       -53.8920   -7.8990   26.2690 C.3    81  MET81       0.0692
    104  N        -50.4090  -10.6690   30.2080 N.am   82  GLU82      -0.1963
    105  CA       -50.1640  -11.0320   31.6100 C.3    82  GLU82       0.1733
    106  C        -51.2900  -11.7550   32.3530 C.2    82  GLU82       0.2616
    107  O        -51.0230  -12.7500   33.0290 O.2    82  GLU82      -0.2715
    108  CB       -49.6830   -9.8130   32.4200 C.3    82  GLU82       0.0429
    109  CG       -48.2620   -9.3670   32.1070 C.3    82  GLU82       0.1163
    110  CD       -47.1490  -10.2470   32.6450 C.2    82  GLU82       0.3649
    111  OE1      -47.0940  -10.4580   33.8790 O.co2  82  GLU82      -0.2457
    112  OE2      -46.3040  -10.6920   31.8350 O.co2  82  GLU82      -0.2457
    113  N        -52.5330  -11.2580   32.2400 N.am   83  HIS83      -0.1959
    114  CA       -53.6790  -11.8250   32.9570 C.3    83  HIS83       0.1787
    115  C        -54.5610  -12.8040   32.1670 C.2    83  HIS83       0.2621
    116  O        -55.5010  -13.3770   32.7270 O.2    83  HIS83      -0.2715
    117  CB       -54.4780  -10.7230   33.6680 C.3    83  HIS83       0.0785
    118  CG       -53.6430   -9.9280   34.6230 C.ar   83  HIS83       0.0821
    119  ND1      -53.3870  -10.3790   35.9060 N.ar   83  HIS83      -0.2267
    120  CD2      -52.9900   -8.7580   34.4330 C.ar   83  HIS83       0.1154
    121  CE1      -52.6100   -9.4630   36.4600 C.ar   83  HIS83       0.1986
    122  NE2      -52.3450   -8.4680   35.6120 N.ar   83  HIS83      -0.2212
    123  N        -54.2190  -13.0110   30.8970 N.am   84  GLY84      -0.1940
    124  CA       -54.8910  -13.9450   30.0010 C.3    84  GLY84       0.2014
    125  C        -56.3430  -13.6610   29.6830 C.2    84  GLY84       0.2639
    126  O        -56.7540  -12.5010   29.6000 O.2    84  GLY84      -0.2714
    127  N        -57.1130  -14.7450   29.4820 N.am   85  CYS85      -0.1967
    128  CA       -58.5340  -14.7740   29.1280 C.3    85  CYS85       0.1712
    129  C        -59.4100  -13.9340   30.0630 C.2    85  CYS85       0.2296
    130  O        -59.3080  -14.0720   31.2840 O.2    85  CYS85      -0.2864
    131  CB       -59.0190  -16.2180   29.0450 C.3    85  CYS85       0.0983
    132  SG       -60.7530  -16.4000   28.5610 S.3    85  CYS85      -0.0798
    133  N        -58.6050  -10.7010   25.8090 N.3   132  LEU132     -0.1245
    134  CA       -57.4480  -10.8610   26.6900 C.3   132  LEU132      0.1561
    135  C        -57.1770   -9.6540   27.5790 C.2   132  LEU132      0.2260
    136  O        -57.4410   -8.5190   27.1820 O.2   132  LEU132     -0.2867
    137  CB       -56.1980  -11.2540   25.8890 C.3   132  LEU132      0.0270
    138  CG       -56.2340  -12.6360   25.2390 C.3   132  LEU132      0.0019
    139  CD1      -55.4920  -12.6370   23.9330 C.3   132  LEU132      0.0001
    140  CD2      -55.6900  -13.7050   26.1710 C.3   132  LEU132      0.0001
    141  N        -59.1990  -10.4930   20.5100 N.3   142  SER142     -0.1202
    142  CA       -58.4550  -11.5440   19.8130 C.3   142  SER142      0.2020
    143  C        -59.3890  -12.3520   18.9040 C.2   142  SER142      0.2618
    144  O        -60.6090  -12.1830   18.9840 O.2   142  SER142     -0.2717
    145  CB       -57.7700  -12.4620   20.8210 C.3   142  SER142      0.2103
    146  OG       -56.7660  -13.2420   20.1960 O.3   142  SER142     -0.2182
    147  N        -58.8120  -13.2280   18.0420 N.am  143  ASP143     -0.1973
    148  CA       -59.5180  -14.0960   17.0830 C.3   143  ASP143      0.1709
    149  C        -60.3820  -13.3200   16.0660 C.2   143  ASP143      0.2293
    150  O        -61.4140  -13.8250   15.6120 O.2   143  ASP143     -0.2864
    151  CB       -60.3210  -15.2100   17.8010 C.3   143  ASP143      0.1436
    152  CG       -59.7110  -16.5980   17.7170 C.2   143  ASP143      0.3671
    153  OD1      -59.7270  -17.3150   18.7410 O.co2 143  ASP143     -0.2456
    154  OD2      -59.2550  -16.9850   16.6170 O.co2 143  ASP143     -0.2456
@<TRIPOS>BOND
     1    42    43    1
     2    43    44    1
     3    43    46    1
     4    44    45    2
     5    46    47    1
     6    64    62    1
     7    47    48    1
     8    49    48    1
     9    62    63    1
    10    62    61    1
    11    61    58    1
    12    58    57    1
    13    58    59    1
    14   150   149    2
    15   149   148    1
    16   154   152   ar
    17    59    60    2
    18   148   151    1
    19   148   147    1
    20    36    35    2
    21    75    74   ar
    22    75    73   ar
    23    53    52    2
    24   152   151    1
    25   152   153   ar
    26    74    72   ar
    27    73    71   ar
    28   147   143   am
    29    35    34    1
    30    38    37    1
    31    38    39    1
    32    71    70   ar
    33    72    70   ar
    34    52    51    1
    35   143   144    2
    36   143   142    1
    37    37    34    1
    38    40    39    1
    39    40    41    1
    40    65    66    1
    41    70    69    1
    42    34    33    1
    43    66    69    1
    44    66    67    1
    45    50    51    1
    46   142   141    1
    47   142   145    1
    48    51    54    1
    49   146   145    1
    50    54    55    1
    51    54    56    1
    52    67    76   am
    53    67    68    2
    54    31    30    2
    55    76    77    1
    56    84    82   ar
    57    81    80    2
    58    81    82    1
    59    30    29    1
    60    80    77    1
    61    82    83   ar
    62    77    78    1
    63    19    17    1
    64    28    29    1
    65    29    32    1
    66    13    14    1
    67    79    78    2
    68    78    85   am
    69    14    17    1
    70    14    15    1
    71   139   138    1
    72    17    18    1
    73    85    86    1
    74    15    16    2
    75   138   137    1
    76   138   140    1
    77   102   101    1
    78   102   103    1
    79    12    11    2
    80   133   134    1
    81   101   100    1
    82    86    89    1
    83    86    87    1
    84   137   134    1
    85    11    10    1
    86   134   135    1
    87    89    90    1
    88    87    96   am
    89    87    88    2
    90    20    21    1
    91    22    23    2
    92    22    21    1
    93    96    97    1
    94    10     9    1
    95    21    24    1
    96   136   135    2
    97   100    97    1
    98     9     3   am
    99    97    98    1
   100     8     6    1
   101    91    90   ar
   102    91    93   ar
   103    90    92   ar
   104     6     5    1
   105   132   131    1
   106     1     2    1
   107    24    25    1
   108     3     2    1
   109     3     4    2
   110    26    25    1
   111   131   128    1
   112    93    95   ar
   113   128   127    1
   114   128   129    1
   115    92    94   ar
   116    98    99    2
   117    98   104   am
   118     2     5    1
   119    25    27    1
   120     5     7    1
   121   127   125   am
   122   126   125    2
   123   125   124    1
   124   124   123    1
   125   129   130    2
   126   104   105    1
   127    95    94   ar
   128   123   115   am
   129   105   106    1
   130   105   108    1
   131   112   110   ar
   132   109   108    1
   133   109   110    1
   134   115   116    2
   135   115   114    1
   136   113   106   am
   137   113   114    1
   138   106   107    2
   139   110   111   ar
   140   114   117    1
   141   117   118    1
   142   120   118   ar
   143   120   122   ar
   144   118   119   ar
   145   122   121   ar
   146   119   121   ar
