@<TRIPOS>MOLECULE
tmp/3v8xA01.pdb
 150 146 0 0 0
SMALL
GASTEIGER

@<TRIPOS>ATOM
      1  N         32.1350  -23.4760   51.6490 N.3   756  ILE756     -0.1245
      2  CA        31.8790  -22.5340   50.5630 C.3   756  ILE756      0.1561
      3  C         33.1710  -22.0620   49.8900 C.2   756  ILE756      0.2260
      4  O         33.1570  -21.6440   48.7300 O.2   756  ILE756     -0.2867
      5  CB        31.0540  -21.3230   51.0580 C.3   756  ILE756      0.0252
      6  CG1       30.5430  -20.4880   49.8790 C.3   756  ILE756      0.0019
      7  CG2       31.8700  -20.4790   52.0310 C.3   756  ILE756      0.0019
      8  CD1       29.5890  -19.3760   50.2750 C.3   756  ILE756      0.0001
      9  N         34.2500  -24.1530   46.7340 N.3   759  LEU759     -0.1231
     10  CA        33.5390  -23.9970   45.4680 C.3   759  LEU759      0.1693
     11  C         33.4860  -22.5470   44.9830 C.2   759  LEU759      0.2591
     12  O         32.6930  -22.2030   44.1080 O.2   759  LEU759     -0.2718
     13  CB        32.1390  -24.6170   45.5440 C.3   759  LEU759      0.0284
     14  CG        31.2170  -24.2090   46.6900 C.3   759  LEU759      0.0019
     15  CD1       30.3340  -23.0350   46.2880 C.3   759  LEU759      0.0001
     16  CD2       30.3780  -25.3930   47.1390 C.3   759  LEU759      0.0001
     17  N         34.3440  -21.7060   45.5540 N.am  760  LEU760     -0.1980
     18  CA        34.4970  -20.3280   45.0980 C.3   760  LEU760      0.1596
     19  C         35.8350  -20.1480   44.3920 C.2   760  LEU760      0.2287
     20  O         36.7560  -20.9400   44.5830 O.2   760  LEU760     -0.2864
     21  CB        34.3850  -19.3530   46.2710 C.3   760  LEU760      0.0297
     22  CG        33.0580  -18.6080   46.4450 C.3   760  LEU760      0.0022
     23  CD1       31.8920  -19.4010   45.8710 C.3   760  LEU760      0.0001
     24  CD2       32.8220  -18.3110   47.9170 C.3   760  LEU760      0.0001
     25  N         35.1860  -13.0550   39.4780 N.3   772  ASN772     -0.1225
     26  CA        34.8460  -14.0470   40.4880 C.3   772  ASN772      0.1785
     27  C         33.7870  -15.0070   39.9800 C.2   772  ASN772      0.2598
     28  O         32.8040  -14.5920   39.3680 O.2   772  ASN772     -0.2718
     29  CB        34.3610  -13.3720   41.7700 C.3   772  ASN772      0.1169
     30  CG        35.4090  -12.4770   42.3890 C.2   772  ASN772      0.2627
     31  OD1       36.5880  -12.5460   42.0390 O.2   772  ASN772     -0.2716
     32  ND2       34.9860  -11.6340   43.3230 N.am  772  ASN772     -0.0877
     33  N         33.9910  -16.2950   40.2320 N.am  773  THR773     -0.1939
     34  CA        33.0550  -17.3170   39.7820 C.3   773  THR773      0.2028
     35  C         32.7980  -18.3730   40.8540 C.2   773  THR773      0.2642
     36  O         33.6410  -18.6210   41.7170 O.2   773  THR773     -0.2714
     37  CB        33.5630  -18.0120   38.5120 C.3   773  THR773      0.1808
     38  OG1       34.8930  -18.4910   38.7320 O.3   773  THR773     -0.2208
     39  CG2       33.5720  -17.0410   37.3390 C.3   773  THR773      0.0379
     40  N         31.6240  -18.9930   40.7900 N.am  774  LYS774     -0.1977
     41  CA        31.2580  -20.0520   41.7240 C.3   774  LYS774      0.1596
     42  C         31.0660  -21.3700   40.9800 C.2   774  LYS774      0.2287
     43  O         30.7810  -21.3770   39.7820 O.2   774  LYS774     -0.2864
     44  CB        29.9830  -19.6780   42.4810 C.3   774  LYS774      0.0298
     45  CG        28.7690  -19.4230   41.5930 C.3   774  LYS774      0.0038
     46  CD        27.5370  -19.1080   42.4300 C.3   774  LYS774      0.0206
     47  CE        26.2530  -19.1890   41.6160 C.3   774  LYS774      0.1093
     48  NZ        26.1370  -18.0900   40.6220 N.3   774  LYS774     -0.1314
     49  N         28.9450  -24.1040   42.1560 N.3   776  THR776     -0.1203
     50  CA        27.5290  -24.4400   42.2350 C.3   776  THR776      0.1994
     51  C         26.7450  -23.2370   42.7280 C.2   776  THR776      0.2618
     52  O         27.3230  -22.2690   43.2210 O.2   776  THR776     -0.2717
     53  CB        27.2650  -25.6110   43.1990 C.3   776  THR776      0.1784
     54  OG1       27.9230  -25.3610   44.4440 O.3   776  THR776     -0.2211
     55  CG2       27.7850  -26.9030   42.6300 C.3   776  THR776      0.0376
     56  N         25.4260  -23.3030   42.5950 N.am  777  ALA777     -0.1965
     57  CA        24.5620  -22.2420   43.0880 C.3   777  ALA777      0.1728
     58  C         24.1860  -22.4990   44.5410 C.2   777  ALA777      0.2616
     59  O         23.7050  -21.6050   45.2310 O.2   777  ALA777     -0.2715
     60  CB        23.3130  -22.1270   42.2260 C.3   777  ALA777      0.0334
     61  N         24.4090  -23.7290   44.9970 N.am  778  ARG778     -0.1963
     62  CA        24.0200  -24.1400   46.3410 C.3   778  ARG778      0.1729
     63  C         25.0800  -25.0370   46.9730 C.2   778  ARG778      0.2616
     64  O         25.8700  -25.6700   46.2730 O.2   778  ARG778     -0.2715
     65  CB        22.6830  -24.8900   46.3030 C.3   778  ARG778      0.0348
     66  CG        21.5650  -24.1700   45.5540 C.3   778  ARG778      0.0492
     67  CD        21.1010  -22.9230   46.2840 C.3   778  ARG778      0.2205
     68  NE        20.2510  -23.2420   47.4250 N.pl3 778  ARG778     -0.0865
     69  CZ        18.9260  -23.3060   47.3660 C.cat 778  ARG778      0.5346
     70  NH1       18.3010  -23.0690   46.2190 N.pl3 778  ARG778      0.1354
     71  NH2       18.2240  -23.6050   48.4510 N.pl3 778  ARG778      0.1354
     72  N         25.0870  -25.0850   48.3010 N.am  779  ARG779     -0.1963
     73  CA        25.9650  -25.9800   49.0480 C.3   779  ARG779      0.1729
     74  C         25.1240  -26.7980   50.0200 C.2   779  ARG779      0.2617
     75  O         23.9990  -26.4200   50.3320 O.2   779  ARG779     -0.2715
     76  CB        27.0380  -25.1850   49.7960 C.3   779  ARG779      0.0348
     77  CG        26.4960  -23.9880   50.5650 C.3   779  ARG779      0.0492
     78  CD        27.6130  -23.0870   51.0730 C.3   779  ARG779      0.2205
     79  NE        28.3040  -23.6610   52.2210 N.pl3 779  ARG779     -0.0865
     80  CZ        27.9250  -23.4780   53.4820 C.cat 779  ARG779      0.5346
     81  NH1       26.8600  -22.7360   53.7550 N.pl3 779  ARG779      0.1354
     82  NH2       28.6100  -24.0350   54.4710 N.pl3 779  ARG779      0.1354
     83  N         25.6640  -27.9120   50.5000 N.am  780  THR780     -0.1937
     84  CA        24.8720  -28.8490   51.2950 C.3   780  THR780      0.2028
     85  C         24.9990  -28.6260   52.7980 C.2   780  THR780      0.2642
     86  O         25.9790  -28.0510   53.2680 O.2   780  THR780     -0.2714
     87  CB        25.2390  -30.3070   50.9690 C.3   780  THR780      0.1808
     88  OG1       24.3320  -31.1880   51.6410 O.3   780  THR780     -0.2208
     89  CG2       26.6540  -30.6100   51.4200 C.3   780  THR780      0.0379
     90  N         24.0000  -29.0930   53.5440 N.am  781  ARG781     -0.1977
     91  CA        23.9810  -28.9780   55.0040 C.3   781  ARG781      0.1597
     92  C         24.5420  -30.2350   55.6740 C.2   781  ARG781      0.2287
     93  O         24.6850  -31.2730   55.0240 O.2   781  ARG781     -0.2864
     94  CB        22.5520  -28.7170   55.4940 C.3   781  ARG781      0.0334
     95  CG        22.0320  -27.3420   55.1560 C.3   781  ARG781      0.0492
     96  CD        20.5960  -27.1560   55.6170 C.3   781  ARG781      0.2205
     97  NE        20.0710  -25.8630   55.1850 N.pl3 781  ARG781     -0.0865
     98  CZ        20.1790  -24.7390   55.8860 C.cat 781  ARG781      0.5346
     99  NH1       20.7850  -24.7470   57.0660 N.pl3 781  ARG781      0.1354
    100  NH2       19.6760  -23.6090   55.4090 N.pl3 781  ARG781      0.1354
    101  N         15.7470  -36.7930   56.4130 N.3   811  ARG811     -0.1231
    102  CA        15.6660  -36.1550   55.1090 C.3   811  ARG811      0.1694
    103  C         16.8510  -35.2190   54.9080 C.2   811  ARG811      0.2592
    104  O         16.9920  -34.2200   55.6130 O.2   811  ARG811     -0.2718
    105  CB        14.3540  -35.3830   54.9640 C.3   811  ARG811      0.0321
    106  CG        14.2010  -34.6700   53.6280 C.3   811  ARG811      0.0489
    107  CD        14.0980  -33.1690   53.8130 C.3   811  ARG811      0.2205
    108  NE        12.8590  -32.6430   53.2490 N.pl3 811  ARG811     -0.0865
    109  CZ        12.7400  -32.1620   52.0150 C.cat 811  ARG811      0.5346
    110  NH1       13.7920  -32.1310   51.2040 N.pl3 811  ARG811      0.1354
    111  NH2       11.5690  -31.7080   51.5910 N.pl3 811  ARG811      0.1354
    112  N         17.7050  -35.5500   53.9470 N.am  812  TYR812     -0.1962
    113  CA        18.8840  -34.7390   53.6780 C.3   812  TYR812      0.1771
    114  C         19.2730  -34.7860   52.2100 C.2   812  TYR812      0.2619
    115  O         18.7920  -35.6300   51.4570 O.2   812  TYR812     -0.2715
    116  CB        20.0590  -35.1850   54.5540 C.3   812  TYR812      0.0574
    117  CG        20.5670  -36.5850   54.2790 C.ar  812  TYR812     -0.0198
    118  CD1       21.8100  -36.7910   53.6980 C.ar  812  TYR812     -0.0009
    119  CD2       19.8100  -37.6990   54.6100 C.ar  812  TYR812     -0.0009
    120  CE1       22.2860  -38.0690   53.4550 C.ar  812  TYR812      0.0417
    121  CE2       20.2740  -38.9800   54.3650 C.ar  812  TYR812      0.0417
    122  CZ        21.5140  -39.1600   53.7900 C.ar  812  TYR812      0.1957
    123  OH        21.9760  -40.4340   53.5480 O.3   812  TYR812     -0.2866
    124  N         20.1420  -33.8670   51.8080 N.am  813  VAL813     -0.1977
    125  CA        20.6450  -33.8400   50.4430 C.3   813  VAL813      0.1596
    126  C         22.1580  -34.0030   50.4500 C.2   813  VAL813      0.2287
    127  O         22.8690  -33.2110   51.0640 O.2   813  VAL813     -0.2864
    128  CB        20.2790  -32.5230   49.7400 C.3   813  VAL813      0.0276
    129  CG1       21.0710  -32.3710   48.4640 C.3   813  VAL813      0.0022
    130  CG2       18.7780  -32.4570   49.4670 C.3   813  VAL813      0.0022
    131  N         16.0320  -28.0770   44.2190 N.3   835  TYR835     -0.1227
    132  CA        17.0500  -29.0380   44.6420 C.3   835  TYR835      0.1736
    133  C         16.4850  -30.2340   45.4030 C.2   835  TYR835      0.2595
    134  O         17.2360  -31.0670   45.9040 O.2   835  TYR835     -0.2718
    135  CB        18.1590  -28.3410   45.4370 C.3   835  TYR835      0.0548
    136  CG        19.0950  -27.5510   44.5540 C.ar  835  TYR835     -0.0200
    137  CD1       20.3640  -28.0260   44.2550 C.ar  835  TYR835     -0.0009
    138  CD2       18.6980  -26.3420   43.9930 C.ar  835  TYR835     -0.0009
    139  CE1       21.2200  -27.3140   43.4360 C.ar  835  TYR835      0.0417
    140  CE2       19.5440  -25.6240   43.1670 C.ar  835  TYR835      0.0417
    141  CZ        20.8040  -26.1150   42.8910 C.ar  835  TYR835      0.1957
    142  OH        21.6550  -25.4020   42.0720 O.3   835  TYR835     -0.2866
    143  N         15.1590  -30.3180   45.4690 N.am  836  ASN836     -0.1974
    144  CA        14.4810  -31.4470   46.0980 C.3   836  ASN836      0.1688
    145  C         14.9090  -32.7770   45.4970 C.2   836  ASN836      0.2292
    146  O         15.0710  -33.7690   46.2070 O.2   836  ASN836     -0.2864
    147  CB        12.9620  -31.3090   45.9620 C.3   836  ASN836      0.1181
    148  CG        12.3610  -30.3740   46.9950 C.2   836  ASN836      0.2629
    149  OD1       12.3990  -29.1530   46.8420 O.2   836  ASN836     -0.2716
    150  ND2       11.7860  -30.9480   48.0490 N.am  836  ASN836     -0.0877
@<TRIPOS>BOND
     1    39    37    1
     2    37    38    1
     3    37    34    1
     4    28    27    2
     5    25    26    1
     6    43    42    2
     7    34    33    1
     8    34    35    1
     9    27    33   am
    10    27    26    1
    11    26    29    1
    12    48    47    1
    13    40    35   am
    14    40    41    1
    15    35    36    2
    16    42    41    1
    17    45    46    1
    18    45    44    1
    19    47    46    1
    20    41    44    1
    21    29    30    1
    22    31    30    2
    23   142   141    1
    24    49    50    1
    25    60    57    1
    26    50    51    1
    27    50    53    1
    28    30    32   am
    29    56    51   am
    30    56    57    1
    31    55    53    1
    32    51    52    2
    33   141   140   ar
    34   141   139   ar
    35    57    58    1
    36   140   138   ar
    37    53    54    1
    38   139   137   ar
    39   138   136   ar
    40    12    11    2
    41   131   132    1
    42   137   136   ar
    43    19    20    2
    44    19    18    1
    45    58    61   am
    46    58    59    2
    47   136   135    1
    48   132   133    1
    49   132   135    1
    50    11    10    1
    51    11    17   am
    52    61    62    1
    53    18    17    1
    54    18    21    1
    55   133   143   am
    56   133   134    2
    57    10    13    1
    58    10     9    1
    59   143   144    1
    60   145   144    1
    61   145   146    2
    62    13    14    1
    63    66    67    1
    64    66    65    1
    65    23    22    1
    66   147   144    1
    67   147   148    1
    68    70    69    1
    69    21    22    1
    70    64    63    2
    71    67    68    1
    72    15    14    1
    73    65    62    1
    74    62    63    1
    75    22    24    1
    76    14    16    1
    77   149   148    2
    78    63    72   am
    79   148   150   am
    80    69    68    2
    81    69    71    1
    82    72    73    1
    83   129   128    1
    84     4     3    2
    85    73    76    1
    86    73    74    1
    87   130   128    1
    88   128   125    1
    89    76    77    1
    90     6     8    1
    91     6     5    1
    92     3     2    1
    93    74    75    2
    94    74    83   am
    95   125   126    1
    96   125   124    1
    97   126   127    2
    98    83    84    1
    99     2     5    1
   100     2     1    1
   101    77    78    1
   102    87    84    1
   103    87    89    1
   104    87    88    1
   105     5     7    1
   106    78    79    1
   107   110   109    1
   108    84    85    1
   109   115   114    2
   110   111   109    1
   111   124   114   am
   112   109   108    2
   113   114   113    1
   114    79    80    2
   115    85    86    2
   116    85    90   am
   117   108   107    1
   118   120   118   ar
   119   120   122   ar
   120    80    81    1
   121    80    82    1
   122    90    91    1
   123   123   122    1
   124   106   107    1
   125   106   105    1
   126   113   112    1
   127   113   116    1
   128   118   117   ar
   129   122   121   ar
   130   112   103   am
   131   117   116    1
   132   117   119   ar
   133   121   119   ar
   134   103   102    1
   135   103   104    2
   136   105   102    1
   137    91    94    1
   138    91    92    1
   139    93    92    2
   140   102   101    1
   141    95    94    1
   142    95    96    1
   143    97    96    1
   144    97    98    2
   145   100    98    1
   146    98    99    1
