@<TRIPOS>MOLECULE
tmp/3v8xA00.pdb
 120 114 0 0 0
SMALL
GASTEIGER

@<TRIPOS>ATOM
      1  N         29.7120  -51.4900   27.6090 N.3   351  THR351     -0.1218
      2  CA        30.1370  -52.8580   27.3600 C.3   351  THR351      0.1862
      3  C         31.6280  -53.0330   27.5710 C.2   351  THR351      0.2287
      4  O         32.4340  -52.3160   26.9840 O.2   351  THR351     -0.2866
      5  CB        29.7750  -53.3020   25.9310 C.3   351  THR351      0.1770
      6  OG1       28.3600  -53.1790   25.7380 O.3   351  THR351     -0.2211
      7  CG2       30.1950  -54.7470   25.6970 C.3   351  THR351      0.0375
      8  N         34.6840  -55.9430   27.3510 N.3   353  SER353     -0.1217
      9  CA        35.0760  -57.2530   26.8650 C.3   353  SER353      0.1889
     10  C         36.5480  -57.4950   27.1730 C.2   353  SER353      0.2288
     11  O         37.4060  -56.6710   26.8560 O.2   353  SER353     -0.2866
     12  CB        34.8160  -57.3610   25.3650 C.3   353  SER353      0.2089
     13  OG        35.6870  -58.3010   24.7650 O.3   353  SER353     -0.2183
     14  N         39.7540  -60.4780   27.1620 N.3   355  TYR355     -0.1241
     15  CA        40.2980  -61.7840   26.8420 C.3   355  TYR355      0.1605
     16  C         41.7710  -61.7970   27.2110 C.2   355  TYR355      0.2264
     17  O         42.5330  -60.9370   26.7730 O.2   355  TYR355     -0.2867
     18  CB        40.1110  -62.1040   25.3640 C.3   355  TYR355      0.0534
     19  CG        40.7930  -63.3830   24.9480 C.ar  355  TYR355     -0.0201
     20  CD1       40.3600  -64.6110   25.4330 C.ar  355  TYR355     -0.0009
     21  CD2       41.8750  -63.3660   24.0760 C.ar  355  TYR355     -0.0009
     22  CE1       40.9820  -65.7860   25.0610 C.ar  355  TYR355      0.0417
     23  CE2       42.5030  -64.5370   23.6960 C.ar  355  TYR355      0.0417
     24  CZ        42.0500  -65.7440   24.1910 C.ar  355  TYR355      0.1957
     25  OH        42.6680  -66.9120   23.8180 O.3   355  TYR355     -0.2866
     26  N         43.7870  -58.6600   26.1400 N.3   379  ARG379     -0.1231
     27  CA        43.0840  -57.7830   25.2060 C.3   379  ARG379      0.1694
     28  C         41.7820  -57.3060   25.8380 C.2   379  ARG379      0.2592
     29  O         40.8860  -58.1030   26.1050 O.2   379  ARG379     -0.2718
     30  CB        42.7840  -58.5030   23.8880 C.3   379  ARG379      0.0321
     31  CG        44.0160  -58.9590   23.1180 C.3   379  ARG379      0.0489
     32  CD        43.6550  -59.7950   21.8870 C.3   379  ARG379      0.2205
     33  NE        43.1050  -58.9880   20.8000 N.pl3 379  ARG379     -0.0865
     34  CZ        41.8060  -58.8410   20.5540 C.cat 379  ARG379      0.5346
     35  NH1       41.4000  -58.0850   19.5400 N.pl3 379  ARG379      0.1354
     36  NH2       40.9110  -59.4500   21.3200 N.pl3 379  ARG379      0.1354
     37  N         41.6810  -56.0050   26.0820 N.am  380  GLN380     -0.1966
     38  CA        40.4740  -55.4340   26.6730 C.3   380  GLN380      0.1733
     39  C         39.8470  -54.3830   25.7580 C.2   380  GLN380      0.2617
     40  O         40.5470  -53.6500   25.0540 O.2   380  GLN380     -0.2715
     41  CB        40.7900  -54.8240   28.0420 C.3   380  GLN380      0.0408
     42  CG        39.6160  -54.1350   28.7230 C.3   380  GLN380      0.0908
     43  CD        39.9770  -53.5840   30.0900 C.2   380  GLN380      0.2608
     44  OE1       40.3750  -54.3260   30.9890 O.2   380  GLN380     -0.2717
     45  NE2       39.8470  -52.2750   30.2520 N.am  380  GLN380     -0.0878
     46  N         38.5220  -54.3280   25.7610 N.am  381  GLY381     -0.1940
     47  CA        37.8000  -53.2920   25.0520 C.3   381  GLY381      0.2014
     48  C         36.6660  -52.7800   25.9180 C.2   381  GLY381      0.2639
     49  O         35.9510  -53.5620   26.5420 O.2   381  GLY381     -0.2714
     50  N         36.5060  -51.4650   25.9820 N.am  382  VAL382     -0.1963
     51  CA        35.3670  -50.8940   26.6870 C.3   382  VAL382      0.1727
     52  C         34.6570  -49.9070   25.7720 C.2   382  VAL382      0.2616
     53  O         35.2920  -49.0470   25.1660 O.2   382  VAL382     -0.2715
     54  CB        35.7740  -50.1850   27.9980 C.3   382  VAL382      0.0290
     55  CG1       34.5420  -49.7010   28.7360 C.3   382  VAL382      0.0023
     56  CG2       36.5850  -51.1160   28.8950 C.3   382  VAL382      0.0023
     57  N         33.3400  -50.0400   25.6710 N.am  383  GLY383     -0.1955
     58  CA        32.5590  -49.1760   24.8090 C.3   383  GLY383      0.1869
     59  C         31.4090  -48.4940   25.5180 C.2   383  GLY383      0.2309
     60  O         30.6140  -49.1320   26.2040 O.2   383  GLY383     -0.2863
     61  N         35.1230  -45.3950   22.9040 N.3   421  GLY421     -0.1210
     62  CA        35.7400  -46.6790   23.1760 C.3   421  GLY421      0.1956
     63  C         37.2540  -46.6800   23.2850 C.2   421  GLY421      0.2612
     64  O         37.9490  -45.9540   22.5700 O.2   421  GLY421     -0.2717
     65  N         37.7670  -47.5130   24.1850 N.am  422  GLU422     -0.1965
     66  CA        39.2080  -47.7030   24.3220 C.3   422  GLU422      0.1733
     67  C         39.5830  -49.1740   24.2540 C.2   422  GLU422      0.2617
     68  O         38.7960  -50.0470   24.6200 O.2   422  GLU422     -0.2715
     69  CB        39.7230  -47.0920   25.6250 C.3   422  GLU422      0.0429
     70  CG        39.7830  -45.5760   25.6060 C.3   422  GLU422      0.1163
     71  CD        40.0050  -44.9840   26.9790 C.2   422  GLU422      0.3649
     72  OE1       40.2910  -45.7490   27.9240 O.co2 422  GLU422     -0.2457
     73  OE2       39.8780  -43.7510   27.1150 O.co2 422  GLU422     -0.2457
     74  N         40.7920  -49.4410   23.7760 N.am  423  SER423     -0.1936
     75  CA        41.2880  -50.8060   23.6810 C.3   423  SER423      0.2055
     76  C         42.7210  -50.8910   24.1780 C.2   423  SER423      0.2643
     77  O         43.5250  -49.9890   23.9440 O.2   423  SER423     -0.2714
     78  CB        41.2270  -51.2980   22.2370 C.3   423  SER423      0.2130
     79  OG        42.0830  -50.5250   21.4150 O.3   423  SER423     -0.2179
     80  N         43.0310  -51.9800   24.8700 N.am  424  HIS424     -0.1959
     81  CA        44.4010  -52.2700   25.2540 C.3   424  HIS424      0.1787
     82  C         44.7840  -53.6620   24.7760 C.2   424  HIS424      0.2620
     83  O         43.9700  -54.5850   24.7940 O.2   424  HIS424     -0.2715
     84  CB        44.5750  -52.1890   26.7710 C.3   424  HIS424      0.0785
     85  CG        44.1630  -50.8800   27.3610 C.ar  424  HIS424      0.0821
     86  ND1       45.0430  -49.8330   27.5400 N.ar  424  HIS424     -0.2267
     87  CD2       42.9650  -50.4500   27.8220 C.ar  424  HIS424      0.1154
     88  CE1       44.4020  -48.8120   28.0810 C.ar  424  HIS424      0.1986
     89  NE2       43.1400  -49.1610   28.2640 N.ar  424  HIS424     -0.2212
     90  N         46.0240  -53.8000   24.3300 N.am  425  ARG425     -0.1977
     91  CA        46.5970  -55.1080   24.0630 C.3   425  ARG425      0.1597
     92  C         47.8710  -55.1670   24.8830 C.2   425  ARG425      0.2287
     93  O         48.9640  -54.9060   24.3870 O.2   425  ARG425     -0.2864
     94  CB        46.8620  -55.3060   22.5730 C.3   425  ARG425      0.0334
     95  CG        45.5990  -55.2310   21.7270 C.3   425  ARG425      0.0492
     96  CD        45.8010  -55.8130   20.3320 C.3   425  ARG425      0.2205
     97  NE        46.7800  -55.0670   19.5460 N.pl3 425  ARG425     -0.0865
     98  CZ        46.4960  -53.9810   18.8320 C.cat 425  ARG425      0.5346
     99  NH1       45.2570  -53.5070   18.8070 N.pl3 425  ARG425      0.1354
    100  NH2       47.4490  -53.3640   18.1450 N.pl3 425  ARG425      0.1354
    101  N         44.4760  -47.9130   21.8260 N.3   452  GLY452     -0.1225
    102  CA        43.7270  -47.1020   20.8920 C.3   452  GLY452      0.1811
    103  C         42.4860  -46.4880   21.5050 C.2   452  GLY452      0.2280
    104  O         41.8180  -47.1070   22.3370 O.2   452  GLY452     -0.2866
    105  N         38.8840  -44.3210   20.4240 N.3   454  ASN454     -0.1240
    106  CA        38.0270  -44.0240   19.2760 C.3   454  ASN454      0.1653
    107  C         36.6370  -43.4820   19.6280 C.2   454  ASN454      0.2266
    108  O         35.8710  -44.1140   20.3510 O.2   454  ASN454     -0.2867
    109  CB        37.9050  -45.2590   18.3740 C.3   454  ASN454      0.1155
    110  CG        37.6650  -44.8990   16.9200 C.2   454  ASN454      0.2627
    111  OD1       38.1430  -43.8730   16.4330 O.2   454  ASN454     -0.2716
    112  ND2       36.9200  -45.7430   16.2190 N.am  454  ASN454     -0.0877
    113  N         45.8190  -43.5140   18.3880 N.3   523  ASN523     -0.1240
    114  CA        46.4460  -44.8060   18.6530 C.3   523  ASN523      0.1653
    115  C         47.8430  -44.6670   19.2420 C.2   523  ASN523      0.2266
    116  O         48.4540  -43.6030   19.1490 O.2   523  ASN523     -0.2867
    117  CB        46.4780  -45.6550   17.3810 C.3   523  ASN523      0.1155
    118  CG        45.0920  -46.0820   16.9360 C.2   523  ASN523      0.2627
    119  OD1       44.6570  -47.2040   17.2050 O.2   523  ASN523     -0.2716
    120  ND2       44.3840  -45.1830   16.2630 N.am  523  ASN523     -0.0877
@<TRIPOS>BOND
     1   112   110   am
     2   120   118   am
     3   111   110    2
     4   110   109    1
     5   118   119    2
     6   118   117    1
     7   117   114    1
     8   100    98    1
     9   109   106    1
    10   113   114    1
    11   114   115    1
    12    99    98    1
    13    98    97    2
    14   116   115    2
    15   106   107    1
    16   106   105    1
    17    35    34    1
    18    97    96    1
    19   107   108    2
    20    96    95    1
    21    34    33    2
    22    34    36    1
    23    33    32    1
    24   102   103    1
    25   102   101    1
    26    79    78    1
    27   103   104    2
    28    95    94    1
    29    32    31    1
    30    78    75    1
    31    64    63    2
    32    94    91    1
    33    61    62    1
    34    31    30    1
    35    62    63    1
    36    63    65   am
    37    75    74    1
    38    75    76    1
    39    23    21   ar
    40    23    24   ar
    41    74    67   am
    42    25    24    1
    43    30    27    1
    44    77    76    2
    45    91    90    1
    46    91    92    1
    47    21    19   ar
    48    76    80   am
    49    65    66    1
    50    24    22   ar
    51    67    66    1
    52    67    68    2
    53    66    69    1
    54    90    82   am
    55    93    92    2
    56    13    12    1
    57    82    83    2
    58    82    81    1
    59    58    59    1
    60    58    57    1
    61    80    81    1
    62    19    18    1
    63    19    20   ar
    64    47    46    1
    65    47    48    1
    66    40    39    2
    67    22    20   ar
    68    53    52    2
    69    27    28    1
    70    27    26    1
    71    81    84    1
    72    18    15    1
    73    12     9    1
    74    59    60    2
    75    70    69    1
    76    70    71    1
    77    57    52   am
    78     7     5    1
    79     6     5    1
    80    39    46   am
    81    39    38    1
    82    52    51    1
    83    28    37   am
    84    28    29    2
    85    48    50   am
    86    48    49    2
    87     5     2    1
    88    50    51    1
    89    37    38    1
    90    38    41    1
    91    51    54    1
    92    84    85    1
    93    17    16    2
    94    15    14    1
    95    15    16    1
    96    11    10    2
    97     9    10    1
    98     9     8    1
    99    71    73   ar
   100    71    72   ar
   101     4     3    2
   102     2     3    1
   103     2     1    1
   104    85    86   ar
   105    85    87   ar
   106    86    88   ar
   107    87    89   ar
   108    54    55    1
   109    54    56    1
   110    41    42    1
   111    88    89   ar
   112    42    43    1
   113    43    45   am
   114    43    44    2
