@<TRIPOS>MOLECULE
tmp/3v94F00.pdb
 191 186 0 0 0
SMALL
GASTEIGER

@<TRIPOS>ATOM
      1  N          2.5960   22.8290  -54.5240 N.3    91  TYR91      -0.1227
      2  CA         1.4810   21.9170  -54.8110 C.3    91  TYR91       0.1736
      3  C          1.1110   21.7520  -56.2960 C.2    91  TYR91       0.2595
      4  O          1.1290   20.6370  -56.8140 O.2    91  TYR91      -0.2718
      5  CB         0.2440   22.3790  -54.0390 C.3    91  TYR91       0.0548
      6  CG        -0.9480   21.4470  -54.1120 C.ar   91  TYR91      -0.0200
      7  CD1       -1.1550   20.4620  -53.1420 C.ar   91  TYR91      -0.0009
      8  CD2       -1.8920   21.5700  -55.1380 C.ar   91  TYR91      -0.0009
      9  CE1       -2.2680   19.6300  -53.1900 C.ar   91  TYR91       0.0417
     10  CE2       -3.0090   20.7430  -55.1950 C.ar   91  TYR91       0.0417
     11  CZ        -3.1930   19.7760  -54.2210 C.ar   91  TYR91       0.1957
     12  OH        -4.2970   18.9570  -54.2850 O.3    91  TYR91      -0.2866
     13  N          0.7730   22.8490  -56.9720 N.am   92  HIS92      -0.1975
     14  CA         0.3710   22.7770  -58.3750 C.3    92  HIS92       0.1656
     15  C          1.5470   22.6540  -59.3370 C.2    92  HIS92       0.2291
     16  O          1.9110   23.5920  -60.0470 O.2    92  HIS92      -0.2864
     17  CB        -0.4980   23.9800  -58.7200 C.3    92  HIS92       0.0771
     18  CG        -1.7660   24.0380  -57.9240 C.ar   92  HIS92       0.0820
     19  ND1       -1.8840   24.7660  -56.7590 N.ar   92  HIS92      -0.2267
     20  CD2       -2.9600   23.4230  -58.1060 C.ar   92  HIS92       0.1154
     21  CE1       -3.0960   24.6000  -56.2620 C.ar   92  HIS92       0.1986
     22  NE2       -3.7690   23.7890  -57.0590 N.ar   92  HIS92      -0.2212
     23  N         -4.1600   31.9210  -56.8180 N.3   141  THR141     -0.1218
     24  CA        -5.5440   31.6640  -57.2050 C.3   141  THR141      0.1862
     25  C         -6.1510   32.6260  -58.2160 C.2   141  THR141      0.2287
     26  O         -5.5480   33.6420  -58.5780 O.2   141  THR141     -0.2866
     27  CB        -6.4680   31.7030  -55.9990 C.3   141  THR141      0.1770
     28  OG1       -6.6080   33.0620  -55.5750 O.3   141  THR141     -0.2211
     29  CG2       -5.9110   30.8480  -54.8680 C.3   141  THR141      0.0375
     30  N         -8.8380   34.4070  -57.6790 N.3   143  ALA143     -0.1245
     31  CA        -9.1890   35.6320  -56.9760 C.3   143  ALA143      0.1562
     32  C         -7.9900   36.5820  -56.9100 C.2   143  ALA143      0.2260
     33  O         -8.1420   37.8010  -57.0490 O.2   143  ALA143     -0.2867
     34  CB        -9.6980   35.3040  -55.5730 C.3   143  ALA143      0.0290
     35  N        -12.7650   25.0570  -58.8420 N.3   206  MET206     -0.1230
     36  CA       -13.3160   24.9050  -57.4980 C.3   206  MET206      0.1702
     37  C        -14.5930   25.7010  -57.1890 C.2   206  MET206      0.2593
     38  O        -15.3700   25.3070  -56.3150 O.2   206  MET206     -0.2718
     39  CB       -12.2450   25.2500  -56.4580 C.3   206  MET206      0.0401
     40  CG       -10.9210   24.4900  -56.6250 C.3   206  MET206      0.0596
     41  SD       -11.0050   22.7010  -56.3250 S.3   206  MET206     -0.1393
     42  CE       -11.3980   22.6840  -54.5600 C.3   206  MET206      0.0692
     43  N        -14.8290   26.8090  -57.8850 N.am  207  SER207     -0.1952
     44  CA       -16.0330   27.5840  -57.5900 C.3   207  SER207      0.1924
     45  C        -17.3270   26.8090  -57.9020 C.2   207  SER207      0.2314
     46  O        -18.3720   27.0930  -57.3260 O.2   207  SER207     -0.2863
     47  CB       -16.0220   28.9270  -58.3420 C.3   207  SER207      0.2116
     48  OG       -16.2950   28.7630  -59.7240 O.3   207  SER207     -0.2180
     49  N         -8.5360   15.1780  -58.5270 N.3   245  ASP245     -0.1225
     50  CA        -7.7900   16.4050  -58.3360 C.3   245  ASP245      0.1805
     51  C         -7.7080   16.8560  -56.8940 C.2   245  ASP245      0.2597
     52  O         -6.6560   17.3180  -56.4640 O.2   245  ASP245     -0.2718
     53  CB        -8.3040   17.5820  -59.1910 C.3   245  ASP245      0.1424
     54  CG        -7.2050   18.6220  -59.4130 C.2   245  ASP245      0.3668
     55  OD1       -7.4230   19.7960  -59.7600 O.co2 245  ASP245     -0.2456
     56  OD2       -6.0390   18.2270  -59.2360 O.co2 245  ASP245     -0.2456
     57  N         -8.8040   16.7460  -56.1510 N.am  246  ILE246     -0.1980
     58  CA        -8.7980   17.1460  -54.7450 C.3   246  ILE246      0.1595
     59  C         -8.7440   15.9290  -53.8210 C.2   246  ILE246      0.2287
     60  O         -8.9750   16.0550  -52.6270 O.2   246  ILE246     -0.2864
     61  CB       -10.0770   17.9340  -54.3610 C.3   246  ILE246      0.0276
     62  CG1      -11.3050   17.0150  -54.4830 C.3   246  ILE246      0.0022
     63  CG2      -10.2300   19.1580  -55.2520 C.3   246  ILE246      0.0022
     64  CD1      -12.5630   17.5660  -53.8450 C.3   246  ILE246      0.0001
     65  N         -6.0520   13.7140  -52.9620 N.3   248  ALA248     -0.1231
     66  CA        -4.8030   13.1850  -52.4130 C.3   248  ALA248      0.1694
     67  C         -4.9340   12.8650  -50.9200 C.2   248  ALA248      0.2592
     68  O         -4.3090   11.9260  -50.4210 O.2   248  ALA248     -0.2718
     69  CB        -3.6480   14.1820  -52.6420 C.3   248  ALA248      0.0304
     70  N         -5.7460   13.6390  -50.2090 N.am  249  SER249     -0.1952
     71  CA        -5.9160   13.4100  -48.7860 C.3   249  SER249      0.1924
     72  C         -6.7750   12.1860  -48.4940 C.2   249  SER249      0.2314
     73  O         -6.9920   11.8620  -47.3390 O.2   249  SER249     -0.2863
     74  CB        -6.5220   14.6380  -48.1030 C.3   249  SER249      0.2116
     75  OG        -7.8830   14.7830  -48.4350 O.3   249  SER249     -0.2180
     76  N          0.7070   16.0130  -48.9900 N.3   259  TRP259     -0.1241
     77  CA         0.0350   17.0540  -49.7410 C.3   259  TRP259      0.1605
     78  C         -0.4110   18.2680  -48.9420 C.2   259  TRP259      0.2264
     79  O         -1.1280   19.1370  -49.4500 O.2   259  TRP259     -0.2867
     80  CB        -1.1180   16.4400  -50.5280 C.3   259  TRP259      0.0550
     81  CG        -0.6040   15.4430  -51.5100 C.ar  259  TRP259      0.0003
     82  CD1       -0.4330   14.1100  -51.3050 C.ar  259  TRP259      0.0946
     83  CD2       -0.1300   15.7130  -52.8370 C.ar  259  TRP259      0.0152
     84  NE1        0.1170   13.5260  -52.4190 N.ar  259  TRP259     -0.2442
     85  CE2        0.3140   14.4870  -53.3760 C.ar  259  TRP259      0.0810
     86  CE3       -0.0360   16.8730  -53.6210 C.ar  259  TRP259      0.0012
     87  CZ2        0.8450   14.3800  -54.6710 C.ar  259  TRP259      0.0191
     88  CZ3        0.4920   16.7720  -54.9110 C.ar  259  TRP259      0.0001
     89  CH2        0.9260   15.5290  -55.4210 C.ar  259  TRP259      0.0015
     90  N          0.0960   22.2010  -49.9060 N.3   262  ILE262     -0.1231
     91  CA        -0.8400   23.1730  -50.4580 C.3   262  ILE262      0.1692
     92  C         -0.8620   24.4030  -49.5530 C.2   262  ILE262      0.2591
     93  O         -1.1130   25.5130  -50.0120 O.2   262  ILE262     -0.2718
     94  CB        -2.2740   22.5990  -50.5300 C.3   262  ILE262      0.0266
     95  CG1       -3.2260   23.6210  -51.1630 C.3   262  ILE262      0.0019
     96  CG2       -2.7650   22.2110  -49.1250 C.3   262  ILE262      0.0020
     97  CD1       -3.2130   23.6100  -52.6620 C.3   262  ILE262      0.0001
     98  N         -0.5890   24.2110  -48.2630 N.am  263  LEU263     -0.1980
     99  CA        -0.6040   25.3370  -47.3400 C.3   263  LEU263      0.1596
    100  C          0.5960   26.2650  -47.5740 C.2   263  LEU263      0.2287
    101  O          0.5620   27.4430  -47.2070 O.2   263  LEU263     -0.2864
    102  CB        -0.6420   24.8310  -45.8930 C.3   263  LEU263      0.0297
    103  CG        -1.8550   23.9510  -45.5420 C.3   263  LEU263      0.0022
    104  CD1       -1.7780   23.5310  -44.0810 C.3   263  LEU263      0.0001
    105  CD2       -3.1560   24.7180  -45.7870 C.3   263  LEU263      0.0001
    106  N         -0.4550   28.7070  -50.0970 N.3   266  PHE266     -0.1241
    107  CA        -1.3700   29.6200  -49.4180 C.3   266  PHE266      0.1605
    108  C         -0.5520   30.6660  -48.6630 C.2   266  PHE266      0.2264
    109  O         -0.8020   31.8640  -48.7920 O.2   266  PHE266     -0.2867
    110  CB        -2.2740   28.8620  -48.4360 C.3   266  PHE266      0.0534
    111  CG        -3.3940   28.0880  -49.0970 C.ar  266  PHE266     -0.0203
    112  CD1       -3.4510   27.9490  -50.4800 C.ar  266  PHE266     -0.0042
    113  CD2       -4.3960   27.5040  -48.3270 C.ar  266  PHE266     -0.0042
    114  CE1       -4.4850   27.2480  -51.0840 C.ar  266  PHE266     -0.0003
    115  CE2       -5.4430   26.7940  -48.9280 C.ar  266  PHE266     -0.0003
    116  CZ        -5.4840   26.6690  -50.3060 C.ar  266  PHE266     -0.0000
    117  N          1.0300   33.0580  -51.0600 N.3   269  GLN269     -0.1245
    118  CA         0.1240   34.0500  -51.6180 C.3   269  GLN269      0.1566
    119  C         -0.1630   35.1080  -50.5630 C.2   269  GLN269      0.2260
    120  O         -0.1560   36.3020  -50.8590 O.2   269  GLN269     -0.2867
    121  CB        -1.1970   33.4110  -52.0700 C.3   269  GLN269      0.0367
    122  CG        -2.1990   34.4310  -52.6300 C.3   269  GLN269      0.0905
    123  CD        -3.4260   33.7710  -53.2500 C.2   269  GLN269      0.2608
    124  OE1       -3.3080   32.8630  -54.0720 O.2   269  GLN269     -0.2717
    125  NE2       -4.6080   34.2310  -52.8580 N.am  269  GLN269     -0.0878
    126  N         -5.9200   37.0040  -48.0110 N.3   281  THR281     -0.1204
    127  CA        -6.9920   36.0220  -48.1370 C.3   281  THR281      0.1979
    128  C         -7.2450   35.3370  -46.8000 C.2   281  THR281      0.2460
    129  O         -6.3380   34.7740  -46.1940 O.2   281  THR281     -0.2732
    130  CB        -6.6640   34.9350  -49.1820 C.3   281  THR281      0.1783
    131  OG1       -6.4600   35.5460  -50.4620 O.3   281  THR281     -0.2211
    132  CG2       -7.8100   33.9320  -49.2880 C.3   281  THR281      0.0376
    133  N         -8.4940   35.3770  -46.3290 N.am  282  PRO282     -0.2717
    134  CA        -8.9080   34.7730  -45.0650 C.3   282  PRO282      0.1536
    135  C         -8.0540   33.6730  -44.4570 C.2   282  PRO282      0.2599
    136  O         -7.1400   33.9750  -43.6950 O.2   282  PRO282     -0.2715
    137  CB       -10.3280   34.3520  -45.3600 C.3   282  PRO282      0.0310
    138  CG       -10.8200   35.6060  -46.0750 C.3   282  PRO282      0.0237
    139  CD        -9.6590   35.9610  -47.0210 C.3   282  PRO282      0.0939
    140  N         -8.3000   32.4120  -44.7740 N.am  283  GLY283     -0.1941
    141  CA        -7.5060   31.3760  -44.1270 C.3   283  GLY283      0.2014
    142  C         -6.1900   30.9420  -44.7540 C.2   283  GLY283      0.2638
    143  O         -5.7560   29.8120  -44.5260 O.2   283  GLY283     -0.2714
    144  N         -5.5380   31.8230  -45.5140 N.am  284  PHE284     -0.1973
    145  CA        -4.2890   31.4590  -46.1710 C.3   284  PHE284      0.1639
    146  C         -3.0210   31.5020  -45.3080 C.2   284  PHE284      0.2290
    147  O         -2.0720   30.7660  -45.5690 O.2   284  PHE284     -0.2864
    148  CB        -4.0990   32.2960  -47.4470 C.3   284  PHE284      0.0560
    149  CG        -4.7620   31.7040  -48.6770 C.ar  284  PHE284     -0.0200
    150  CD1       -4.3570   32.0920  -49.9550 C.ar  284  PHE284     -0.0042
    151  CD2       -5.7810   30.7540  -48.5610 C.ar  284  PHE284     -0.0042
    152  CE1       -4.9500   31.5460  -51.1010 C.ar  284  PHE284     -0.0003
    153  CE2       -6.3830   30.1980  -49.7000 C.ar  284  PHE284     -0.0003
    154  CZ        -5.9680   30.5930  -50.9730 C.ar  284  PHE284     -0.0000
    155  N         -7.2320   22.5720  -38.5490 N.3   293  SER293     -0.1202
    156  CA        -7.7760   23.4520  -39.5740 C.3   293  SER293      0.2020
    157  C         -8.1860   22.6740  -40.8130 C.2   293  SER293      0.2618
    158  O         -8.9550   23.1620  -41.6280 O.2   293  SER293     -0.2717
    159  CB        -6.7750   24.5400  -39.9400 C.3   293  SER293      0.2103
    160  OG        -6.8110   25.5630  -38.9600 O.3   293  SER293     -0.2182
    161  N         -7.6760   21.4550  -40.9410 N.am  294  GLN294     -0.1979
    162  CA        -7.9900   20.5860  -42.0650 C.3   294  GLN294      0.1601
    163  C         -9.4030   20.0080  -41.9550 C.2   294  GLN294      0.2287
    164  O        -10.0620   19.7580  -42.9660 O.2   294  GLN294     -0.2864
    165  CB        -6.9830   19.4330  -42.1330 C.3   294  GLN294      0.0394
    166  CG        -5.6490   19.7960  -42.7450 C.3   294  GLN294      0.0908
    167  CD        -5.7500   20.0400  -44.2400 C.2   294  GLN294      0.2608
    168  OE1       -5.9970   19.1130  -45.0180 O.2   294  GLN294     -0.2717
    169  NE2       -5.5670   21.2940  -44.6490 N.am  294  GLN294     -0.0878
    170  N        -12.2340   21.8730  -43.6210 N.3   297  PHE297     -0.1241
    171  CA       -12.0590   21.7480  -45.0630 C.3   297  PHE297      0.1605
    172  C        -12.4760   20.3710  -45.5300 C.2   297  PHE297      0.2264
    173  O        -13.1130   20.2400  -46.5630 O.2   297  PHE297     -0.2867
    174  CB       -10.6020   21.9970  -45.4700 C.3   297  PHE297      0.0534
    175  CG       -10.3480   21.8300  -46.9430 C.ar  297  PHE297     -0.0203
    176  CD1      -10.8910   22.7180  -47.8630 C.ar  297  PHE297     -0.0042
    177  CD2       -9.5780   20.7650  -47.4140 C.ar  297  PHE297     -0.0042
    178  CE1      -10.6760   22.5520  -49.2380 C.ar  297  PHE297     -0.0003
    179  CE2       -9.3530   20.5880  -48.7830 C.ar  297  PHE297     -0.0003
    180  CZ        -9.9060   21.4860  -49.6970 C.ar  297  PHE297     -0.0000
    181  N        -15.5760   20.1940  -48.2320 N.3   301  PHE301     -0.1241
    182  CA       -15.2620   19.8680  -49.6280 C.3   301  PHE301      0.1605
    183  C        -14.9740   18.4320  -50.0010 C.2   301  PHE301      0.2264
    184  O        -15.6050   17.8730  -50.8950 O.2   301  PHE301     -0.2867
    185  CB       -14.0520   20.6790  -50.1080 C.3   301  PHE301      0.0534
    186  CG       -14.3770   22.0640  -50.5250 C.ar  301  PHE301     -0.0203
    187  CD1      -15.0190   22.3040  -51.7320 C.ar  301  PHE301     -0.0042
    188  CD2      -14.0560   23.1410  -49.7050 C.ar  301  PHE301     -0.0042
    189  CE1      -15.3420   23.5970  -52.1230 C.ar  301  PHE301     -0.0003
    190  CE2      -14.3720   24.4410  -50.0820 C.ar  301  PHE301     -0.0003
    191  CZ       -15.0190   24.6690  -51.2970 C.ar  301  PHE301     -0.0000
@<TRIPOS>BOND
     1    16    15    2
     2    55    54   ar
     3    48    47    1
     4    54    56   ar
     5    54    53    1
     6    15    14    1
     7    53    50    1
     8    35    36    1
     9    17    14    1
    10    17    18    1
    11    26    25    2
    12    49    50    1
    13    14    13    1
    14    47    44    1
    15    50    51    1
    16    25    24    1
    17    20    18   ar
    18    20    22   ar
    19    18    19   ar
    20    45    44    1
    21    45    46    2
    22    43    44    1
    23    43    37   am
    24    30    31    1
    25    36    37    1
    26    36    39    1
    27    24    23    1
    28    24    27    1
    29    37    38    2
    30    22    21   ar
    31    33    32    2
    32    31    32    1
    33    31    34    1
    34    13     3   am
    35    51    52    2
    36    51    57   am
    37     4     3    2
    38    19    21   ar
    39    40    39    1
    40    40    41    1
    41    41    42    1
    42     3     2    1
    43    57    58    1
    44    27    28    1
    45    27    29    1
    46    89    88   ar
    47    89    87   ar
    48    63    61    1
    49    10     8   ar
    50    10    11   ar
    51     8     6   ar
    52    88    86   ar
    53     2     1    1
    54     2     5    1
    55    58    61    1
    56    58    59    1
    57    87    85   ar
    58    62    61    1
    59    62    64    1
    60    12    11    1
    61    11     9   ar
    62     6     5    1
    63     6     7   ar
    64   124   123    2
    65    59    60    2
    66    86    83   ar
    67    85    83   ar
    68    85    84   ar
    69   123   125   am
    70   123   122    1
    71     9     7   ar
    72    65    66    1
    73    83    81   ar
    74    97    95    1
    75    69    66    1
    76   122   121    1
    77    84    82   ar
    78    66    67    1
    79   189   187   ar
    80   189   191   ar
    81   121   118    1
    82   187   186   ar
    83   118   117    1
    84   118   119    1
    85    81    82   ar
    86    81    80    1
    87   191   190   ar
    88    95    94    1
    89   152   154   ar
    90   152   150   ar
    91   114   112   ar
    92   114   116   ar
    93   154   153   ar
    94    67    68    2
    95    67    70   am
    96   184   183    2
    97   120   119    2
    98    94    91    1
    99    94    96    1
   100    80    77    1
   101   186   185    1
   102   186   188   ar
   103   112   111   ar
   104   131   130    1
   105    91    90    1
   106    91    92    1
   107   116   115   ar
   108    70    71    1
   109   185   182    1
   110   106   107    1
   111   190   188   ar
   112    93    92    2
   113   183   182    1
   114   150   149   ar
   115    77    76    1
   116    77    78    1
   117   153   151   ar
   118   180   178   ar
   119   180   179   ar
   120   182   181    1
   121    92    98   am
   122    79    78    2
   123   107   108    1
   124   107   110    1
   125   132   130    1
   126   178   176   ar
   127   130   127    1
   128   111   110    1
   129   111   113   ar
   130   115   113   ar
   131   109   108    2
   132    71    72    1
   133    71    74    1
   134   179   177   ar
   135   149   151   ar
   136   149   148    1
   137    72    73    2
   138    75    74    1
   139    98    99    1
   140   127   126    1
   141   127   128    1
   142   176   175   ar
   143   100    99    1
   144   100   101    2
   145   148   145    1
   146   177   175   ar
   147    99   102    1
   148   139   133    1
   149   139   138    1
   150   175   174    1
   151   128   133   am
   152   128   129    2
   153   173   172    2
   154   133   134    1
   155   145   144    1
   156   145   146    1
   157   138   137    1
   158   102   103    1
   159   105   103    1
   160   147   146    2
   161   103   104    1
   162   172   171    1
   163   144   142   am
   164   174   171    1
   165   137   134    1
   166   134   135    1
   167   171   170    1
   168   168   167    2
   169   140   135   am
   170   140   141    1
   171   142   143    2
   172   142   141    1
   173   169   167   am
   174   135   136    2
   175   167   166    1
   176   164   163    2
   177   166   165    1
   178   165   162    1
   179   162   163    1
   180   162   161    1
   181   158   157    2
   182   161   157   am
   183   157   156    1
   184   159   156    1
   185   159   160    1
   186   156   155    1
