@<TRIPOS>MOLECULE
tmp/3v97A00.pdb
 152 148 0 0 0
SMALL
GASTEIGER

@<TRIPOS>ATOM
      1  N         -1.9860   -4.3230   20.8560 N.3   173  PRO173     -0.2102
      2  CA        -1.6940   -3.2740   21.8590 C.3   173  PRO173      0.1504
      3  C         -2.0610   -1.8610   21.3280 C.2   173  PRO173      0.2575
      4  O         -2.3680   -0.9840   22.1270 O.2   173  PRO173     -0.2718
      5  CB        -0.1960   -3.4000   22.1180 C.3   173  PRO173      0.0282
      6  CG         0.3580   -4.3590   21.0450 C.3   173  PRO173      0.0208
      7  CD        -0.7970   -5.1080   20.4430 C.3   173  PRO173      0.0893
      8  N         -2.0840   -1.6670   20.0010 N.am  174  ILE174     -0.1980
      9  CA        -2.5930   -0.4260   19.4070 C.3   174  ILE174      0.1595
     10  C         -3.5750   -0.7410   18.2800 C.2   174  ILE174      0.2287
     11  O         -3.1940   -1.3470   17.2600 O.2   174  ILE174     -0.2864
     12  CB        -1.4450    0.4870   18.8530 C.3   174  ILE174      0.0276
     13  CG1       -0.3950    0.8460   19.9530 C.3   174  ILE174      0.0022
     14  CG2       -2.0540    1.7780   18.1780 C.3   174  ILE174      0.0022
     15  CD1        0.9230    1.3620   19.3640 C.3   174  ILE174      0.0001
     16  N         11.0570    0.5690   12.4240 N.3   196  ASP196     -0.1225
     17  CA        10.5050    0.4450   13.7730 C.3   196  ASP196      0.1790
     18  C         11.3040   -0.6650   14.4880 C.2   196  ASP196      0.2440
     19  O         11.1730   -1.8390   14.1440 O.2   196  ASP196     -0.2733
     20  CB         8.9940    0.1610   13.7450 C.3   196  ASP196      0.1423
     21  CG         8.3780   -0.0140   15.1470 C.2   196  ASP196      0.3668
     22  OD1        9.1100   -0.0500   16.1810 O.co2 196  ASP196     -0.2456
     23  OD2        7.0940   -0.1030   15.2480 O.co2 196  ASP196     -0.2456
     24  N         12.1540   -0.2730   15.4630 N.am  197  PRO197     -0.2718
     25  CA        13.1170   -1.2820   15.9730 C.3   197  PRO197      0.1535
     26  C         12.6030   -1.9050   17.2420 C.2   197  PRO197      0.2598
     27  O         13.2820   -2.7340   17.8560 O.2   197  PRO197     -0.2715
     28  CB        14.3860   -0.4660   16.2310 C.3   197  PRO197      0.0310
     29  CG        13.8440    0.8900   16.7260 C.3   197  PRO197      0.0237
     30  CD        12.5670    1.1170   15.8170 C.3   197  PRO197      0.0939
     31  N         11.3770   -1.5690   17.5830 N.am  198  MET198     -0.1964
     32  CA        10.6280   -2.2260   18.6760 C.3   198  MET198      0.1736
     33  C          9.2190   -2.5000   18.1960 C.2   198  MET198      0.2617
     34  O          8.2180   -2.1500   18.8490 O.2   198  MET198     -0.2715
     35  CB        10.5970   -1.3620   19.9110 C.3   198  MET198      0.0427
     36  CG        12.0060   -1.2230   20.5830 C.3   198  MET198      0.0599
     37  SD        11.9820    0.1980   21.7600 S.3   198  MET198     -0.1393
     38  CE        11.9660    1.5300   20.5710 C.3   198  MET198      0.0692
     39  N          9.1400   -3.2730   17.1180 N.am  199  CYS199     -0.1954
     40  CA         7.9260   -3.2700   16.3040 C.3   199  CYS199      0.1843
     41  C          6.7710   -4.1250   16.8040 C.2   199  CYS199      0.2626
     42  O          5.6620   -3.9480   16.3170 O.2   199  CYS199     -0.2714
     43  CB         8.2600   -3.5870   14.8520 C.3   199  CYS199      0.0997
     44  SG         8.6320   -5.3870   14.6570 S.3   199  CYS199     -0.0797
     45  N          6.9520   -5.0210   17.7940 N.am  200  GLY200     -0.1940
     46  CA         5.7550   -5.7380   18.2770 C.3   200  GLY200      0.2014
     47  C          5.1640   -6.5690   17.1210 C.2   200  GLY200      0.2639
     48  O          5.9080   -7.1020   16.2760 O.2   200  GLY200     -0.2714
     49  N          3.8350   -6.6390   17.0810 N.am  201  SER201     -0.1949
     50  CA         3.0280   -7.2690   16.0240 C.3   201  SER201      0.1924
     51  C          3.1880   -6.6070   14.5790 C.2   201  SER201      0.2314
     52  O          2.6530   -7.1110   13.5760 O.2   201  SER201     -0.2863
     53  CB         1.4940   -7.2430   16.4880 C.3   201  SER201      0.2116
     54  OG         0.9100   -5.8960   16.3010 O.3   201  SER201     -0.2180
     55  N          2.0490   -3.6820   13.5250 N.3   203  THR203     -0.1203
     56  CA         0.9560   -2.8960   13.1140 C.3   203  THR203      0.1994
     57  C          1.2600   -1.5150   12.5670 C.2   203  THR203      0.2617
     58  O          0.7710   -1.1620   11.4930 O.2   203  THR203     -0.2717
     59  CB        -0.1840   -2.8320   14.2780 C.3   203  THR203      0.1784
     60  OG1       -0.5830   -4.1740   14.5320 O.3   203  THR203     -0.2211
     61  CG2       -1.4190   -2.1700   13.7760 C.3   203  THR203      0.0376
     62  N          2.0390   -0.7290   13.2840 N.am  204  LEU204     -0.1979
     63  CA         2.5340    0.5410   12.7660 C.3   204  LEU204      0.1596
     64  C          3.1160    0.4660   11.3410 C.2   204  LEU204      0.2287
     65  O          2.8500    1.3290   10.4690 O.2   204  LEU204     -0.2864
     66  CB         3.6100    1.0700   13.6560 C.3   204  LEU204      0.0297
     67  CG         3.2840    1.9200   14.9010 C.3   204  LEU204      0.0022
     68  CD1        1.8990    1.9240   15.5150 C.3   204  LEU204      0.0001
     69  CD2        4.4060    1.8880   15.9330 C.3   204  LEU204      0.0001
     70  N         12.6090   -6.4640   16.5160 N.3   263  ASP263     -0.1225
     71  CA        12.1210   -6.5950   17.9010 C.3   263  ASP263      0.1805
     72  C         12.9320   -7.7580   18.5720 C.2   263  ASP263      0.2598
     73  O         13.4590   -8.6790   17.8570 O.2   263  ASP263     -0.2718
     74  CB        10.6250   -6.8760   17.8870 C.3   263  ASP263      0.1424
     75  CG         9.9490   -6.6870   19.2620 C.2   263  ASP263      0.3668
     76  OD1       10.3110   -7.4140   20.2290 O.co2 263  ASP263     -0.2456
     77  OD2        9.0180   -5.8280   19.3830 O.co2 263  ASP263     -0.2456
     78  N         13.1040   -7.6880   19.9130 N.am  264  SER264     -0.1938
     79  CA        13.9650   -8.6470   20.6250 C.3   264  SER264      0.2055
     80  C         13.2620   -9.9790   20.8230 C.2   264  SER264      0.2643
     81  O         13.9110  -10.9910   20.9760 O.2   264  SER264     -0.2714
     82  CB        14.3780   -8.0980   21.9980 C.3   264  SER264      0.2130
     83  OG        13.2130   -7.8930   22.8290 O.3   264  SER264     -0.2179
     84  N         11.9330   -9.9500   20.8780 N.am  265  ASP265     -0.1971
     85  CA        11.1020  -11.0790   21.1510 C.3   265  ASP265      0.1709
     86  C         10.7740  -11.8880   19.8270 C.2   265  ASP265      0.2293
     87  O         10.0860  -11.3800   18.9230 O.2   265  ASP265     -0.2864
     88  CB         9.8200  -10.5460   21.7960 C.3   265  ASP265      0.1436
     89  CG         8.8070  -11.6170   22.0150 C.2   265  ASP265      0.3671
     90  OD1        8.9600  -12.7130   21.4270 O.co2 265  ASP265     -0.2456
     91  OD2        7.8580  -11.4260   22.7850 O.co2 265  ASP265     -0.2456
     92  N          6.7000  -12.4240   18.7500 N.3   268  VAL268     -0.1245
     93  CA         6.0740  -11.3250   18.0320 C.3   268  VAL268      0.1561
     94  C          6.5930  -11.2030   16.6180 C.2   268  VAL268      0.2260
     95  O          5.8300  -10.8640   15.7940 O.2   268  VAL268     -0.2867
     96  CB         6.2000   -9.9220   18.7290 C.3   268  VAL268      0.0252
     97  CG1        5.6150   -9.9520   20.1330 C.3   268  VAL268      0.0019
     98  CG2        7.6710   -9.3630   18.6690 C.3   268  VAL268      0.0019
     99  N         16.0700   -8.8230   16.7710 N.3   290  LYS290     -0.1231
    100  CA        17.2380   -7.9810   16.9490 C.3   290  LYS290      0.1693
    101  C         16.9530   -7.0380   18.1190 C.2   290  LYS290      0.2592
    102  O         15.8170   -6.5110   18.2360 O.2   290  LYS290     -0.2718
    103  CB        17.5140   -7.1780   15.7010 C.3   290  LYS290      0.0285
    104  CG        18.9840   -6.8960   15.5180 C.3   290  LYS290      0.0035
    105  CD        19.2200   -5.7530   14.5560 C.3   290  LYS290      0.0206
    106  CE        20.1080   -6.1950   13.3570 C.3   290  LYS290      0.1093
    107  NZ        21.4620   -6.8170   13.6380 N.3   290  LYS290     -0.1314
    108  N         17.9380   -6.8520   18.9920 N.am  291  ASP291     -0.1960
    109  CA        17.7740   -5.9440   20.1160 C.3   291  ASP291      0.1840
    110  C         18.0590   -4.5210   19.6970 C.2   291  ASP291      0.2621
    111  O         19.0200   -4.2460   18.9620 O.2   291  ASP291     -0.2715
    112  CB        18.7340   -6.3180   21.2560 C.3   291  ASP291      0.1450
    113  CG        18.3470   -5.6430   22.5650 C.2   291  ASP291      0.3671
    114  OD1       18.7180   -4.4380   22.7950 O.co2 291  ASP291     -0.2456
    115  OD2       17.6170   -6.3170   23.3540 O.co2 291  ASP291     -0.2456
    116  N         17.2690   -3.5940   20.1790 N.am  292  VAL292     -0.1977
    117  CA        17.6240   -2.1670   19.9750 C.3   292  VAL292      0.1596
    118  C         19.1180   -1.8710   20.1600 C.2   292  VAL292      0.2287
    119  O         19.7040   -1.1350   19.3670 O.2   292  VAL292     -0.2864
    120  CB        16.8120   -1.2700   20.8720 C.3   292  VAL292      0.0276
    121  CG1       17.5140    0.0360   21.1060 C.3   292  VAL292      0.0022
    122  CG2       15.4630   -1.0120   20.2480 C.3   292  VAL292      0.0022
    123  N          7.0730    2.5750   19.2190 N.3   310  ASN310     -0.1226
    124  CA         6.2220    2.6270   20.4080 C.3   310  ASN310      0.1770
    125  C          6.8780    1.8230   21.5620 C.2   310  ASN310      0.2439
    126  O          6.5430    0.6500   21.8040 O.2   310  ASN310     -0.2733
    127  CB         4.8570    2.0420   20.0560 C.3   310  ASN310      0.1168
    128  CG         3.9940    1.6860   21.3020 C.2   310  ASN310      0.2627
    129  OD1        3.9100    2.4330   22.3170 O.2   310  ASN310     -0.2716
    130  ND2        3.3420    0.5590   21.2100 N.am  310  ASN310     -0.0877
    131  N          7.8810    2.4210   22.2210 N.am  311  PRO311     -0.2718
    132  CA         8.7510    1.7650   23.1820 C.3   311  PRO311      0.1520
    133  C          7.9630    1.2680   24.3730 C.2   311  PRO311      0.2440
    134  O          6.8760    1.7940   24.6090 O.2   311  PRO311     -0.2731
    135  CB         9.6070    2.9230   23.6800 C.3   311  PRO311      0.0310
    136  CG         9.4270    4.0430   22.5730 C.3   311  PRO311      0.0237
    137  CD         7.9940    3.8960   22.3230 C.3   311  PRO311      0.0939
    138  N          8.5290    0.3100   25.1470 N.am  312  PRO312     -0.2727
    139  CA         7.9130   -0.0820   26.4170 C.3   312  PRO312      0.1402
    140  C          7.8480    1.0840   27.3870 C.2   312  PRO312      0.2269
    141  O          8.6060    2.0510   27.2510 O.2   312  PRO312     -0.2865
    142  CB         8.8180   -1.2240   26.9530 C.3   312  PRO312      0.0296
    143  CG        10.1290   -1.0770   26.2540 C.3   312  PRO312      0.0237
    144  CD         9.8130   -0.3900   24.8870 C.3   312  PRO312      0.0939
    145  N         17.2280    1.8450   28.2200 N.3   323  LEU323     -0.1245
    146  CA        16.8100    1.4970   26.8460 C.3   323  LEU323      0.1561
    147  C         16.5600    2.8200   26.0480 C.2   323  LEU323      0.2260
    148  O         17.0930    3.0210   24.9250 O.2   323  LEU323     -0.2867
    149  CB        15.6050    0.5530   26.8620 C.3   323  LEU323      0.0270
    150  CG        14.8350    0.4440   25.4890 C.3   323  LEU323      0.0019
    151  CD1       15.7020   -0.1980   24.4370 C.3   323  LEU323      0.0001
    152  CD2       13.5780   -0.3330   25.6730 C.3   323  LEU323      0.0001
@<TRIPOS>BOND
     1    65    64    2
     2    64    63    1
     3    58    57    2
     4    16    17    1
     5    57    56    1
     6    57    62   am
     7    63    62    1
     8    63    66    1
     9    56    55    1
    10    56    59    1
    11   106   107    1
    12   106   105    1
    13    52    51    2
    14    66    67    1
    15    20    17    1
    16    20    21    1
    17    17    18    1
    18    61    59    1
    19    19    18    2
    20    59    60    1
    21    18    24   am
    22   105   104    1
    23    51    50    1
    24    44    43    1
    25    43    40    1
    26    67    68    1
    27    67    69    1
    28    21    23   ar
    29    21    22   ar
    30    24    30    1
    31    24    25    1
    32   104   103    1
    33   103   100    1
    34    95    94    2
    35    30    29    1
    36    25    28    1
    37    25    26    1
    38    50    53    1
    39    50    49    1
    40    28    29    1
    41    48    47    2
    42    54    53    1
    43    40    41    1
    44    40    39    1
    45    42    41    2
    46    70    71    1
    47    94    93    1
    48    99   100    1
    49    41    45   am
    50   100   101    1
    51    49    47   am
    52    39    33   am
    53    47    46    1
    54    26    31   am
    55    26    27    2
    56    11    10    2
    57    31    32    1
    58    45    46    1
    59    73    72    2
    60    74    71    1
    61    74    75    1
    62    71    72    1
    63    93    96    1
    64    93    92    1
    65   101   102    2
    66   101   108   am
    67    14    12    1
    68    33    32    1
    69    33    34    2
    70    10     9    1
    71    72    78   am
    72    98    96    1
    73    32    35    1
    74    96    97    1
    75    12     9    1
    76    12    13    1
    77    87    86    2
    78   111   110    2
    79   108   109    1
    80   123   124    1
    81    75    77   ar
    82    75    76   ar
    83    15    13    1
    84   119   118    2
    85     9     8    1
    86   110   109    1
    87   110   116   am
    88    86    85    1
    89    35    36    1
    90    78    79    1
    91   117   118    1
    92   117   116    1
    93   117   120    1
    94     8     3   am
    95   127   124    1
    96   127   128    1
    97   109   112    1
    98   122   120    1
    99   124   125    1
   100     7     1    1
   101     7     6    1
   102    38    37    1
   103    36    37    1
   104    79    80    1
   105    79    82    1
   106    80    84   am
   107    80    81    2
   108     1     2    1
   109   120   121    1
   110    84    85    1
   111     6     5    1
   112    85    88    1
   113   130   128   am
   114   112   113    1
   115   128   129    2
   116     3     2    1
   117     3     4    2
   118    90    89   ar
   119   125   126    2
   120   125   131   am
   121    88    89    1
   122     2     5    1
   123    82    83    1
   124    89    91   ar
   125   131   137    1
   126   131   132    1
   127   137   136    1
   128   113   114   ar
   129   113   115   ar
   130   136   135    1
   131   132   135    1
   132   132   133    1
   133   133   134    2
   134   133   138   am
   135   151   150    1
   136   144   138    1
   137   144   143    1
   138   148   147    2
   139   138   139    1
   140   150   152    1
   141   150   149    1
   142   147   146    1
   143   143   142    1
   144   139   142    1
   145   139   140    1
   146   146   149    1
   147   146   145    1
   148   141   140    2
