@<TRIPOS>MOLECULE
tmp/3v97A03.pdb
 97 90 0 0 0
SMALL
GASTEIGER

@<TRIPOS>ATOM
      1  N         13.3530   -8.3010   66.2370 N.3   543  ARG543     -0.1245
      2  CA        13.4930   -9.7100   65.8930 C.3   543  ARG543      0.1563
      3  C         13.9780   -9.9630   64.4670 C.2   543  ARG543      0.2260
      4  O         14.7330  -10.8940   64.2620 O.2   543  ARG543     -0.2867
      5  CB        12.2650  -10.5620   66.1660 C.3   543  ARG543      0.0307
      6  CG        12.7930  -12.0110   66.4520 C.3   543  ARG543      0.0489
      7  CD        11.8510  -13.1060   66.0960 C.3   543  ARG543      0.2205
      8  NE        10.9300  -13.3340   67.2000 N.pl3 543  ARG543     -0.0865
      9  CZ        11.1440  -14.1820   68.1990 C.cat 543  ARG543      0.5346
     10  NH1       12.2630  -14.9170   68.2280 N.pl3 543  ARG543      0.1354
     11  NH2       10.2310  -14.2840   69.1590 N.pl3 543  ARG543      0.1354
     12  N         17.7040   -9.3720   64.3730 N.3   546  LEU546     -0.1231
     13  CA        18.3970  -10.4500   65.0690 C.3   546  LEU546      0.1693
     14  C         18.4440  -11.7650   64.2400 C.2   546  LEU546      0.2591
     15  O         19.5210  -12.3740   64.1060 O.2   546  LEU546     -0.2718
     16  CB        17.8740  -10.6780   66.4680 C.3   546  LEU546      0.0284
     17  CG        18.2160   -9.6130   67.5020 C.3   546  LEU546      0.0019
     18  CD1       17.3740   -9.9340   68.8080 C.3   546  LEU546      0.0001
     19  CD2       19.7590   -9.5170   67.8990 C.3   546  LEU546      0.0001
     20  N         17.3270  -12.1660   63.6400 N.am  547  GLU547     -0.1979
     21  CA        17.3830  -13.2260   62.6360 C.3   547  GLU547      0.1602
     22  C         18.4790  -12.9720   61.5630 C.2   547  GLU547      0.2287
     23  O         19.2250  -13.8670   61.2130 O.2   547  GLU547     -0.2864
     24  CB        16.0410  -13.3950   61.9120 C.3   547  GLU547      0.0415
     25  CG        14.7950  -13.6220   62.8020 C.3   547  GLU547      0.1163
     26  CD        14.6070  -15.0700   63.2390 C.2   547  GLU547      0.3649
     27  OE1       15.5450  -15.8590   62.9610 O.co2 547  GLU547     -0.2457
     28  OE2       13.5330  -15.4330   63.8510 O.co2 547  GLU547     -0.2457
     29  N         21.9650  -13.4420   63.0450 N.3   550  GLU550     -0.1231
     30  CA        22.2410  -14.8780   63.1740 C.3   550  GLU550      0.1699
     31  C         22.6080  -15.4220   61.7700 C.2   550  GLU550      0.2592
     32  O         23.6060  -16.1610   61.5980 O.2   550  GLU550     -0.2718
     33  CB        21.0500  -15.5980   63.7510 C.3   550  GLU550      0.0402
     34  CG        21.3390  -17.0820   64.1970 C.3   550  GLU550      0.1161
     35  CD        21.6290  -18.0140   62.9540 C.2   550  GLU550      0.3649
     36  OE1       20.8320  -17.9530   61.9620 O.co2 550  GLU550     -0.2457
     37  OE2       22.6470  -18.7840   62.9810 O.co2 550  GLU550     -0.2457
     38  N         21.9190  -14.9440   60.7340 N.am  551  ARG551     -0.1980
     39  CA        22.2750  -15.4820   59.4260 C.3   551  ARG551      0.1597
     40  C         23.7100  -15.0320   59.0130 C.2   551  ARG551      0.2287
     41  O         24.4860  -15.8100   58.4260 O.2   551  ARG551     -0.2864
     42  CB        21.1880  -15.1250   58.4560 C.3   551  ARG551      0.0334
     43  CG        20.5610  -16.2850   57.9080 C.3   551  ARG551      0.0492
     44  CD        19.1400  -16.5850   58.2810 C.3   551  ARG551      0.2205
     45  NE        19.0290  -16.7110   59.7040 N.pl3 551  ARG551     -0.0865
     46  CZ        17.9040  -16.9030   60.3840 C.cat 551  ARG551      0.5346
     47  NH1       18.0170  -16.9510   61.7210 N.pl3 551  ARG551      0.1354
     48  NH2       16.7310  -17.0430   59.7490 N.pl3 551  ARG551      0.1354
     49  N         26.1710  -17.2140   61.0830 N.3   554  ARG554     -0.1245
     50  CA        26.1620  -18.5280   60.3800 C.3   554  ARG554      0.1563
     51  C         27.0270  -18.5100   59.1240 C.2   554  ARG554      0.2260
     52  O         27.7810  -19.4860   58.8630 O.2   554  ARG554     -0.2867
     53  CB        24.7580  -18.8540   60.0070 C.3   554  ARG554      0.0307
     54  CG        24.3980  -20.2230   59.4370 C.3   554  ARG554      0.0489
     55  CD        22.9720  -20.2200   59.9410 C.3   554  ARG554      0.2205
     56  NE        22.0600  -20.5430   58.9490 N.pl3 554  ARG554     -0.0865
     57  CZ        20.7490  -20.4380   59.0800 C.cat 554  ARG554      0.5346
     58  NH1       20.2350  -19.9900   60.1870 N.pl3 554  ARG554      0.1354
     59  NH2       19.9640  -20.8110   58.0640 N.pl3 554  ARG554      0.1354
     60  N         28.5600  -20.4430   65.1970 N.3   559  THR559     -0.1203
     61  CA        27.3250  -20.9990   65.7150 C.3   559  THR559      0.1994
     62  C         27.6170  -21.7300   67.0140 C.2   559  THR559      0.2618
     63  O         28.7910  -22.0420   67.3460 O.2   559  THR559     -0.2717
     64  CB        26.6750  -21.9950   64.6980 C.3   559  THR559      0.1784
     65  OG1       27.6000  -23.0500   64.4280 O.3   559  THR559     -0.2211
     66  CG2       26.3520  -21.3180   63.2960 C.3   559  THR559      0.0376
     67  N         26.5540  -22.0030   67.7590 N.am  560  GLY560     -0.1956
     68  CA        26.7050  -22.7830   68.9780 C.3   560  GLY560      0.1869
     69  C         26.6210  -21.8690   70.2010 C.2   560  GLY560      0.2309
     70  O         26.3770  -20.6200   70.1030 O.2   560  GLY560     -0.2863
     71  N         27.8800  -18.1070   70.9720 N.3   563  HIS563     -0.1241
     72  CA        27.4150  -16.9640   70.1680 C.3   563  HIS563      0.1621
     73  C         25.9320  -16.7580   70.4020 C.2   563  HIS563      0.2264
     74  O         25.1530  -17.5080   69.8380 O.2   563  HIS563     -0.2867
     75  CB        27.6990  -17.2260   68.6880 C.3   563  HIS563      0.0745
     76  CG        29.1530  -17.2470   68.3880 C.ar  563  HIS563      0.0817
     77  ND1       29.8400  -18.3970   68.0800 N.ar  563  HIS563     -0.2268
     78  CD2       30.0730  -16.2630   68.4100 C.ar  563  HIS563      0.1154
     79  CE1       31.1200  -18.1170   67.8810 C.ar  563  HIS563      0.1986
     80  NE2       31.2850  -16.8210   68.0840 N.ar  563  HIS563     -0.2212
     81  N         22.2560  -14.3520   70.9020 N.3   565  LEU565     -0.1245
     82  CA        21.4700  -13.2580   70.3650 C.3   565  LEU565      0.1561
     83  C         20.2760  -13.0720   71.2790 C.2   565  LEU565      0.2260
     84  O         19.7020  -14.0400   71.7630 O.2   565  LEU565     -0.2867
     85  CB        21.0450  -13.5280   68.9250 C.3   565  LEU565      0.0270
     86  CG        22.2540  -13.7830   67.9870 C.3   565  LEU565      0.0019
     87  CD1       22.2150  -15.2850   67.5410 C.3   565  LEU565      0.0001
     88  CD2       22.2410  -12.9400   66.7860 C.3   565  LEU565      0.0001
     89  N         16.9460  -10.6350   72.1710 N.3   567  GLN567     -0.1245
     90  CA        16.0170   -9.6190   71.8590 C.3   567  GLN567      0.1566
     91  C         15.5630   -8.9140   73.1400 C.2   567  GLN567      0.2260
     92  O         14.9230   -9.5140   73.9970 O.2   567  GLN567     -0.2867
     93  CB        14.8000  -10.2470   71.2080 C.3   567  GLN567      0.0367
     94  CG        13.9130   -9.1960   70.6090 C.3   567  GLN567      0.0905
     95  CD        12.5570   -9.7160   70.1530 C.2   567  GLN567      0.2608
     96  OE1       12.1710  -10.8410   70.4410 O.2   567  GLN567     -0.2717
     97  NE2       11.8420   -8.8900   69.4180 N.am  567  GLN567     -0.0878
@<TRIPOS>BOND
     1    43    44    1
     2    43    42    1
     3    59    57    1
     4    44    45    1
     5    41    40    2
     6    42    39    1
     7    52    51    2
     8    56    57    2
     9    56    55    1
    10    40    39    1
    11    57    58    1
    12    51    50    1
    13    39    38    1
    14    54    55    1
    15    54    53    1
    16    45    46    2
    17    48    46    1
    18    53    50    1
    19    50    49    1
    20    46    47    1
    21    38    31   am
    22    23    22    2
    23    22    21    1
    24    32    31    2
    25    31    30    1
    26    24    21    1
    27    24    25    1
    28    36    35   ar
    29    21    20    1
    30    25    26    1
    31    35    37   ar
    32    35    34    1
    33    27    26   ar
    34    29    30    1
    35    30    33    1
    36    26    28   ar
    37    66    64    1
    38    20    14   am
    39    33    34    1
    40    15    14    2
    41    14    13    1
    42     4     3    2
    43    12    13    1
    44    65    64    1
    45     3     2    1
    46    64    61    1
    47    13    16    1
    48    60    61    1
    49    61    62    1
    50     2     5    1
    51     2     1    1
    52     7     6    1
    53     7     8    1
    54     5     6    1
    55    16    17    1
    56    88    86    1
    57    62    63    2
    58    62    67   am
    59     8     9    2
    60    17    19    1
    61    17    18    1
    62    87    86    1
    63    67    68    1
    64    79    77   ar
    65    79    80   ar
    66    86    85    1
    67    77    76   ar
    68    80    78   ar
    69     9    10    1
    70     9    11    1
    71    76    78   ar
    72    76    75    1
    73    75    72    1
    74    85    82    1
    75    68    69    1
    76    97    95   am
    77    74    73    2
    78    70    69    2
    79    95    96    2
    80    95    94    1
    81    72    73    1
    82    72    71    1
    83    82    81    1
    84    82    83    1
    85    94    93    1
    86    93    90    1
    87    83    84    2
    88    90    89    1
    89    90    91    1
    90    91    92    2
