@<TRIPOS>MOLECULE
tmp/3v97A02.pdb
 91 90 0 0 0
SMALL
GASTEIGER

@<TRIPOS>ATOM
      1  N        -14.9400    1.2790    2.5710 N.3    50  MET50      -0.1245
      2  CA       -13.7640    0.6330    1.9610 C.3    50  MET50       0.1570
      3  C        -12.4890    1.3570    2.2850 C.2    50  MET50       0.2261
      4  O        -11.4540    0.7510    2.5030 O.2    50  MET50      -0.2867
      5  CB       -13.9750    0.6270    0.4440 C.3    50  MET50       0.0387
      6  CG       -12.8100    0.0090   -0.3620 C.3    50  MET50       0.0595
      7  SD       -12.3300   -1.7450    0.1780 S.3    50  MET50      -0.1393
      8  CE       -13.3500   -2.8020   -0.7610 C.3    50  MET50       0.0692
      9  N        -10.1600   -1.6920    3.5910 N.3   218  GLY218     -0.1210
     10  CA       -11.2090   -2.6640    3.3900 C.3   218  GLY218      0.1956
     11  C        -10.8760   -3.8100    2.4750 C.2   218  GLY218      0.2612
     12  O        -11.6530   -4.7380    2.3200 O.2   218  GLY218     -0.2717
     13  N         -9.7070   -3.7750    1.8630 N.am  219  LEU219     -0.1965
     14  CA        -9.4820   -4.6190    0.7220 C.3   219  LEU219      0.1728
     15  C         -9.5780   -6.0960    1.1710 C.2   219  LEU219      0.2616
     16  O         -9.9670   -7.0070    0.3710 O.2   219  LEU219     -0.2715
     17  CB        -8.0150   -4.3520    0.1690 C.3   219  LEU219      0.0311
     18  CG        -7.7650   -4.9430   -1.1820 C.3   219  LEU219      0.0022
     19  CD1       -8.6280   -4.2170   -2.2090 C.3   219  LEU219      0.0001
     20  CD2       -6.1570   -4.9480   -1.5830 C.3   219  LEU219      0.0001
     21  N         -9.1500   -6.3850    2.3870 N.am  220  HIS220     -0.1959
     22  CA        -8.9980   -7.8040    2.7440 C.3   220  HIS220      0.1787
     23  C        -10.0160   -8.1550    3.7980 C.2   220  HIS220      0.2620
     24  O         -9.9340   -9.1830    4.4070 O.2   220  HIS220     -0.2715
     25  CB        -7.5680   -8.1480    3.1740 C.3   220  HIS220      0.0785
     26  CG        -6.5670   -8.0810    2.0370 C.ar  220  HIS220      0.0821
     27  ND1       -6.7510   -8.7770    0.8550 N.ar  220  HIS220     -0.2267
     28  CD2       -5.3650   -7.4700    1.9190 C.ar  220  HIS220      0.1154
     29  CE1       -5.7250   -8.5460    0.0270 C.ar  220  HIS220      0.1986
     30  NE2       -4.8540   -7.7590    0.6460 N.ar  220  HIS220     -0.2212
     31  N        -11.0190   -7.3360    3.9790 N.am  221  ARG221     -0.1963
     32  CA       -12.0300   -7.6980    5.0470 C.3   221  ARG221      0.1729
     33  C        -12.9660   -8.7640    4.5500 C.2   221  ARG221      0.2616
     34  O        -13.3630   -8.7570    3.3730 O.2   221  ARG221     -0.2715
     35  CB       -12.8380   -6.4790    5.4620 C.3   221  ARG221      0.0348
     36  CG       -12.0310   -5.5520    6.3530 C.3   221  ARG221      0.0492
     37  CD       -12.7680   -4.2340    6.7300 C.3   221  ARG221      0.2205
     38  NE       -14.1750   -4.4430    7.1110 N.pl3 221  ARG221     -0.0865
     39  CZ       -14.6110   -4.6110    8.3710 C.cat 221  ARG221      0.5346
     40  NH1      -13.7940   -4.6670    9.4020 N.pl3 221  ARG221      0.1354
     41  NH2      -15.9000   -4.7110    8.6030 N.pl3 221  ARG221      0.1354
     42  N        -13.2820   -9.7230    5.3970 N.am  222  GLY222     -0.1955
     43  CA       -14.0820  -10.8190    4.9270 C.3   222  GLY222      0.1869
     44  C        -15.5970  -10.6190    5.0430 C.2   222  GLY222      0.2309
     45  O        -16.3270  -11.3880    4.4580 O.2   222  GLY222     -0.2863
     46  N        -19.1710   -7.6220    6.0390 N.3   224  TRP224     -0.1241
     47  CA       -19.6270   -6.2400    6.2200 C.3   224  TRP224      0.1605
     48  C        -21.0220   -6.2630    6.7920 C.2   224  TRP224      0.2264
     49  O        -21.6770   -7.2780    6.7190 O.2   224  TRP224     -0.2867
     50  CB       -19.6640   -5.5770    4.8590 C.3   224  TRP224      0.0550
     51  CG       -18.3110   -5.4070    4.2500 C.ar  224  TRP224      0.0003
     52  CD1      -17.6810   -6.2640    3.4440 C.ar  224  TRP224      0.0946
     53  CD2      -17.3930   -4.3400    4.5290 C.ar  224  TRP224      0.0152
     54  NE1      -16.3930   -5.7870    3.1420 N.ar  224  TRP224     -0.2442
     55  CE2      -16.2260   -4.5780    3.7770 C.ar  224  TRP224      0.0810
     56  CE3      -17.4950   -3.1490    5.2560 C.ar  224  TRP224      0.0012
     57  CZ2      -15.1540   -3.6800    3.7540 C.ar  224  TRP224      0.0191
     58  CZ3      -16.4530   -2.2810    5.2730 C.ar  224  TRP224      0.0001
     59  CH2      -15.2600   -2.5550    4.5210 C.ar  224  TRP224      0.0015
     60  N        -21.4990   -1.5130   -4.8150 N.3   237  TRP237     -0.1241
     61  CA       -20.4370   -2.1870   -4.0350 C.3   237  TRP237      0.1605
     62  C        -19.3730   -2.8300   -4.9800 C.2   237  TRP237      0.2264
     63  O        -18.1680   -2.6570   -4.7980 O.2   237  TRP237     -0.2867
     64  CB       -21.0740   -3.1950   -3.1110 C.3   237  TRP237      0.0550
     65  CG       -20.1450   -3.9950   -2.2370 C.ar  237  TRP237      0.0003
     66  CD1      -20.2390   -5.3410   -1.9670 C.ar  237  TRP237      0.0946
     67  CD2      -19.0180   -3.5110   -1.4800 C.ar  237  TRP237      0.0152
     68  NE1      -19.2240   -5.7350   -1.1340 N.ar  237  TRP237     -0.2442
     69  CE2      -18.4800   -4.6370   -0.7840 C.ar  237  TRP237      0.0810
     70  CE3      -18.4110   -2.2410   -1.3220 C.ar  237  TRP237      0.0012
     71  CZ2      -17.3920   -4.5350    0.0750 C.ar  237  TRP237      0.0191
     72  CZ3      -17.3170   -2.1160   -0.4460 C.ar  237  TRP237      0.0001
     73  CH2      -16.8070   -3.2750    0.2260 C.ar  237  TRP237      0.0015
     74  N        -15.3470   -2.1730   -5.0340 N.3   241  LYS241     -0.1245
     75  CA       -14.4410   -3.3050   -4.8930 C.3   241  LYS241      0.1561
     76  C        -13.4540   -3.3480   -6.0320 C.2   241  LYS241      0.2260
     77  O        -12.2390   -3.5110   -5.7800 O.2   241  LYS241     -0.2867
     78  CB       -15.2250   -4.6240   -4.8200 C.3   241  LYS241      0.0271
     79  CG       -15.7410   -5.0090   -3.4590 C.3   241  LYS241      0.0035
     80  CD       -16.9650   -5.9070   -3.4700 C.3   241  LYS241      0.0206
     81  CE       -16.7780   -7.3010   -3.9840 C.3   241  LYS241      0.1093
     82  NZ       -18.0800   -8.1060   -3.8240 N.3   241  LYS241     -0.1314
     83  N         -9.2480   -2.9440   -6.0410 N.3   245  GLN245     -0.1245
     84  CA        -8.2910   -3.9100   -6.5330 C.3   245  GLN245      0.1566
     85  C         -7.2990   -3.2140   -7.4010 C.2   245  GLN245      0.2260
     86  O         -6.1110   -3.4590   -7.2640 O.2   245  GLN245     -0.2867
     87  CB        -8.9870   -5.0380   -7.3650 C.3   245  GLN245      0.0367
     88  CG        -9.9270   -5.8930   -6.4160 C.3   245  GLN245      0.0905
     89  CD        -9.0700   -6.9100   -5.6010 C.2   245  GLN245      0.2608
     90  OE1       -7.9940   -7.3390   -6.0790 O.2   245  GLN245     -0.2717
     91  NE2       -9.4750   -7.1890   -4.3230 N.am  245  GLN245     -0.0878
@<TRIPOS>BOND
     1    85    86    2
     2    85    84    1
     3    87    84    1
     4    87    88    1
     5    84    83    1
     6    88    89    1
     7    90    89    2
     8    76    77    2
     9    76    75    1
    10    89    91   am
    11    74    75    1
    12    62    63    2
    13    62    61    1
    14    75    78    1
    15    78    79    1
    16    60    61    1
    17    61    64    1
    18    81    82    1
    19    81    80    1
    20    80    79    1
    21    64    65    1
    22    65    66   ar
    23    65    67   ar
    24    19    18    1
    25    66    68   ar
    26    20    18    1
    27    67    70   ar
    28    67    69   ar
    29    70    72   ar
    30    18    17    1
    31    68    69   ar
    32    69    71   ar
    33     8     7    1
    34    72    73   ar
    35     6     7    1
    36     6     5    1
    37    29    30   ar
    38    29    27   ar
    39    71    73   ar
    40    17    14    1
    41    16    15    2
    42     5     2    1
    43    30    28   ar
    44    14    15    1
    45    14    13    1
    46    27    26   ar
    47    15    21   am
    48    13    11   am
    49    28    26   ar
    50     2     3    1
    51     2     1    1
    52    26    25    1
    53     3     4    2
    54    12    11    2
    55    21    22    1
    56    11    10    1
    57    22    25    1
    58    22    23    1
    59    54    52   ar
    60    54    55   ar
    61    34    33    2
    62    10     9    1
    63    52    51   ar
    64    57    55   ar
    65    57    59   ar
    66    55    53   ar
    67    23    31   am
    68    23    24    2
    69    31    32    1
    70    51    53   ar
    71    51    50    1
    72    45    44    2
    73    59    58   ar
    74    53    56   ar
    75    33    32    1
    76    33    42   am
    77    50    47    1
    78    43    44    1
    79    43    42    1
    80    32    35    1
    81    56    58   ar
    82    35    36    1
    83    46    47    1
    84    47    48    1
    85    36    37    1
    86    49    48    2
    87    37    38    1
    88    38    39    2
    89    39    41    1
    90    39    40    1
