@<TRIPOS>MOLECULE
tmp/3v97A01.pdb
 206 203 0 0 0
SMALL
GASTEIGER

@<TRIPOS>ATOM
      1  N         26.0970   -0.7030   57.3800 N.3   495  PHE495     -0.1241
      2  CA        26.4050    0.7350   57.3870 C.3   495  PHE495      0.1605
      3  C         27.8500    0.8240   56.9930 C.2   495  PHE495      0.2264
      4  O         28.7450    0.5600   57.7890 O.2   495  PHE495     -0.2867
      5  CB        26.1570    1.3590   58.7650 C.3   495  PHE495      0.0534
      6  CG        24.6480    1.5900   59.0170 C.ar  495  PHE495     -0.0203
      7  CD1       23.9500    2.5990   58.3010 C.ar  495  PHE495     -0.0042
      8  CD2       23.9440    0.7640   59.8210 C.ar  495  PHE495     -0.0042
      9  CE1       22.5520    2.8270   58.4990 C.ar  495  PHE495     -0.0003
     10  CE2       22.4880    0.9610   60.0580 C.ar  495  PHE495     -0.0003
     11  CZ        21.8100    2.0050   59.3900 C.ar  495  PHE495     -0.0000
     12  N         31.3000    2.7660   58.6440 N.3   498  HIS498     -0.1241
     13  CA        31.8810    2.3320   59.9270 C.3   498  HIS498      0.1621
     14  C         32.7360    1.0750   59.8090 C.2   498  HIS498      0.2264
     15  O         33.0770    0.4330   60.7920 O.2   498  HIS498     -0.2867
     16  CB        30.7750    2.0760   60.9270 C.3   498  HIS498      0.0745
     17  CG        31.1140    2.5860   62.2920 C.ar  498  HIS498      0.0817
     18  ND1       32.0740    3.5680   62.4960 N.ar  498  HIS498     -0.2268
     19  CD2       30.6210    2.2740   63.5200 C.ar  498  HIS498      0.1154
     20  CE1       32.1620    3.8310   63.7910 C.ar  498  HIS498      0.1986
     21  NE2       31.2620    3.0870   64.4290 N.ar  498  HIS498     -0.2212
     22  N         34.8480   -1.4530   62.6030 N.3   502  ARG502     -0.1245
     23  CA        34.4530   -2.8900   62.6050 C.3   502  ARG502      0.1563
     24  C         35.6980   -3.7550   62.4680 C.2   502  ARG502      0.2260
     25  O         35.9610   -4.6090   63.2700 O.2   502  ARG502     -0.2867
     26  CB        33.3530   -3.1810   61.5500 C.3   502  ARG502      0.0307
     27  CG        31.8280   -2.8270   62.0880 C.3   502  ARG502      0.0489
     28  CD        30.8620   -3.4410   61.0240 C.3   502  ARG502      0.2205
     29  NE        31.1270   -2.9080   59.6520 N.pl3 502  ARG502     -0.0865
     30  CZ        30.4960   -1.8380   59.1420 C.cat 502  ARG502      0.5346
     31  NH1       29.6100   -1.1450   59.9010 N.pl3 502  ARG502      0.1354
     32  NH2       30.7450   -1.4480   57.8910 N.pl3 502  ARG502      0.1354
     33  N         27.6430   -6.7640   71.8810 N.3   516  ASN516     -0.1225
     34  CA        27.3020   -5.7600   70.8770 C.3   516  ASN516      0.1785
     35  C         25.8970   -5.2530   71.2330 C.2   516  ASN516      0.2597
     36  O         24.9960   -6.0500   71.2600 O.2   516  ASN516     -0.2718
     37  CB        27.2870   -6.4730   69.4970 C.3   516  ASN516      0.1169
     38  CG        27.0500   -5.5210   68.3470 C.2   516  ASN516      0.2627
     39  OD1       26.8230   -4.3290   68.5590 O.2   516  ASN516     -0.2716
     40  ND2       27.1370   -6.0330   67.1030 N.am  516  ASN516     -0.0877
     41  N         25.7170   -3.9680   71.5420 N.am  517  LEU517     -0.1966
     42  CA        24.3620   -3.4680   71.8970 C.3   517  LEU517      0.1728
     43  C         23.8520   -2.5970   70.7340 C.2   517  LEU517      0.2616
     44  O         24.6760   -1.9220   70.1070 O.2   517  LEU517     -0.2715
     45  CB        24.4110   -2.6410   73.2100 C.3   517  LEU517      0.0311
     46  CG        24.9470   -3.3860   74.4470 C.3   517  LEU517      0.0022
     47  CD1       25.4330   -2.4930   75.6370 C.3   517  LEU517      0.0001
     48  CD2       23.8670   -4.3080   74.9830 C.3   517  LEU517      0.0001
     49  N         22.5140   -2.5570   70.5040 N.am  518  PHE518     -0.1960
     50  CA        21.9020   -1.9260   69.2920 C.3   518  PHE518      0.1771
     51  C         22.6120   -2.5090   68.0620 C.2   518  PHE518      0.2620
     52  O         23.1150   -1.7770   67.2340 O.2   518  PHE518     -0.2715
     53  CB        22.0690   -0.4020   69.3030 C.3   518  PHE518      0.0574
     54  CG        21.5400    0.2750   70.5680 C.ar  518  PHE518     -0.0200
     55  CD1       20.2210    0.7720   70.6160 C.ar  518  PHE518     -0.0042
     56  CD2       22.3420    0.3940   71.6980 C.ar  518  PHE518     -0.0042
     57  CE1       19.7450    1.3650   71.7540 C.ar  518  PHE518     -0.0003
     58  CE2       21.8850    1.0090   72.8430 C.ar  518  PHE518     -0.0003
     59  CZ        20.5810    1.4880   72.8900 C.ar  518  PHE518     -0.0000
     60  N         22.6170   -3.8410   67.9540 N.am  519  SER519     -0.1936
     61  CA        23.5320   -4.5580   67.0810 C.3   519  SER519      0.2055
     62  C         23.2320   -4.5070   65.5840 C.2   519  SER519      0.2643
     63  O         24.1890   -4.7070   64.7060 O.2   519  SER519     -0.2714
     64  CB        23.5300   -6.0270   67.4650 C.3   519  SER519      0.2130
     65  OG        22.2520   -6.5850   67.1170 O.3   519  SER519     -0.2179
     66  N         21.9930   -4.1780   65.2840 N.am  520  TYR520     -0.1959
     67  CA        21.3810   -4.2180   63.9500 C.3   520  TYR520      0.1771
     68  C         21.6110   -5.6150   63.3510 C.2   520  TYR520      0.2620
     69  O         21.4780   -6.6000   64.0430 O.2   520  TYR520     -0.2715
     70  CB        21.8460   -2.9700   63.1370 C.3   520  TYR520      0.0574
     71  CG        21.3630   -2.7780   61.7210 C.ar  520  TYR520     -0.0198
     72  CD1       19.9950   -2.7220   61.4140 C.ar  520  TYR520     -0.0009
     73  CD2       22.2940   -2.5650   60.6590 C.ar  520  TYR520     -0.0009
     74  CE1       19.5520   -2.4870   60.1060 C.ar  520  TYR520      0.0417
     75  CE2       21.8160   -2.3220   59.3110 C.ar  520  TYR520      0.0417
     76  CZ        20.4600   -2.2710   59.0840 C.ar  520  TYR520      0.1957
     77  OH        19.9820   -2.0750   57.8130 O.3   520  TYR520     -0.2866
     78  N         22.0870   -5.7230   62.1310 N.am  521  THR521     -0.1951
     79  CA        22.4240   -7.0250   61.5860 C.3   521  THR521      0.1897
     80  C         23.7190   -7.6990   62.0450 C.2   521  THR521      0.2313
     81  O         24.1490   -8.6970   61.4140 O.2   521  THR521     -0.2863
     82  CB        22.4940   -6.8860   60.0730 C.3   521  THR521      0.1794
     83  OG1       23.5520   -5.9730   59.7660 O.3   521  THR521     -0.2208
     84  CG2       21.1430   -6.3880   59.5500 C.3   521  THR521      0.0378
     85  N         26.8590   -7.0130   62.1080 N.3   523  SER523     -0.1202
     86  CA        28.1390   -7.0370   61.3020 C.3   523  SER523      0.2020
     87  C         29.3750   -6.8400   62.1270 C.2   523  SER523      0.2618
     88  O         30.4500   -7.3760   61.8050 O.2   523  SER523     -0.2717
     89  CB        28.0810   -5.9990   60.1750 C.3   523  SER523      0.2103
     90  OG        28.1270   -4.6930   60.7050 O.3   523  SER523     -0.2182
     91  N         29.2810   -6.0180   63.1710 N.am  524  ALA524     -0.1979
     92  CA        30.4130   -5.8940   64.1020 C.3   524  ALA524      0.1597
     93  C         30.7170   -7.2480   64.8490 C.2   524  ALA524      0.2287
     94  O         31.8830   -7.5730   65.1080 O.2   524  ALA524     -0.2864
     95  CB        30.1480   -4.7080   65.1030 C.3   524  ALA524      0.0319
     96  N         19.5320   -6.4420   70.4400 N.3   540  ASP540     -0.1225
     97  CA        18.7730   -5.5390   69.6030 C.3   540  ASP540      0.1805
     98  C         17.3000   -5.7640   69.9050 C.2   540  ASP540      0.2598
     99  O         16.9200   -6.8490   70.3090 O.2   540  ASP540     -0.2718
    100  CB        19.0030   -5.8170   68.1110 C.3   540  ASP540      0.1424
    101  CG        18.6770   -4.6010   67.2380 C.2   540  ASP540      0.3668
    102  OD1       19.6340   -3.9710   66.6730 O.co2 540  ASP540     -0.2456
    103  OD2       17.4660   -4.2690   67.1250 O.co2 540  ASP540     -0.2456
    104  N         16.4670   -4.7650   69.7100 N.am  541  MET541     -0.1965
    105  CA        15.0310   -4.9520   70.0280 C.3   541  MET541      0.1736
    106  C         14.2990   -5.6160   68.8240 C.2   541  MET541      0.2617
    107  O         13.1600   -6.1090   68.9480 O.2   541  MET541     -0.2715
    108  CB        14.3810   -3.5950   70.3590 C.3   541  MET541      0.0427
    109  CG        14.2590   -2.6600   69.1100 C.3   541  MET541      0.0599
    110  SD        13.5840   -0.9930   69.4270 S.3   541  MET541     -0.1393
    111  CE        13.5120   -0.3200   67.7320 C.3   541  MET541      0.0692
    112  N         14.9450   -5.6000   67.6620 N.am  542  SER542     -0.1950
    113  CA        14.2630   -6.0440   66.4710 C.3   542  SER542      0.1924
    114  C         14.4550   -7.5430   66.2050 C.2   542  SER542      0.2314
    115  O         15.5780   -8.0070   65.9870 O.2   542  SER542     -0.2863
    116  CB        14.6460   -5.2040   65.2510 C.3   542  SER542      0.2116
    117  OG        14.3960   -5.9510   64.0560 O.3   542  SER542     -0.2180
    118  N         16.0770   -8.0260   62.6020 N.3   545  TYR545     -0.1241
    119  CA        17.5080   -7.7740   62.5310 C.3   545  TYR545      0.1605
    120  C         18.3070   -8.8000   63.3170 C.2   545  TYR545      0.2264
    121  O         19.4260   -9.1460   62.8960 O.2   545  TYR545     -0.2867
    122  CB        17.8620   -6.3190   62.8980 C.3   545  TYR545      0.0534
    123  CG        17.1700   -5.3020   62.0050 C.ar  545  TYR545     -0.0201
    124  CD1       17.1720   -5.4510   60.6420 C.ar  545  TYR545     -0.0009
    125  CD2       16.4750   -4.2080   62.5400 C.ar  545  TYR545     -0.0009
    126  CE1       16.5250   -4.5450   59.8050 C.ar  545  TYR545      0.0417
    127  CE2       15.8300   -3.2610   61.6870 C.ar  545  TYR545      0.0417
    128  CZ        15.8640   -3.4530   60.3110 C.ar  545  TYR545      0.1957
    129  OH        15.2590   -2.5610   59.4040 O.3   545  TYR545     -0.2866
    130  N         15.8710   -7.6180   73.2200 N.3   568  ALA568     -0.1231
    131  CA        15.4930   -6.7660   74.3340 C.3   568  ALA568      0.1694
    132  C         15.7020   -5.3220   73.8980 C.2   568  ALA568      0.2592
    133  O         16.5580   -4.9960   73.0110 O.2   568  ALA568     -0.2718
    134  CB        16.3710   -7.0740   75.6340 C.3   568  ALA568      0.0304
    135  N         14.9610   -4.4640   74.5690 N.am  569  ASP569     -0.1960
    136  CA        15.3260   -3.0710   74.7860 C.3   569  ASP569      0.1840
    137  C         16.7020   -3.0440   75.4900 C.2   569  ASP569      0.2622
    138  O         16.8320   -3.5320   76.5870 O.2   569  ASP569     -0.2715
    139  CB        14.1970   -2.4330   75.6130 C.3   569  ASP569      0.1450
    140  CG        14.4830   -1.0160   76.0740 C.2   569  ASP569      0.3671
    141  OD1       15.4260   -0.3700   75.6420 O.co2 569  ASP569     -0.2456
    142  OD2       13.7190   -0.5300   76.9280 O.co2 569  ASP569     -0.2456
    143  N         17.7230   -2.5010   74.8360 N.am  570  CYS570     -0.1954
    144  CA        19.0820   -2.4770   75.3900 C.3   570  CYS570      0.1843
    145  C         19.2330   -1.7520   76.7410 C.2   570  CYS570      0.2625
    146  O         20.1060   -2.0650   77.5060 O.2   570  CYS570     -0.2714
    147  CB        20.0360   -1.8290   74.4140 C.3   570  CYS570      0.0997
    148  SG        20.5750   -2.9500   73.1360 S.3   570  CYS570     -0.0797
    149  N         18.4250   -0.7310   76.9630 N.am  571  LEU571     -0.1977
    150  CA        18.4960    0.0300   78.1820 C.3   571  LEU571      0.1596
    151  C         17.9980   -0.7450   79.4040 C.2   571  LEU571      0.2287
    152  O         18.6050   -0.6500   80.4490 O.2   571  LEU571     -0.2864
    153  CB        17.6590    1.3060   78.0410 C.3   571  LEU571      0.0297
    154  CG        18.4780    2.5600   77.7750 C.3   571  LEU571      0.0022
    155  CD1       19.4530    2.4560   76.5320 C.3   571  LEU571      0.0001
    156  CD2       17.5460    3.7550   77.6560 C.3   571  LEU571      0.0001
    157  N         30.9790   -3.1920   72.1660 N.3   585  PHE585     -0.1241
    158  CA        30.6990   -2.2620   71.0640 C.3   585  PHE585      0.1605
    159  C         29.2900   -1.7440   71.2420 C.2   585  PHE585      0.2264
    160  O         28.3650   -2.5330   71.4090 O.2   585  PHE585     -0.2867
    161  CB        30.7070   -3.0500   69.7600 C.3   585  PHE585      0.0534
    162  CG        30.5310   -2.2030   68.5700 C.ar  585  PHE585     -0.0203
    163  CD1       31.3850   -1.0880   68.3530 C.ar  585  PHE585     -0.0042
    164  CD2       29.5530   -2.5130   67.6150 C.ar  585  PHE585     -0.0042
    165  CE1       31.2210   -0.2310   67.1830 C.ar  585  PHE585     -0.0003
    166  CE2       29.3890   -1.7160   66.4180 C.ar  585  PHE585     -0.0003
    167  CZ        30.2400   -0.5540   66.1910 C.ar  585  PHE585     -0.0000
    168  N         26.7760    1.2190   69.5690 N.3   587  ASP587     -0.1225
    169  CA        26.7020    2.1960   68.5030 C.3   587  ASP587      0.1790
    170  C         25.2430    2.4750   68.1890 C.2   587  ASP587      0.2440
    171  O         24.6870    1.9460   67.2510 O.2   587  ASP587     -0.2733
    172  CB        27.4830    1.6810   67.3180 C.3   587  ASP587      0.1423
    173  CG        27.2820    2.5070   66.0630 C.2   587  ASP587      0.3668
    174  OD1       27.6140    3.7240   66.0250 O.co2 587  ASP587     -0.2456
    175  OD2       26.8220    1.9080   65.0790 O.co2 587  ASP587     -0.2456
    176  N         24.6020    3.2710   69.0370 N.am  588  PRO588     -0.2718
    177  CA        23.1560    3.3300   69.0310 C.3   588  PRO588      0.1520
    178  C         22.6500    4.3640   68.0270 C.2   588  PRO588      0.2440
    179  O         23.4460    5.2130   67.5800 O.2   588  PRO588     -0.2731
    180  CB        22.8090    3.8280   70.4590 C.3   588  PRO588      0.0310
    181  CG        24.2110    4.1280   71.1260 C.3   588  PRO588      0.0237
    182  CD        25.2200    4.1320   70.0550 C.3   588  PRO588      0.0939
    183  N         21.3330    4.3640   67.7690 N.am  589  PRO589     -0.2727
    184  CA        20.8250    5.4730   66.9800 C.3   589  PRO589      0.1402
    185  C         20.8370    6.7510   67.8070 C.2   589  PRO589      0.2269
    186  O         20.7920    6.7120   69.0660 O.2   589  PRO589     -0.2865
    187  CB        19.3800    5.0350   66.6530 C.3   589  PRO589      0.0296
    188  CG        18.9600    4.2210   67.9140 C.3   589  PRO589      0.0237
    189  CD        20.2420    3.6460   68.4880 C.3   589  PRO589      0.0939
    190  N         15.5410    6.8060   69.6740 N.3   592  SER592     -0.1217
    191  CA        14.6110    5.7180   69.3270 C.3   592  SER592      0.1889
    192  C         13.2640    5.7200   70.0990 C.2   592  SER592      0.2288
    193  O         13.2540    5.7490   71.3510 O.2   592  SER592     -0.2866
    194  CB        15.3150    4.3470   69.4490 C.3   592  SER592      0.2089
    195  OG        15.2070    3.8370   70.7790 O.3   592  SER592     -0.2183
    196  N         14.7210    6.8980   73.9860 N.3   594  PHE594     -0.1241
    197  CA        16.1690    7.0580   74.2000 C.3   594  PHE594      0.1605
    198  C         16.8040    8.1990   73.3880 C.2   594  PHE594      0.2264
    199  O         16.4890    8.3830   72.2250 O.2   594  PHE594     -0.2867
    200  CB        16.8890    5.7120   74.0610 C.3   594  PHE594      0.0534
    201  CG        18.3830    5.8160   73.7810 C.ar  594  PHE594     -0.0203
    202  CD1       19.3030    5.7540   74.8150 C.ar  594  PHE594     -0.0042
    203  CD2       18.8430    5.9580   72.4870 C.ar  594  PHE594     -0.0042
    204  CE1       20.6390    5.8340   74.5700 C.ar  594  PHE594     -0.0003
    205  CE2       20.2250    6.0390   72.2190 C.ar  594  PHE594     -0.0003
    206  CZ        21.1100    5.9760   73.2450 C.ar  594  PHE594     -0.0000
@<TRIPOS>BOND
     1     3     2    1
     2     3     4    2
     3     1     2    1
     4     2     5    1
     5    77    76    1
     6    32    30    1
     7     7     9   ar
     8     7     6   ar
     9     9    11   ar
    10    12    13    1
    11     5     6    1
    12     6     8   ar
    13    76    75   ar
    14    76    74   ar
    15    30    29    2
    16    30    31    1
    17    75    73   ar
    18    11    10   ar
    19   129   128    1
    20    84    82    1
    21    29    28    1
    22    83    82    1
    23   126   128   ar
    24   126   124   ar
    25    14    13    1
    26    14    15    2
    27     8    10   ar
    28    13    16    1
    29    82    79    1
    30    74    72   ar
    31    89    90    1
    32    89    86    1
    33   128   127   ar
    34   124   123   ar
    35    73    71   ar
    36    16    17    1
    37    28    27    1
    38    86    85    1
    39    86    87    1
    40    81    80    2
    41    72    71   ar
    42    26    27    1
    43    26    23    1
    44    79    80    1
    45    79    78    1
    46   127   125   ar
    47    71    70    1
    48    88    87    2
    49   123   125   ar
    50   123   122    1
    51    87    91   am
    52    78    68   am
    53    17    18   ar
    54    17    19   ar
    55    24    23    1
    56    24    25    2
    57    18    20   ar
    58   119   118    1
    59   119   122    1
    60   119   120    1
    61    22    23    1
    62   121   120    2
    63    70    67    1
    64    91    92    1
    65    68    67    1
    66    68    69    2
    67    19    21   ar
    68    20    21   ar
    69    67    66    1
    70   117   116    1
    71    92    93    1
    72    92    95    1
    73    63    62    2
    74    93    94    2
    75   175   173   ar
    76   116   113    1
    77    66    62   am
    78    62    61    1
    79   115   114    2
    80   174   173   ar
    81   173   172    1
    82   167   166   ar
    83   167   165   ar
    84   114   113    1
    85   166   164   ar
    86   113   112    1
    87   187   184    1
    88   187   188    1
    89   102   101   ar
    90   184   183    1
    91   184   185    1
    92    61    64    1
    93    61    60    1
    94    40    38   am
    95    65    64    1
    96   103   101   ar
    97   165   163   ar
    98    52    51    2
    99   101   100    1
   100   171   170    2
   101   172   169    1
   102   179   178    2
   103   164   162   ar
   104   112   106   am
   105   111   110    1
   106   183   178   am
   107   183   189    1
   108   185   186    2
   109   188   189    1
   110    60    51   am
   111   178   177    1
   112    51    50    1
   113   100    97    1
   114   170   169    1
   115   170   176   am
   116    38    39    2
   117    38    37    1
   118   163   162   ar
   119   169   168    1
   120   162   161    1
   121   106   107    2
   122   106   105    1
   123   177   176    1
   124   177   180    1
   125   176   182    1
   126   109   110    1
   127   109   108    1
   128    50    53    1
   129    50    49    1
   130    53    54    1
   131   191   194    1
   132   191   190    1
   133   191   192    1
   134   194   195    1
   135    37    34    1
   136    97    98    1
   137    97    96    1
   138   104    98   am
   139   104   105    1
   140   161   158    1
   141    98    99    2
   142   105   108    1
   143   182   181    1
   144   192   193    2
   145    44    43    2
   146   180   181    1
   147    49    43   am
   148    54    55   ar
   149    54    56   ar
   150    55    57   ar
   151    43    42    1
   152    34    35    1
   153    34    33    1
   154   158   159    1
   155   158   157    1
   156    35    36    2
   157    35    41   am
   158   159   160    2
   159    41    42    1
   160    56    58   ar
   161    57    59   ar
   162    42    45    1
   163   205   203   ar
   164   205   206   ar
   165   199   198    2
   166   203   201   ar
   167    58    59   ar
   168   133   132    2
   169   148   147    1
   170    45    46    1
   171   130   131    1
   172   206   204   ar
   173   198   197    1
   174   201   200    1
   175   201   202   ar
   176   132   131    1
   177   132   135   am
   178   196   197    1
   179   200   197    1
   180   131   134    1
   181   147   144    1
   182    46    48    1
   183    46    47    1
   184   135   136    1
   185   204   202   ar
   186   136   137    1
   187   136   139    1
   188   143   144    1
   189   143   137   am
   190   144   145    1
   191   137   138    2
   192   139   140    1
   193   141   140   ar
   194   140   142   ar
   195   155   154    1
   196   145   149   am
   197   145   146    2
   198   149   150    1
   199   156   154    1
   200   154   153    1
   201   153   150    1
   202   150   151    1
   203   151   152    2
