@<TRIPOS>MOLECULE
tmp/3v99A00.pdb
 150 140 0 0 0
SMALL
GASTEIGER

@<TRIPOS>ATOM
      1  N         23.7550  -81.4380  -20.3490 N.3   165  PHE165     -0.1241
      2  CA        23.3160  -82.5760  -21.1490 C.3   165  PHE165      0.1605
      3  C         24.4960  -83.2620  -21.8300 C.2   165  PHE165      0.2264
      4  O         25.2560  -82.6340  -22.5690 O.2   165  PHE165     -0.2867
      5  CB        22.2730  -82.1390  -22.1800 C.3   165  PHE165      0.0534
      6  CG        21.5350  -83.2800  -22.8230 C.ar  165  PHE165     -0.0203
      7  CD1       20.8340  -84.1960  -22.0500 C.ar  165  PHE165     -0.0042
      8  CD2       21.5210  -83.4200  -24.2020 C.ar  165  PHE165     -0.0042
      9  CE1       20.1480  -85.2430  -22.6370 C.ar  165  PHE165     -0.0003
     10  CE2       20.8370  -84.4610  -24.8000 C.ar  165  PHE165     -0.0003
     11  CZ        20.1490  -85.3740  -24.0140 C.ar  165  PHE165     -0.0000
     12  N         25.3460  -84.6130  -24.3550 N.3   167  SER167     -0.1217
     13  CA        25.6860  -84.1190  -25.6950 C.3   167  SER167      0.1889
     14  C         25.4130  -85.1540  -26.7830 C.2   167  SER167      0.2288
     15  O         24.3180  -85.6980  -26.8770 O.2   167  SER167     -0.2866
     16  CB        27.1480  -83.6660  -25.7690 C.3   167  SER167      0.2089
     17  OG        27.8930  -84.5080  -26.6360 O.3   167  SER167     -0.2183
     18  N         23.6050  -78.7240  -33.4320 N.3   168  PHE168     -0.1241
     19  CA        23.3840  -79.5460  -34.6140 C.3   168  PHE168      0.1605
     20  C         24.3910  -79.2390  -35.7250 C.2   168  PHE168      0.2264
     21  O         24.1270  -79.4840  -36.9000 O.2   168  PHE168     -0.2867
     22  CB        21.9470  -79.3980  -35.1280 C.3   168  PHE168      0.0534
     23  CG        21.5930  -78.0070  -35.5540 C.ar  168  PHE168     -0.0203
     24  CD1       22.5810  -77.0540  -35.7540 C.ar  168  PHE168     -0.0042
     25  CD2       20.2680  -77.6480  -35.7410 C.ar  168  PHE168     -0.0042
     26  CE1       22.2600  -75.7690  -36.1410 C.ar  168  PHE168     -0.0003
     27  CE2       19.9410  -76.3670  -36.1240 C.ar  168  PHE168     -0.0003
     28  CZ        20.9360  -75.4260  -36.3250 C.ar  168  PHE168     -0.0000
     29  N         26.7980  -80.8950  -35.6640 N.3   170  LEU170     -0.1231
     30  CA        27.1120  -82.3170  -35.7360 C.3   170  LEU170      0.1693
     31  C         26.1510  -83.0180  -36.6560 C.2   170  LEU170      0.2592
     32  O         26.5420  -83.7740  -37.5500 O.2   170  LEU170     -0.2718
     33  CB        26.9530  -82.9160  -34.3480 C.3   170  LEU170      0.0284
     34  CG        27.8690  -82.1190  -33.4390 C.3   170  LEU170      0.0019
     35  CD1       28.5700  -83.0280  -32.4880 C.3   170  LEU170      0.0001
     36  CD2       28.8940  -81.3970  -34.2980 C.3   170  LEU170      0.0001
     37  N         24.8760  -82.7710  -36.3910 N.am  171  ASN171     -0.1974
     38  CA        23.8030  -83.3530  -37.1570 C.3   171  ASN171      0.1688
     39  C         24.1390  -83.1660  -38.6230 C.2   171  ASN171      0.2292
     40  O         23.9920  -84.0790  -39.4340 O.2   171  ASN171     -0.2864
     41  CB        22.4720  -82.6950  -36.7760 C.3   171  ASN171      0.1181
     42  CG        22.1630  -81.4440  -37.5950 C.2   171  ASN171      0.2629
     43  OD1       23.0050  -80.9370  -38.3380 O.2   171  ASN171     -0.2716
     44  ND2       20.9410  -80.9400  -37.4540 N.am  171  ASN171     -0.0877
     45  N          5.7970  -72.2220  -41.9550 N.3   336  PHE336     -0.1241
     46  CA         7.0510  -72.8420  -41.5350 C.3   336  PHE336      0.1605
     47  C          7.8190  -71.9660  -40.5400 C.2   336  PHE336      0.2264
     48  O          8.3350  -72.4570  -39.5360 O.2   336  PHE336     -0.2867
     49  CB         7.9210  -73.1490  -42.7580 C.3   336  PHE336      0.0534
     50  CG         9.2950  -73.6560  -42.4200 C.ar  336  PHE336     -0.0203
     51  CD1        9.5030  -74.9920  -42.1170 C.ar  336  PHE336     -0.0042
     52  CD2       10.3820  -72.8000  -42.4180 C.ar  336  PHE336     -0.0042
     53  CE1       10.7690  -75.4620  -41.8110 C.ar  336  PHE336     -0.0003
     54  CE2       11.6500  -73.2640  -42.1100 C.ar  336  PHE336     -0.0003
     55  CZ        11.8430  -74.5970  -41.8090 C.ar  336  PHE336     -0.0000
     56  N          8.5070  -72.7600  -36.5870 N.3   340  GLN340     -0.1245
     57  CA         9.8520  -72.9200  -36.0390 C.3   340  GLN340      0.1566
     58  C         10.1330  -71.9800  -34.8710 C.2   340  GLN340      0.2260
     59  O         10.6660  -72.3980  -33.8470 O.2   340  GLN340     -0.2867
     60  CB        10.9070  -72.7220  -37.1290 C.3   340  GLN340      0.0367
     61  CG        10.9260  -73.8220  -38.1820 C.3   340  GLN340      0.0905
     62  CD        11.4910  -75.1240  -37.6520 C.2   340  GLN340      0.2608
     63  OE1       12.6590  -75.1950  -37.2690 O.2   340  GLN340     -0.2717
     64  NE2       10.6640  -76.1620  -37.6220 N.am  340  GLN340     -0.0878
     65  N          7.1930  -73.7750  -31.9210 N.3   344  HIS344     -0.1241
     66  CA         8.2140  -74.6790  -31.4210 C.3   344  HIS344      0.1621
     67  C          9.1370  -73.9980  -30.4140 C.2   344  HIS344      0.2264
     68  O          9.0690  -74.2690  -29.2180 O.2   344  HIS344     -0.2867
     69  CB         9.0350  -75.2480  -32.5770 C.3   344  HIS344      0.0745
     70  CG         9.9810  -76.3310  -32.1690 C.ar  344  HIS344      0.0817
     71  ND1       11.1020  -76.6610  -32.8990 N.ar  344  HIS344     -0.2268
     72  CD2        9.9690  -77.1680  -31.1020 C.ar  344  HIS344      0.1154
     73  CE1       11.7410  -77.6470  -32.3010 C.ar  344  HIS344      0.1986
     74  NE2       11.0770  -77.9750  -31.2100 N.ar  344  HIS344     -0.2212
     75  N          9.8930  -74.6870  -25.9930 N.3   349  HIS349     -0.1241
     76  CA        11.2440  -74.6670  -25.4510 C.3   349  HIS349      0.1621
     77  C         11.4460  -73.5960  -24.3780 C.2   349  HIS349      0.2264
     78  O         11.7710  -73.9070  -23.2320 O.2   349  HIS349     -0.2867
     79  CB        12.2690  -74.4920  -26.5640 C.3   349  HIS349      0.0745
     80  CG        12.6050  -75.7650  -27.2680 C.ar  349  HIS349      0.0817
     81  ND1       13.8070  -76.4170  -27.0880 N.ar  349  HIS349     -0.2268
     82  CD2       11.8980  -76.5170  -28.1430 C.ar  349  HIS349      0.1154
     83  CE1       13.8270  -77.5100  -27.8270 C.ar  349  HIS349      0.1986
     84  NE2       12.6790  -77.5950  -28.4760 N.ar  349  HIS349     -0.2212
     85  N         19.6980  -77.9170  -23.3940 N.3   383  ILE383     -0.1245
     86  CA        19.3720  -77.9450  -24.8100 C.3   383  ILE383      0.1561
     87  C         19.1790  -76.5380  -25.3540 C.2   383  ILE383      0.2260
     88  O         19.6840  -76.2030  -26.4240 O.2   383  ILE383     -0.2867
     89  CB        18.1130  -78.7810  -25.0660 C.3   383  ILE383      0.0252
     90  CG1       18.4030  -80.2490  -24.7520 C.3   383  ILE383      0.0019
     91  CG2       17.6500  -78.6230  -26.5030 C.3   383  ILE383      0.0019
     92  CD1       17.1780  -81.1130  -24.6870 C.3   383  ILE383      0.0001
     93  N         22.5650  -74.8370  -25.6100 N.3   386  LYS386     -0.1245
     94  CA        23.2970  -75.3200  -26.7750 C.3   386  LYS386      0.1561
     95  C         22.8080  -74.6330  -28.0450 C.2   386  LYS386      0.2260
     96  O         23.6030  -74.2310  -28.8920 O.2   386  LYS386     -0.2867
     97  CB        23.1470  -76.8360  -26.9100 C.3   386  LYS386      0.0271
     98  CG        24.2830  -77.6310  -26.2940 C.3   386  LYS386      0.0035
     99  CD        23.7530  -78.7790  -25.4520 C.3   386  LYS386      0.0206
    100  CE        24.8680  -79.7290  -25.0370 C.3   386  LYS386      0.1093
    101  NZ        24.3420  -80.9160  -24.3010 N.3   386  LYS386     -0.1314
    102  N          6.9200  -81.0120  -33.0510 N.3   515  ASN515     -0.1240
    103  CA         8.3210  -81.2900  -33.3200 C.3   515  ASN515      0.1653
    104  C          8.5320  -82.4940  -34.2340 C.2   515  ASN515      0.2266
    105  O          9.3350  -82.4370  -35.1660 O.2   515  ASN515     -0.2867
    106  CB         9.0780  -81.4960  -32.0030 C.3   515  ASN515      0.1155
    107  CG        10.4860  -82.0330  -32.2130 C.2   515  ASN515      0.2627
    108  OD1       11.4100  -81.2790  -32.5200 O.2   515  ASN515     -0.2716
    109  ND2       10.6560  -83.3390  -32.0330 N.am  515  ASN515     -0.0877
    110  N          8.0540  -82.6600  -38.1300 N.3   518  GLN518     -0.1245
    111  CA         8.9470  -81.8090  -38.9120 C.3   518  GLN518      0.1566
    112  C          9.5160  -82.4980  -40.1480 C.2   518  GLN518      0.2260
    113  O          9.6230  -81.8840  -41.2060 O.2   518  GLN518     -0.2867
    114  CB        10.0860  -81.2630  -38.0420 C.3   518  GLN518      0.0367
    115  CG         9.6890  -80.0880  -37.1600 C.3   518  GLN518      0.0905
    116  CD        10.8150  -79.6290  -36.2460 C.2   518  GLN518      0.2608
    117  OE1       11.2920  -78.4980  -36.3510 O.2   518  GLN518     -0.2717
    118  NE2       11.2370  -80.5030  -35.3390 N.am  518  GLN518     -0.0878
    119  N         19.2250  -81.6970  -42.5060 N.3   564  ALA564     -0.1231
    120  CA        18.9300  -81.2980  -41.1370 C.3   564  ALA564      0.1694
    121  C         17.7070  -82.0390  -40.6180 C.2   564  ALA564      0.2591
    122  O         17.7610  -82.7020  -39.5820 O.2   564  ALA564     -0.2718
    123  CB        18.7110  -79.7940  -41.0590 C.3   564  ALA564      0.0304
    124  N         16.6050  -81.9250  -41.3510 N.am  565  VAL565     -0.1980
    125  CA        15.3460  -82.5330  -40.9410 C.3   565  VAL565      0.1595
    126  C         15.4750  -84.0490  -40.7980 C.2   565  VAL565      0.2287
    127  O         14.8840  -84.6460  -39.8980 O.2   565  VAL565     -0.2864
    128  CB        14.2100  -82.2050  -41.9340 C.3   565  VAL565      0.0276
    129  CG1       12.8950  -82.7710  -41.4400 C.3   565  VAL565      0.0022
    130  CG2       14.0960  -80.7020  -42.1320 C.3   565  VAL565      0.0022
    131  N         17.9390  -85.2140  -37.8440 N.3   568  LEU568     -0.1245
    132  CA        17.1520  -85.1000  -36.6250 C.3   568  LEU568      0.1561
    133  C         16.1910  -86.2770  -36.5080 C.2   568  LEU568      0.2260
    134  O         15.9280  -86.7630  -35.4100 O.2   568  LEU568     -0.2867
    135  CB        16.3940  -83.7740  -36.5710 C.3   568  LEU568      0.0270
    136  CG        17.2120  -82.5000  -36.7600 C.3   568  LEU568      0.0019
    137  CD1       16.4310  -81.2530  -36.3370 C.3   568  LEU568      0.0001
    138  CD2       18.5370  -82.5900  -36.0090 C.3   568  LEU568      0.0001
    139  N         11.4120  -81.8650  -23.6170 N.3   629  VAL629     -0.1231
    140  CA        11.8320  -81.3510  -24.9160 C.3   629  VAL629      0.1692
    141  C         13.1110  -82.0180  -25.4190 C.2   629  VAL629      0.2591
    142  O         13.4560  -81.9000  -26.5960 O.2   629  VAL629     -0.2718
    143  CB        12.0550  -79.8330  -24.8650 C.3   629  VAL629      0.0266
    144  CG1       10.8310  -79.1450  -24.2860 C.3   629  VAL629      0.0020
    145  CG2       13.2920  -79.5120  -24.0410 C.3   629  VAL629      0.0020
    146  N         13.8080  -82.7100  -24.5210 N.am  630  ALA630     -0.1980
    147  CA        15.0360  -83.4300  -24.8590 C.3   630  ALA630      0.1597
    148  C         15.6780  -82.9310  -26.1510 C.2   630  ALA630      0.2287
    149  O         15.8080  -83.6780  -27.1220 O.2   630  ALA630     -0.2864
    150  CB        14.7680  -84.9240  -24.9420 C.3   630  ALA630      0.0319
@<TRIPOS>BOND
     1    49    50    1
     2    49    46    1
     3   119   120    1
     4    50    52   ar
     5    50    51   ar
     6    52    54   ar
     7   130   128    1
     8    51    53   ar
     9    54    55   ar
    10    45    46    1
    11   128   129    1
    12   128   125    1
    13    53    55   ar
    14    46    47    1
    15   124   125    1
    16   124   121   am
    17   113   112    2
    18   120   123    1
    19   120   121    1
    20   125   126    1
    21   126   127    2
    22   121   122    2
    23    47    48    2
    24   112   111    1
    25    40    39    2
    26   111   110    1
    27   111   114    1
    28    39    38    1
    29    43    42    2
    30    61    62    1
    31    61    60    1
    32   114   115    1
    33   131   132    1
    34    62    64   am
    35    62    63    2
    36    42    44   am
    37    42    41    1
    38    32    31    2
    39   115   116    1
    40    38    41    1
    41    38    37    1
    42    60    57    1
    43    21    20    2
    44   136   135    1
    45   136   137    1
    46   136   138    1
    47    31    37   am
    48    31    30    1
    49   132   135    1
    50   132   133    1
    51    56    57    1
    52   133   134    2
    53   117   116    2
    54    28    26   ar
    55    28    27   ar
    56   116   118   am
    57    26    24   ar
    58    27    25   ar
    59    57    58    1
    60    24    23   ar
    61    25    23   ar
    62    30    29    1
    63    30    33    1
    64    20    19    1
    65    23    22    1
    66   105   104    2
    67    22    19    1
    68    58    59    2
    69    19    18    1
    70    33    34    1
    71    36    34    1
    72   104   103    1
    73    34    35    1
    74   103   102    1
    75   103   106    1
    76    71    73   ar
    77    71    70   ar
    78    69    70    1
    79    69    66    1
    80   108   107    2
    81    73    74   ar
    82   107   109   am
    83   107   106    1
    84    70    72   ar
    85    65    66    1
    86    66    67    1
    87    74    72   ar
    88    67    68    2
    89    96    95    2
    90    84    82   ar
    91    84    83   ar
    92    82    80   ar
    93    95    94    1
    94    83    81   ar
    95    80    81   ar
    96    80    79    1
    97   149   148    2
    98    97    94    1
    99    97    98    1
   100    15    14    2
   101    14    13    1
   102    94    93    1
   103    17    16    1
   104   142   141    2
   105    79    76    1
   106    91    89    1
   107    88    87    2
   108    98    99    1
   109   148   147    1
   110    75    76    1
   111    16    13    1
   112    13    12    1
   113    99   100    1
   114    76    77    1
   115   141   140    1
   116   141   146   am
   117    87    86    1
   118    89    86    1
   119    89    90    1
   120   100   101    1
   121   150   147    1
   122   140   143    1
   123   140   139    1
   124   143   144    1
   125   143   145    1
   126   147   146    1
   127    86    85    1
   128    10     8   ar
   129    10    11   ar
   130    90    92    1
   131    77    78    2
   132     8     6   ar
   133    11     9   ar
   134     6     5    1
   135     6     7   ar
   136     9     7   ar
   137     4     3    2
   138     5     2    1
   139     3     2    1
   140     2     1    1
