@<TRIPOS>MOLECULE
tmp/3v9bC00.pdb
 252 244 0 0 0
SMALL
GASTEIGER

@<TRIPOS>ATOM
      1  N         -8.1440    2.2270   36.8860 N.3    72  TYR72      -0.1227
      2  CA        -9.4290    1.5640   36.7440 C.3    72  TYR72       0.1736
      3  C         -9.4890    0.5270   35.6190 C.2    72  TYR72       0.2595
      4  O         -9.7310   -0.6540   35.8700 O.2    72  TYR72      -0.2718
      5  CB       -10.5340    2.6050   36.5250 C.3    72  TYR72       0.0548
      6  CG       -11.9170    1.9970   36.4780 C.ar   72  TYR72      -0.0200
      7  CD1      -12.6620    1.8140   37.6450 C.ar   72  TYR72      -0.0009
      8  CD2      -12.4510    1.5310   35.2720 C.ar   72  TYR72      -0.0009
      9  CE1      -13.9100    1.1720   37.6160 C.ar   72  TYR72       0.0417
     10  CE2      -13.6940    0.8860   35.2310 C.ar   72  TYR72       0.0417
     11  CZ       -14.4180    0.7100   36.4080 C.ar   72  TYR72       0.1957
     12  OH       -15.6470    0.0830   36.3630 O.3    72  TYR72      -0.2866
     13  N         -9.2880    0.9700   34.3800 N.am   73  HIS73      -0.1975
     14  CA        -9.3610    0.0640   33.2400 C.3    73  HIS73       0.1656
     15  C         -8.1570   -0.8720   33.1310 C.2    73  HIS73       0.2291
     16  O         -7.3350   -0.7710   32.2180 O.2    73  HIS73      -0.2864
     17  CB        -9.5640    0.8660   31.9530 C.3    73  HIS73       0.0771
     18  CG       -10.8800    1.5840   31.8990 C.ar   73  HIS73       0.0820
     19  ND1      -11.0180    2.9160   32.2290 N.ar   73  HIS73      -0.2267
     20  CD2      -12.1240    1.1440   31.5920 C.ar   73  HIS73       0.1154
     21  CE1      -12.2890    3.2670   32.1230 C.ar   73  HIS73       0.1986
     22  NE2      -12.9820    2.2090   31.7390 N.ar   73  HIS73      -0.2212
     23  N        -10.4940   -4.9360   36.6750 N.3    77  HIS77      -0.1241
     24  CA       -11.7920   -4.5440   36.1310 C.3    77  HIS77       0.1621
     25  C        -12.2490   -5.5770   35.1000 C.2    77  HIS77       0.2264
     26  O        -13.4300   -5.9200   35.0350 O.2    77  HIS77      -0.2867
     27  CB       -11.6930   -3.1690   35.4690 C.3    77  HIS77       0.0745
     28  CG       -12.8800   -2.8170   34.6300 C.ar   77  HIS77       0.0817
     29  ND1      -14.1390   -2.6300   35.1600 N.ar   77  HIS77      -0.2268
     30  CD2      -13.0060   -2.6540   33.2910 C.ar   77  HIS77       0.1154
     31  CE1      -14.9900   -2.3690   34.1830 C.ar   77  HIS77       0.1986
     32  NE2      -14.3280   -2.3800   33.0400 N.ar   77  HIS77      -0.2212
     33  N        -11.7210   -4.4380   27.3720 N.3   114  ASP114     -0.1239
     34  CA       -10.9130   -3.2520   27.6740 C.3   114  ASP114      0.1674
     35  C         -9.4100   -3.4960   27.5600 C.2   114  ASP114      0.2266
     36  O         -8.6120   -2.7090   28.0790 O.2   114  ASP114     -0.2867
     37  CB       -11.2020   -2.7300   29.0900 C.3   114  ASP114      0.1410
     38  CG       -12.3620   -1.7550   29.1290 C.2   114  ASP114      0.3668
     39  OD1      -12.6650   -1.1650   28.0850 O.co2 114  ASP114     -0.2456
     40  OD2      -12.9550   -1.5600   30.2020 O.co2 114  ASP114     -0.2456
     41  N         -6.2270   -0.8350   27.3600 N.3   117  HIS117     -0.1241
     42  CA        -6.8450    0.4700   27.5880 C.3   117  HIS117      0.1621
     43  C         -5.7250    1.3990   28.0730 C.2   117  HIS117      0.2264
     44  O         -4.9620    1.0470   28.9830 O.2   117  HIS117     -0.2867
     45  CB        -7.9390    0.3580   28.6470 C.3   117  HIS117      0.0745
     46  CG        -8.8900    1.5110   28.6580 C.ar  117  HIS117      0.0817
     47  ND1       -8.4990    2.7970   28.9700 N.ar  117  HIS117     -0.2268
     48  CD2      -10.2170    1.5750   28.3960 C.ar  117  HIS117      0.1154
     49  CE1       -9.5440    3.6020   28.8990 C.ar  117  HIS117      0.1986
     50  NE2      -10.6000    2.8860   28.5540 N.ar  117  HIS117     -0.2212
     51  N        -10.0870    8.4530   27.7550 N.3   121  SER121     -0.1202
     52  CA       -11.3070    8.2600   26.9740 C.3   121  SER121      0.2020
     53  C        -11.1370    8.3790   25.4700 C.2   121  SER121      0.2618
     54  O        -10.1060    8.8230   24.9750 O.2   121  SER121     -0.2717
     55  CB       -12.3520    9.2830   27.3990 C.3   121  SER121      0.2103
     56  OG       -11.8940   10.5810   27.0540 O.3   121  SER121     -0.2182
     57  N        -12.1900    7.9930   24.7570 N.am  122  ASN122     -0.1974
     58  CA       -12.2090    8.0690   23.3110 C.3   122  ASN122      0.1688
     59  C        -11.9910    9.5170   22.8570 C.2   122  ASN122      0.2292
     60  O        -11.1940    9.7780   21.9570 O.2   122  ASN122     -0.2864
     61  CB       -13.5510    7.5670   22.7590 C.3   122  ASN122      0.1181
     62  CG       -13.6020    6.0570   22.6030 C.2   122  ASN122      0.2629
     63  OD1      -12.6070    5.4270   22.2470 O.2   122  ASN122     -0.2716
     64  ND2      -14.7710    5.4710   22.8480 N.am  122  ASN122     -0.0877
     65  N        -11.6660    3.1720   21.1290 N.3   142  LEU142     -0.1231
     66  CA       -11.1000    2.2070   22.0630 C.3   142  LEU142      0.1693
     67  C        -11.7040    0.8250   21.8580 C.2   142  LEU142      0.2591
     68  O        -10.9830   -0.1690   21.7630 O.2   142  LEU142     -0.2718
     69  CB       -11.3330    2.6580   23.5090 C.3   142  LEU142      0.0284
     70  CG       -10.5090    3.8550   23.9970 C.3   142  LEU142      0.0019
     71  CD1      -11.0670    4.3770   25.3110 C.3   142  LEU142      0.0001
     72  CD2       -9.0650    3.4350   24.1600 C.3   142  LEU142      0.0001
     73  N        -13.0310    0.7790   21.7830 N.am  143  GLU143     -0.1979
     74  CA       -13.7600   -0.4690   21.6120 C.3   143  GLU143      0.1602
     75  C        -13.2360   -1.2860   20.4290 C.2   143  GLU143      0.2287
     76  O        -13.0180   -2.4880   20.5510 O.2   143  GLU143     -0.2864
     77  CB       -15.2510   -0.1760   21.4560 C.3   143  GLU143      0.0415
     78  CG       -15.9290    0.3980   22.7300 C.3   143  GLU143      0.1163
     79  CD       -15.4670    1.8100   23.1010 C.2   143  GLU143      0.3649
     80  OE1      -15.1280    2.6060   22.1900 O.co2 143  GLU143     -0.2457
     81  OE2      -15.4650    2.1340   24.3120 O.co2 143  GLU143     -0.2457
     82  N        -20.3000   -1.7790   24.5910 N.3   184  THR184     -0.1203
     83  CA       -19.8040   -1.2430   25.8640 C.3   184  THR184      0.1994
     84  C        -19.4090    0.2250   25.7370 C.2   184  THR184      0.2618
     85  O        -19.0240    0.8610   26.7220 O.2   184  THR184     -0.2717
     86  CB       -18.5730   -2.0140   26.4090 C.3   184  THR184      0.1784
     87  OG1      -17.4680   -1.8480   25.5160 O.3   184  THR184     -0.2211
     88  CG2      -18.8860   -3.4950   26.5730 C.3   184  THR184      0.0376
     89  N        -19.4900    0.7500   24.5170 N.am  185  ASP185     -0.1959
     90  CA       -19.1720    2.1490   24.2500 C.3   185  ASP185      0.1840
     91  C        -20.3090    2.9670   24.8680 C.2   185  ASP185      0.2621
     92  O        -21.4550    2.8420   24.4430 O.2   185  ASP185     -0.2715
     93  CB       -19.1190    2.3850   22.7360 C.3   185  ASP185      0.1450
     94  CG       -18.8470    3.8330   22.3730 C.2   185  ASP185      0.3671
     95  OD1      -18.9260    4.7100   23.2600 O.co2 185  ASP185     -0.2456
     96  OD2      -18.5660    4.0980   21.1840 O.co2 185  ASP185     -0.2456
     97  N        -19.9860    3.7970   25.8570 N.am  186  MET186     -0.1977
     98  CA       -20.9890    4.6090   26.5450 C.3   186  MET186      0.1605
     99  C        -21.8180    5.5230   25.6590 C.2   186  MET186      0.2287
    100  O        -22.9500    5.8620   26.0060 O.2   186  MET186     -0.2864
    101  CB       -20.3420    5.4420   27.6530 C.3   186  MET186      0.0413
    102  CG       -20.1880    4.7050   28.9710 C.3   186  MET186      0.0598
    103  SD       -21.7620    4.0700   29.6240 S.3   186  MET186     -0.1393
    104  CE       -22.6370    5.5760   29.9480 C.3   186  MET186      0.0692
    105  N        -20.4840   -4.1710   33.0040 N.3   231  ASP231     -0.1225
    106  CA       -19.5170   -3.0820   32.8730 C.3   231  ASP231      0.1805
    107  C        -19.8680   -1.9250   33.8190 C.2   231  ASP231      0.2597
    108  O        -18.9810   -1.2390   34.3290 O.2   231  ASP231     -0.2718
    109  CB       -19.4870   -2.6100   31.4140 C.3   231  ASP231      0.1424
    110  CG       -18.2480   -1.7860   31.0800 C.2   231  ASP231      0.3668
    111  OD1      -17.1930   -2.0020   31.7110 O.co2 231  ASP231     -0.2456
    112  OD2      -18.3270   -0.9410   30.1630 O.co2 231  ASP231     -0.2456
    113  N        -21.1610   -1.7190   34.0610 N.am  232  LEU232     -0.1979
    114  CA       -21.6160   -0.6520   34.9550 C.3   232  LEU232      0.1596
    115  C        -22.2130   -1.2520   36.2420 C.2   232  LEU232      0.2287
    116  O        -23.2040   -0.7400   36.7780 O.2   232  LEU232     -0.2864
    117  CB       -22.6840    0.2040   34.2610 C.3   232  LEU232      0.0297
    118  CG       -22.3960    0.7750   32.8670 C.3   232  LEU232      0.0022
    119  CD1      -23.5890    1.6160   32.4080 C.3   232  LEU232      0.0001
    120  CD2      -21.1300    1.6120   32.8950 C.3   232  LEU232      0.0001
    121  N        -20.4310   -1.7590   39.2190 N.3   234  ASN234     -0.1226
    122  CA       -19.7390   -1.3350   40.4370 C.3   234  ASN234      0.1770
    123  C        -20.6610   -0.8140   41.5550 C.2   234  ASN234      0.2439
    124  O        -20.5180   -1.2040   42.7110 O.2   234  ASN234     -0.2733
    125  CB       -18.7160   -0.2440   40.1160 C.3   234  ASN234      0.1168
    126  CG       -17.6100   -0.7150   39.1940 C.2   234  ASN234      0.2627
    127  OD1      -16.9340    0.1030   38.5760 O.2   234  ASN234     -0.2716
    128  ND2      -17.4070   -2.0270   39.1080 N.am  234  ASN234     -0.0877
    129  N        -21.6030    0.0910   41.2280 N.am  235  PRO235     -0.2729
    130  CA       -22.5120    0.6330   42.2480 C.3   235  PRO235      0.1401
    131  C        -23.4740   -0.3810   42.8660 C.2   235  PRO235      0.2269
    132  O        -24.0090   -0.1370   43.9490 O.2   235  PRO235     -0.2865
    133  CB       -23.2600    1.7440   41.5000 C.3   235  PRO235      0.0296
    134  CG       -22.2800    2.1580   40.4220 C.3   235  PRO235      0.0237
    135  CD       -21.7640    0.8160   39.9540 C.3   235  PRO235      0.0939
    136  N        -17.4450   -1.4550   45.8780 N.3   242  TYR242     -0.1241
    137  CA       -17.8470   -0.2410   45.1810 C.3   242  TYR242      0.1605
    138  C        -16.8860    0.9140   45.4850 C.2   242  TYR242      0.2264
    139  O        -16.4330    1.6060   44.5710 O.2   242  TYR242     -0.2867
    140  CB       -19.2950    0.0940   45.5750 C.3   242  TYR242      0.0534
    141  CG       -19.9030    1.3340   44.9470 C.ar  242  TYR242     -0.0201
    142  CD1      -19.4050    1.8740   43.7550 C.ar  242  TYR242     -0.0009
    143  CD2      -21.0040    1.9560   45.5390 C.ar  242  TYR242     -0.0009
    144  CE1      -19.9880    3.0030   43.1760 C.ar  242  TYR242      0.0417
    145  CE2      -21.5960    3.0790   44.9670 C.ar  242  TYR242      0.0417
    146  CZ       -21.0830    3.6000   43.7910 C.ar  242  TYR242      0.1957
    147  OH       -21.6580    4.7270   43.2520 O.3   242  TYR242     -0.2866
    148  N        -13.6960    0.7880   43.5640 N.3   245  TRP245     -0.1227
    149  CA       -13.9430    1.0740   42.1540 C.3   245  TRP245      0.1737
    150  C        -14.0650    2.5790   41.9650 C.2   245  TRP245      0.2596
    151  O        -13.5360    3.1380   41.0000 O.2   245  TRP245     -0.2718
    152  CB       -15.2230    0.3760   41.6720 C.3   245  TRP245      0.0564
    153  CG       -15.0750   -1.1150   41.5280 C.ar  245  TRP245      0.0003
    154  CD1      -15.8700   -2.0780   42.0830 C.ar  245  TRP245      0.0946
    155  CD2      -14.0580   -1.8090   40.7900 C.ar  245  TRP245      0.0152
    156  NE1      -15.4080   -3.3270   41.7440 N.ar  245  TRP245     -0.2442
    157  CE2      -14.2980   -3.1920   40.9500 C.ar  245  TRP245      0.0810
    158  CE3      -12.9680   -1.3950   40.0090 C.ar  245  TRP245      0.0012
    159  CZ2      -13.4840   -4.1710   40.3590 C.ar  245  TRP245      0.0191
    160  CZ3      -12.1570   -2.3690   39.4200 C.ar  245  TRP245      0.0001
    161  CH2      -12.4220   -3.7410   39.6000 C.ar  245  TRP245      0.0015
    162  N        -14.7490    3.2400   42.8950 N.am  246  THR246     -0.1953
    163  CA       -14.9200    4.6830   42.8020 C.3   246  THR246      0.1897
    164  C        -13.5860    5.4050   42.9510 C.2   246  THR246      0.2313
    165  O        -13.2850    6.3250   42.1830 O.2   246  THR246     -0.2863
    166  CB       -15.9200    5.2040   43.8590 C.3   246  THR246      0.1794
    167  OG1      -17.2190    4.6690   43.5790 O.3   246  THR246     -0.2208
    168  CG2      -15.9970    6.7320   43.8280 C.3   246  THR246      0.0378
    169  N        -11.6120    4.7410   39.5490 N.3   249  ILE249     -0.1231
    170  CA       -12.1010    5.4810   38.3880 C.3   249  ILE249      0.1692
    171  C        -11.7980    6.9780   38.5460 C.2   249  ILE249      0.2591
    172  O        -11.4280    7.6530   37.5770 O.2   249  ILE249     -0.2718
    173  CB       -13.6270    5.2790   38.1760 C.3   249  ILE249      0.0266
    174  CG1      -14.0120    5.6980   36.7530 C.3   249  ILE249      0.0019
    175  CG2      -14.4200    6.1100   39.1700 C.3   249  ILE249      0.0020
    176  CD1      -13.3600    4.8660   35.6660 C.3   249  ILE249      0.0001
    177  N        -11.9280    7.4920   39.7690 N.am  250  MET250     -0.1979
    178  CA       -11.6540    8.9070   40.0070 C.3   250  MET250      0.1605
    179  C        -10.1810    9.2070   39.7970 C.2   250  MET250      0.2287
    180  O         -9.8280   10.2400   39.2380 O.2   250  MET250     -0.2864
    181  CB       -12.0810    9.3280   41.4200 C.3   250  MET250      0.0413
    182  CG       -13.5970    9.4460   41.6010 C.3   250  MET250      0.0598
    183  SD       -14.4160   10.3720   40.2600 S.3   250  MET250     -0.1393
    184  CE       -13.7810   11.9920   40.5200 C.3   250  MET250      0.0692
    185  N         -9.6340    9.2610   36.0650 N.3   253  PHE253     -0.1241
    186  CA       -10.1800   10.4940   35.4960 C.3   253  PHE253      0.1605
    187  C         -9.3140   11.7050   35.8510 C.2   253  PHE253      0.2264
    188  O         -9.0430   12.5590   34.9970 O.2   253  PHE253     -0.2867
    189  CB       -11.6130   10.7310   35.9840 C.3   253  PHE253      0.0534
    190  CG       -12.6410    9.8480   35.3260 C.ar  253  PHE253     -0.0203
    191  CD1      -12.2650    8.8450   34.4380 C.ar  253  PHE253     -0.0042
    192  CD2      -13.9930   10.0060   35.6180 C.ar  253  PHE253     -0.0042
    193  CE1      -13.2180    8.0160   33.8550 C.ar  253  PHE253     -0.0003
    194  CE2      -14.9500    9.1820   35.0400 C.ar  253  PHE253     -0.0003
    195  CZ       -14.5600    8.1850   34.1570 C.ar  253  PHE253     -0.0000
    196  N         -6.2830   11.9450   33.7270 N.3   256  GLN256     -0.1245
    197  CA        -6.5850   12.4350   32.3890 C.3   256  GLN256      0.1566
    198  C         -6.7050   13.9530   32.4720 C.2   256  GLN256      0.2260
    199  O         -6.2710   14.6710   31.5720 O.2   256  GLN256     -0.2867
    200  CB        -7.8990   11.8540   31.8620 C.3   256  GLN256      0.0367
    201  CG        -8.1830   12.2530   30.4120 C.3   256  GLN256      0.0905
    202  CD        -9.3760   11.5290   29.8240 C.2   256  GLN256      0.2608
    203  OE1       -9.5060   10.3170   29.9670 O.2   256  GLN256     -0.2717
    204  NE2      -10.2490   12.2700   29.1470 N.am  256  GLN256     -0.0878
    205  N        -15.3290   16.2260   36.7470 N.3   270  MET270     -0.1230
    206  CA       -15.0180   14.8740   37.1980 C.3   270  MET270      0.1702
    207  C        -13.5570   14.5140   36.9360 C.2   270  MET270      0.2592
    208  O        -13.0040   13.6340   37.5970 O.2   270  MET270     -0.2718
    209  CB       -15.9340   13.8620   36.5060 C.3   270  MET270      0.0401
    210  CG       -15.8320   13.8630   34.9930 C.3   270  MET270      0.0596
    211  SD       -16.9140   12.6400   34.2410 S.3   270  MET270     -0.1393
    212  CE       -18.2780   13.6760   33.7040 C.3   270  MET270      0.0692
    213  N        -12.9380   15.1860   35.9680 N.am  271  CYS271     -0.1970
    214  CA       -11.5330   14.9410   35.6450 C.3   271  CYS271      0.1712
    215  C        -10.6480   15.9860   36.3170 C.2   271  CYS271      0.2296
    216  O         -9.4240   15.8680   36.3250 O.2   271  CYS271     -0.2864
    217  CB       -11.3110   14.9860   34.1290 C.3   271  CYS271      0.0983
    218  SG       -11.9110   13.5500   33.2110 S.3   271  CYS271     -0.0798
    219  N        -21.0910   13.1210   42.4030 N.3   281  SER281     -0.1202
    220  CA       -21.0060   12.5180   41.0790 C.3   281  SER281      0.2020
    221  C        -21.5040   11.0830   41.0780 C.2   281  SER281      0.2618
    222  O        -22.2380   10.6790   40.1750 O.2   281  SER281     -0.2717
    223  CB       -19.5690   12.5830   40.5660 C.3   281  SER281      0.2103
    224  OG       -19.1850   13.9310   40.3590 O.3   281  SER281     -0.2182
    225  N        -21.1160   10.3130   42.0890 N.am  282  GLN282     -0.1979
    226  CA       -21.5590    8.9280   42.1720 C.3   282  GLN282      0.1601
    227  C        -23.0710    8.8750   42.2640 C.2   282  GLN282      0.2287
    228  O        -23.7080    8.0080   41.6580 O.2   282  GLN282     -0.2864
    229  CB       -20.9410    8.2220   43.3820 C.3   282  GLN282      0.0394
    230  CG       -19.5150    7.7650   43.1410 C.3   282  GLN282      0.0908
    231  CD       -19.3880    6.9370   41.8720 C.2   282  GLN282      0.2608
    232  OE1      -20.0500    5.9060   41.7190 O.2   282  GLN282     -0.2717
    233  NE2      -18.5420    7.3890   40.9510 N.am  282  GLN282     -0.0878
    234  N        -24.3890    9.7110   38.9220 N.3   285  PHE285     -0.1241
    235  CA       -24.0960    8.5760   38.0520 C.3   285  PHE285      0.1605
    236  C        -25.1600    7.5000   38.2410 C.2   285  PHE285      0.2264
    237  O        -25.6780    6.9480   37.2720 O.2   285  PHE285     -0.2867
    238  CB       -22.6990    8.0340   38.3840 C.3   285  PHE285      0.0534
    239  CG       -22.3140    6.7890   37.6290 C.ar  285  PHE285     -0.0203
    240  CD1      -22.5590    6.6720   36.2600 C.ar  285  PHE285     -0.0042
    241  CD2      -21.6510    5.7500   38.2830 C.ar  285  PHE285     -0.0042
    242  CE1      -22.1480    5.5390   35.5520 C.ar  285  PHE285     -0.0003
    243  CE2      -21.2310    4.6080   37.5890 C.ar  285  PHE285     -0.0003
    244  CZ       -21.4780    4.5010   36.2200 C.ar  285  PHE285     -0.0000
    245  N        -27.8480    7.1030   35.1730 N.3   289  ILE289     -0.1245
    246  CA       -27.3240    6.0320   34.3340 C.3   289  ILE289      0.1561
    247  C        -27.4980    4.6120   34.8640 C.2   289  ILE289      0.2260
    248  O        -28.1960    3.7970   34.2580 O.2   289  ILE289     -0.2867
    249  CB       -25.8260    6.2660   34.0430 C.3   289  ILE289      0.0252
    250  CG1      -25.6570    7.5630   33.2460 C.3   289  ILE289      0.0019
    251  CG2      -25.2450    5.0860   33.2850 C.3   289  ILE289      0.0019
    252  CD1      -24.2140    7.9650   33.0190 C.3   289  ILE289      0.0001
@<TRIPOS>BOND
     1    75    76    2
     2    75    74    1
     3    65    66    1
     4    96    94   ar
     5    77    74    1
     6    77    78    1
     7    74    73    1
     8    68    67    2
     9    73    67   am
    10    67    66    1
    11    60    59    2
    12    66    69    1
    13    80    79   ar
    14    63    62    2
    15    94    93    1
    16    94    95   ar
    17    62    61    1
    18    62    64   am
    19    78    79    1
    20    93    90    1
    21    61    58    1
    22    59    58    1
    23    79    81   ar
    24    58    57    1
    25    69    70    1
    26    70    72    1
    27    70    71    1
    28    90    89    1
    29    90    91    1
    30    92    91    2
    31    89    84   am
    32    82    83    1
    33    57    53   am
    34    91    97   am
    35    54    53    2
    36    53    52    1
    37    87    86    1
    38    99   100    2
    39    99    98    1
    40    84    83    1
    41    84    85    2
    42    97    98    1
    43    83    86    1
    44    86    88    1
    45    98   101    1
    46    52    55    1
    47    52    51    1
    48    56    55    1
    49    41    42    1
    50    33    34    1
    51    35    34    1
    52    35    36    2
    53    42    43    1
    54    42    45    1
    55   101   102    1
    56    34    37    1
    57    43    44    2
    58    39    38   ar
    59    48    50   ar
    60    48    46   ar
    61    50    49   ar
    62    45    46    1
    63    46    47   ar
    64    49    47   ar
    65   102   103    1
    66    37    38    1
    67    38    40   ar
    68   204   202   am
    69   103   104    1
    70   202   203    2
    71   202   201    1
    72   112   110   ar
    73   201   200    1
    74   110   109    1
    75   110   111   ar
    76   109   106    1
    77   199   198    2
    78    20    22   ar
    79    20    18   ar
    80    22    21   ar
    81   200   197    1
    82    18    17    1
    83    18    19   ar
    84    17    14    1
    85    21    19   ar
    86    16    15    2
    87   197   198    1
    88   197   196    1
    89   119   118    1
    90   118   120    1
    91   118   117    1
    92   106   105    1
    93   106   107    1
    94   252   250    1
    95    32    30   ar
    96    32    31   ar
    97    15    14    1
    98   218   217    1
    99    14    13    1
   100   250   249    1
   101   251   249    1
   102    30    28   ar
   103   212   211    1
   104   107   113   am
   105   107   108    2
   106   193   195   ar
   107   193   191   ar
   108   249   246    1
   109   113   114    1
   110   217   214    1
   111   195   194   ar
   112    31    29   ar
   113   211   210    1
   114   248   247    2
   115   117   114    1
   116   246   247    1
   117   246   245    1
   118    13     3   am
   119   191   190   ar
   120    28    29   ar
   121    28    27    1
   122   114   115    1
   123   210   209    1
   124   188   187    2
   125    26    25    2
   126   194   192   ar
   127    25    24    1
   128    10     8   ar
   129    10    11   ar
   130     8     6   ar
   131   190   192   ar
   132   190   189    1
   133    27    24    1
   134   186   187    1
   135   186   189    1
   136   186   185    1
   137   242   244   ar
   138   242   240   ar
   139     3     4    2
   140     3     2    1
   141   214   213    1
   142   214   215    1
   143   176   174    1
   144   213   207   am
   145    24    23    1
   146   244   243   ar
   147   115   116    2
   148   240   239   ar
   149   215   216    2
   150    12    11    1
   151    11     9   ar
   152     6     5    1
   153     6     7   ar
   154   209   206    1
   155     5     2    1
   156     2     1    1
   157   205   206    1
   158   174   173    1
   159   207   206    1
   160   207   208    2
   161   237   236    2
   162   172   171    2
   163   243   241   ar
   164     9     7   ar
   165   239   241   ar
   166   239   238    1
   167   235   236    1
   168   235   238    1
   169   235   234    1
   170   173   170    1
   171   173   175    1
   172   170   171    1
   173   170   169    1
   174   171   177   am
   175   127   126    2
   176   128   126   am
   177   126   125    1
   178   121   122    1
   179   180   179    2
   180   160   161   ar
   181   160   158   ar
   182   161   159   ar
   183   177   178    1
   184   179   178    1
   185   135   134    1
   186   135   129    1
   187   178   181    1
   188   158   155   ar
   189   125   122    1
   190   222   221    2
   191   183   184    1
   192   183   182    1
   193   224   223    1
   194   159   157   ar
   195   134   133    1
   196   122   123    1
   197   223   220    1
   198   155   157   ar
   199   155   153   ar
   200   157   156   ar
   201   233   231   am
   202   151   150    2
   203   221   220    1
   204   221   225   am
   205   220   219    1
   206   129   123   am
   207   129   130    1
   208   181   182    1
   209   133   130    1
   210   153   152    1
   211   153   154   ar
   212   123   124    2
   213   228   227    2
   214   152   149    1
   215   232   231    2
   216   156   154   ar
   217   231   230    1
   218   150   149    1
   219   150   162   am
   220   225   226    1
   221   149   148    1
   222   226   227    1
   223   226   229    1
   224   165   164    2
   225   130   131    1
   226   163   162    1
   227   163   164    1
   228   163   166    1
   229   131   132    2
   230   230   229    1
   231   144   142   ar
   232   144   146   ar
   233   147   146    1
   234   167   166    1
   235   142   141   ar
   236   146   145   ar
   237   168   166    1
   238   139   138    2
   239   141   143   ar
   240   141   140    1
   241   145   143   ar
   242   137   138    1
   243   137   140    1
   244   137   136    1
