@<TRIPOS>MOLECULE
tmp/3v9cA03.pdb
 108 101 0 0 0
SMALL
GASTEIGER

@<TRIPOS>ATOM
      1  N         -8.1760   39.8480    3.8100 N.3   319  SER319     -0.1202
      2  CA        -7.6200   38.5180    3.6140 C.3   319  SER319      0.2020
      3  C         -6.8570   38.4650    2.2920 C.2   319  SER319      0.2619
      4  O         -7.4340   38.6950    1.2160 O.2   319  SER319     -0.2717
      5  CB        -8.7180   37.4600    3.6320 C.3   319  SER319      0.2103
      6  OG        -8.1490   36.1720    3.5020 O.3   319  SER319     -0.2182
      7  N         -5.5540   38.1930    2.3850 N.am  320  GLY320     -0.1956
      8  CA        -4.7070   38.0360    1.2030 C.3   320  GLY320      0.1869
      9  C         -4.2200   39.3390    0.5850 C.2   320  GLY320      0.2309
     10  O         -3.6170   39.3220   -0.4990 O.2   320  GLY320     -0.2863
     11  N          0.7000   35.1890   -0.4490 N.3   325  ALA325     -0.1231
     12  CA        -0.0200   34.5000    0.5980 C.3   325  ALA325      0.1694
     13  C          0.2690   33.0140    0.4590 C.2   325  ALA325      0.2592
     14  O          0.3070   32.4860   -0.6520 O.2   325  ALA325     -0.2718
     15  CB        -1.5300   34.8000    0.5300 C.3   325  ALA325      0.0304
     16  N          0.5410   32.3570    1.5840 N.am  326  ILE326     -0.1966
     17  CA         0.8000   30.9190    1.5900 C.3   326  ILE326      0.1727
     18  C         -0.0150   30.2420    2.6700 C.2   326  ILE326      0.2616
     19  O         -0.0690   30.7090    3.8250 O.2   326  ILE326     -0.2715
     20  CB         2.2930   30.5670    1.8230 C.3   326  ILE326      0.0290
     21  CG1        3.2260   31.3850    0.9220 C.3   326  ILE326      0.0022
     22  CG2        2.5230   29.0700    1.6050 C.3   326  ILE326      0.0023
     23  CD1        4.6720   31.3490    1.3720 C.3   326  ILE326      0.0001
     24  N         -0.6490   29.1370    2.2920 N.am  327  ASN327     -0.1972
     25  CA        -1.3970   28.3260    3.2330 C.3   327  ASN327      0.1688
     26  C         -0.6240   27.0600    3.5340 C.2   327  ASN327      0.2292
     27  O         -0.0300   26.4540    2.6360 O.2   327  ASN327     -0.2864
     28  CB        -2.7600   27.9560    2.6760 C.3   327  ASN327      0.1181
     29  CG        -3.6060   27.2290    3.6850 C.2   327  ASN327      0.2629
     30  OD1       -4.1120   27.8380    4.6330 O.2   327  ASN327     -0.2716
     31  ND2       -3.7660   25.9110    3.4950 N.am  327  ASN327     -0.0877
     32  N          1.7520   36.7500    3.8780 N.3   381  GLU381     -0.1245
     33  CA         0.7480   36.2600    4.8090 C.3   381  GLU381      0.1567
     34  C          0.7690   34.7420    4.8090 C.2   381  GLU381      0.2260
     35  O          0.7050   34.1130    3.7420 O.2   381  GLU381     -0.2867
     36  CB        -0.6480   36.7590    4.4280 C.3   381  GLU381      0.0388
     37  CG        -1.7490   36.2930    5.3810 C.3   381  GLU381      0.1160
     38  CD        -3.0690   37.0070    5.1410 C.2   381  GLU381      0.3649
     39  OE1       -3.7580   36.6750    4.1480 O.co2 381  GLU381     -0.2457
     40  OE2       -3.3920   37.9100    5.9320 O.co2 381  GLU381     -0.2457
     41  N         -1.0890   31.3040    6.5710 N.3   383  SER383     -0.1217
     42  CA        -2.1800   30.7640    7.3960 C.3   383  SER383      0.1889
     43  C         -1.8590   29.2950    7.7440 C.2   383  SER383      0.2288
     44  O         -1.2730   28.5740    6.9360 O.2   383  SER383     -0.2866
     45  CB        -3.5340   30.8880    6.6450 C.3   383  SER383      0.2089
     46  OG        -3.3940   30.4330    5.2940 O.3   383  SER383     -0.2183
     47  N         -4.1950   26.6110    9.0490 N.3   385  PRO385     -0.2102
     48  CA        -5.5070   26.1560    9.5270 C.3   385  PRO385      0.1504
     49  C         -5.4280   24.8710   10.3510 C.2   385  PRO385      0.2575
     50  O         -4.8040   23.8850    9.9260 O.2   385  PRO385     -0.2718
     51  CB        -6.3030   25.9280    8.2340 C.3   385  PRO385      0.0282
     52  CG        -5.2790   25.8130    7.1360 C.3   385  PRO385      0.0208
     53  CD        -4.1270   26.6750    7.5750 C.3   385  PRO385      0.0893
     54  N         -6.0450   24.8990   11.5390 N.am  386  ALA386     -0.1980
     55  CA        -5.9740   23.7700   12.4370 C.3   386  ALA386      0.1597
     56  C         -6.7730   22.6650   11.7870 C.2   386  ALA386      0.2287
     57  O         -7.8100   22.9290   11.1860 O.2   386  ALA386     -0.2864
     58  CB        -6.5400   24.1170   13.7910 C.3   386  ALA386      0.0319
     59  N         -4.6310   36.9500   13.0610 N.3   408  ARG408     -0.1245
     60  CA        -5.6850   36.1560   13.6720 C.3   408  ARG408      0.1563
     61  C         -5.0570   35.1770   14.6660 C.2   408  ARG408      0.2260
     62  O         -4.2100   34.3540   14.2810 O.2   408  ARG408     -0.2867
     63  CB        -6.4920   35.3810   12.6150 C.3   408  ARG408      0.0307
     64  CG        -7.6480   34.5930   13.2280 C.3   408  ARG408      0.0489
     65  CD        -8.5130   33.8560   12.1920 C.3   408  ARG408      0.2205
     66  NE        -9.4360   32.9310   12.8660 N.pl3 408  ARG408     -0.0865
     67  CZ       -10.3330   32.1610   12.2550 C.cat 408  ARG408      0.5346
     68  NH1      -10.4670   32.1960   10.9300 N.pl3 408  ARG408      0.1354
     69  NH2      -11.1050   31.3490   12.9750 N.pl3 408  ARG408      0.1354
     70  N         -9.8880   39.1530   12.4150 N.3   415  TYR415     -0.1241
     71  CA        -8.6470   39.5260   11.7630 C.3   415  TYR415      0.1605
     72  C         -8.3270   40.9610   12.1550 C.2   415  TYR415      0.2264
     73  O         -9.1270   41.8760   11.8950 O.2   415  TYR415     -0.2867
     74  CB        -8.7550   39.3600   10.2490 C.3   415  TYR415      0.0534
     75  CG        -8.8050   37.9150    9.8060 C.ar  415  TYR415     -0.0201
     76  CD1       -7.6300   37.2270    9.4820 C.ar  415  TYR415     -0.0009
     77  CD2      -10.0220   37.2350    9.7060 C.ar  415  TYR415     -0.0009
     78  CE1       -7.6590   35.8980    9.0710 C.ar  415  TYR415      0.0417
     79  CE2      -10.0690   35.9010    9.3030 C.ar  415  TYR415      0.0417
     80  CZ        -8.8810   35.2390    8.9780 C.ar  415  TYR415      0.1957
     81  OH        -8.9060   33.9240    8.5830 O.3   415  TYR415     -0.2866
     82  N        -12.1220   25.5380   15.0420 N.3   434  GLY434     -0.1210
     83  CA       -12.0900   26.0210   13.6610 C.3   434  GLY434      0.1956
     84  C        -10.9810   27.0360   13.4610 C.2   434  GLY434      0.2612
     85  O        -11.0920   27.9350   12.6250 O.2   434  GLY434     -0.2717
     86  N         -9.9060   26.9170   14.2390 N.am  435  ASP435     -0.1959
     87  CA        -8.8350   27.9190   14.1660 C.3   435  ASP435      0.1840
     88  C         -8.1840   28.0340   12.7900 C.2   435  ASP435      0.2622
     89  O         -8.0230   27.0510   12.0650 O.2   435  ASP435     -0.2715
     90  CB        -7.7780   27.6890   15.2530 C.3   435  ASP435      0.1450
     91  CG        -8.2340   28.1830   16.6090 C.2   435  ASP435      0.3671
     92  OD1       -8.9150   29.2330   16.6640 O.co2 435  ASP435     -0.2456
     93  OD2       -7.9150   27.5280   17.6220 O.co2 435  ASP435     -0.2456
     94  N         -7.8240   29.2570   12.4370 N.am  436  ASN436     -0.1972
     95  CA        -7.0580   29.4920   11.2420 C.3   436  ASN436      0.1688
     96  C         -6.0780   30.6180   11.5170 C.2   436  ASN436      0.2292
     97  O         -6.2280   31.7350   11.0200 O.2   436  ASN436     -0.2864
     98  CB        -7.9670   29.8030   10.0480 C.3   436  ASN436      0.1181
     99  CG        -7.2580   29.6350    8.7130 C.2   436  ASN436      0.2629
    100  OD1       -6.0700   29.2530    8.6520 O.2   436  ASN436     -0.2716
    101  ND2       -7.9790   29.9270    7.6280 N.am  436  ASN436     -0.0877
    102  N         -3.1470   33.1380   11.5530 N.3   438  THR438     -0.1218
    103  CA        -2.6380   33.8190   10.3790 C.3   438  THR438      0.1862
    104  C         -1.6650   34.9050   10.7950 C.2   438  THR438      0.2287
    105  O         -1.9200   35.6580   11.7270 O.2   438  THR438     -0.2866
    106  CB        -3.7890   34.3900    9.5320 C.3   438  THR438      0.1770
    107  OG1       -4.6210   33.3000    9.1140 O.3   438  THR438     -0.2211
    108  CG2       -3.2660   35.0880    8.2900 C.3   438  THR438      0.0375
@<TRIPOS>BOND
     1    14    13    2
     2    10     9    2
     3    11    12    1
     4    13    12    1
     5    13    16   am
     6    15    12    1
     7     9     8    1
     8    21    23    1
     9    21    20    1
    10     8     7    1
    11     4     3    2
    12    16    17    1
    13    17    20    1
    14    17    18    1
    15    22    20    1
    16    24    18   am
    17    24    25    1
    18     3     7   am
    19     3     2    1
    20    27    26    2
    21    18    19    2
    22    28    25    1
    23    28    29    1
    24    25    26    1
    25    31    29   am
    26     6     5    1
    27     2     5    1
    28     2     1    1
    29    29    30    2
    30    35    34    2
    31    32    33    1
    32    39    38   ar
    33    36    33    1
    34    36    37    1
    35    33    34    1
    36    38    37    1
    37    38    40   ar
    38    46    45    1
    39    41    42    1
    40    45    42    1
    41    44    43    2
    42    52    53    1
    43    52    51    1
    44    42    43    1
    45    53    47    1
    46   101    99   am
    47    51    48    1
    48   108   106    1
    49    81    80    1
    50   100    99    2
    51    99    98    1
    52    80    78   ar
    53    80    79   ar
    54    47    48    1
    55    78    76   ar
    56   107   106    1
    57    79    77   ar
    58    76    75   ar
    59    48    49    1
    60   106   103    1
    61    77    75   ar
    62    75    74    1
    63    50    49    2
    64    98    95    1
    65    74    71    1
    66    49    54   am
    67   103   104    1
    68   103   102    1
    69   104   105    2
    70    68    67    1
    71    97    96    2
    72    57    56    2
    73    95    96    1
    74    95    94    1
    75    54    55    1
    76    71    72    1
    77    71    70    1
    78    56    55    1
    79    73    72    2
    80    89    88    2
    81    65    66    1
    82    65    64    1
    83    67    66    2
    84    67    69    1
    85    94    88   am
    86    55    58    1
    87    63    64    1
    88    63    60    1
    89    85    84    2
    90    88    87    1
    91    59    60    1
    92    84    83    1
    93    84    86   am
    94    83    82    1
    95    60    61    1
    96    87    86    1
    97    87    90    1
    98    62    61    2
    99    90    91    1
   100    91    92   ar
   101    91    93   ar
