@<TRIPOS>MOLECULE
tmp/3v9cA00.pdb
 105 100 0 0 0
SMALL
GASTEIGER

@<TRIPOS>ATOM
      1  N         25.9080   14.0700   34.5390 N.3    14  ALA14      -0.1245
      2  CA        24.7780   13.6290   35.3470 C.3    14  ALA14       0.1562
      3  C         24.1110   14.8380   35.9990 C.2    14  ALA14       0.2260
      4  O         24.7890   15.7160   36.5250 O.2    14  ALA14      -0.2867
      5  CB        25.2170   12.6140   36.4190 C.3    14  ALA14       0.0290
      6  N         15.6110   15.1230   41.6050 N.3    19  GLY19      -0.1210
      7  CA        16.0390   14.0480   42.4990 C.3    19  GLY19       0.1956
      8  C         16.3190   12.7460   41.7730 C.2    19  GLY19       0.2612
      9  O         16.7650   11.7830   42.3750 O.2    19  GLY19      -0.2717
     10  N         16.0790   12.7240   40.4680 N.am   20  PHE20      -0.1962
     11  CA        16.3220   11.5390   39.6570 C.3    20  PHE20       0.1771
     12  C         17.5580   11.8240   38.8120 C.2    20  PHE20       0.2620
     13  O         17.5410   12.7450   37.9750 O.2    20  PHE20      -0.2715
     14  CB        15.0800   11.2720   38.7860 C.3    20  PHE20       0.0574
     15  CG        15.1810   10.0500   37.8950 C.ar   20  PHE20      -0.0200
     16  CD1       14.6440    8.8320   38.3050 C.ar   20  PHE20      -0.0042
     17  CD2       15.7580   10.1300   36.6340 C.ar   20  PHE20      -0.0042
     18  CE1       14.6970    7.6980   37.4770 C.ar   20  PHE20      -0.0003
     19  CE2       15.8380    9.0050   35.7970 C.ar   20  PHE20      -0.0003
     20  CZ        15.3040    7.7820   36.2220 C.ar   20  PHE20      -0.0000
     21  N         18.6360   11.0710   39.0280 N.am   21  SER21      -0.1936
     22  CA        19.8640   11.2920   38.2670 C.3    21  SER21       0.2055
     23  C         19.8030   10.7000   36.8630 C.2    21  SER21       0.2643
     24  O         19.3880    9.5580   36.6710 O.2    21  SER21      -0.2714
     25  CB        21.0920   10.7500   38.9970 C.3    21  SER21       0.2130
     26  OG        22.2780   11.0860   38.2680 O.3    21  SER21      -0.2179
     27  N         20.2100   11.4880   35.8750 N.am   22  ARG22      -0.1963
     28  CA        20.3090   11.0040   34.4880 C.3    22  ARG22       0.1729
     29  C         21.3720   11.7890   33.7450 C.2    22  ARG22       0.2616
     30  O         21.6540   12.9370   34.0880 O.2    22  ARG22      -0.2715
     31  CB        18.9590   11.1120   33.7470 C.3    22  ARG22       0.0348
     32  CG        18.4070   12.5380   33.6030 C.3    22  ARG22       0.0492
     33  CD        17.4950   12.6710   32.3590 C.3    22  ARG22       0.2205
     34  NE        18.2490   12.7460   31.1050 N.pl3  22  ARG22      -0.0865
     35  CZ        17.7030   12.9750   29.9000 C.cat  22  ARG22       0.5346
     36  NH1       16.3880   13.1390   29.7570 N.pl3  22  ARG22       0.1354
     37  NH2       18.4670   13.0080   28.8260 N.pl3  22  ARG22       0.1354
     38  N         21.9680   11.1660   32.7410 N.am   23  GLN23      -0.1977
     39  CA        22.9160   11.8450   31.8690 C.3    23  GLN23       0.1601
     40  C         22.1530   12.8600   31.0340 C.2    23  GLN23       0.2287
     41  O         21.0620   12.5930   30.5770 O.2    23  GLN23      -0.2864
     42  CB        23.5940   10.8370   30.9370 C.3    23  GLN23       0.0394
     43  CG        24.6520   10.0090   31.6170 C.3    23  GLN23       0.0908
     44  CD        25.8270   10.8450   32.0170 C.2    23  GLN23       0.2608
     45  OE1       26.3410   11.6170   31.2190 O.2    23  GLN23      -0.2717
     46  NE2       26.2470   10.7220   33.2680 N.am   23  GLN23      -0.0878
     47  N         28.7350   11.5620   23.9490 N.3    54  ASN54      -0.1240
     48  CA        27.6640   10.5860   23.9920 C.3    54  ASN54       0.1653
     49  C         26.8320   10.6160   22.7300 C.2    54  ASN54       0.2266
     50  O         26.0440   11.5520   22.5130 O.2    54  ASN54      -0.2867
     51  CB        26.8190   10.7760   25.2500 C.3    54  ASN54       0.1155
     52  CG        25.7470    9.7080   25.4010 C.2    54  ASN54       0.2627
     53  OD1       25.1860    9.2230   24.4140 O.2    54  ASN54      -0.2716
     54  ND2       25.4630    9.3430   26.6330 N.am   54  ASN54      -0.0877
     55  N         24.2490    8.8510   21.7840 N.3    56  THR56      -0.1203
     56  CA        22.7960    8.7250   21.9860 C.3    56  THR56       0.1994
     57  C         22.1170   10.1020   22.1590 C.2    56  THR56       0.2617
     58  O         20.9690   10.2730   21.7760 O.2    56  THR56      -0.2717
     59  CB        22.4740    7.8660   23.2180 C.3    56  THR56       0.1784
     60  OG1       23.1040    6.6000   23.0740 O.3    56  THR56      -0.2211
     61  CG2       20.9460    7.6580   23.3770 C.3    56  THR56       0.0376
     62  N         22.8370   11.0670   22.7250 N.am   57  MET57      -0.1979
     63  CA        22.3120   12.4310   22.8490 C.3    57  MET57       0.1605
     64  C         22.9600   13.3610   21.8170 C.2    57  MET57       0.2287
     65  O         22.7390   14.5990   21.8280 O.2    57  MET57      -0.2864
     66  CB        22.4830   12.9460   24.2840 C.3    57  MET57       0.0413
     67  CG        21.8380   12.0110   25.2670 C.3    57  MET57       0.0598
     68  SD        21.6650   12.6700   26.9250 S.3    57  MET57      -0.1393
     69  CE        23.3740   12.8150   27.4360 C.3    57  MET57       0.0692
     70  N         12.6880   11.5390   32.2050 N.3   153  HIS153     -0.1226
     71  CA        13.6160   10.6030   32.8390 C.3   153  HIS153      0.1752
     72  C         14.3050    9.7060   31.8290 C.2   153  HIS153      0.2597
     73  O         15.4170    9.2120   32.0800 O.2   153  HIS153     -0.2718
     74  CB        12.9180    9.7790   33.9120 C.3   153  HIS153      0.0759
     75  CG        12.6170   10.5570   35.1530 C.ar  153  HIS153      0.0818
     76  ND1       11.9490   10.0180   36.2250 N.ar  153  HIS153     -0.2268
     77  CD2       12.8570   11.8500   35.4730 C.ar  153  HIS153      0.1154
     78  CE1       11.8250   10.9310   37.1710 C.ar  153  HIS153      0.1986
     79  NE2       12.3670   12.0510   36.7380 N.ar  153  HIS153     -0.2212
     80  N         13.6570    9.5260   30.6790 N.am  154  THR154     -0.1939
     81  CA        14.2380    8.8000   29.5540 C.3   154  THR154      0.2028
     82  C         14.6780    9.7770   28.4640 C.2   154  THR154      0.2642
     83  O         13.9370   10.6900   28.1010 O.2   154  THR154     -0.2714
     84  CB        13.2090    7.8010   28.9880 C.3   154  THR154      0.1808
     85  OG1       12.8250    6.9010   30.0370 O.3   154  THR154     -0.2208
     86  CG2       13.7860    7.0120   27.8100 C.3   154  THR154      0.0379
     87  N         15.8950    9.5880   27.9600 N.am  155  ALA155     -0.1977
     88  CA        16.4600   10.4570   26.9350 C.3   155  ALA155      0.1597
     89  C         15.6140   10.4930   25.6640 C.2   155  ALA155      0.2287
     90  O         14.8830    9.5380   25.3550 O.2   155  ALA155     -0.2864
     91  CB        17.8920   10.0620   26.6260 C.3   155  ALA155      0.0319
     92  N         15.5860    7.6930   23.2750 N.3   158  LEU158     -0.1245
     93  CA        15.3640    6.4010   23.9240 C.3   158  LEU158      0.1561
     94  C         13.9130    6.1960   24.3350 C.2   158  LEU158      0.2260
     95  O         13.4810    5.0660   24.5900 O.2   158  LEU158     -0.2867
     96  CB        16.3040    6.2050   25.1240 C.3   158  LEU158      0.0270
     97  CG        17.8140    6.0860   24.8560 C.3   158  LEU158      0.0019
     98  CD1       18.5130    5.7960   26.1750 C.3   158  LEU158      0.0001
     99  CD2       18.1880    4.9880   23.7980 C.3   158  LEU158      0.0001
    100  N          8.2750   10.4120   41.6080 N.3   179  SER179     -0.1217
    101  CA         9.3020    9.5390   42.1990 C.3   179  SER179      0.1889
    102  C         10.1010   10.1470   43.3680 C.2   179  SER179      0.2288
    103  O         10.8910    9.4390   44.0160 O.2   179  SER179     -0.2866
    104  CB        10.2620    9.0480   41.1080 C.3   179  SER179      0.2089
    105  OG        10.7680   10.1580   40.3730 O.3   179  SER179     -0.2183
@<TRIPOS>BOND
     1    58    57    2
     2    55    56    1
     3    64    65    2
     4    64    63    1
     5    56    57    1
     6    56    59    1
     7    57    62   am
     8    50    49    2
     9    62    63    1
    10    49    48    1
    11    63    66    1
    12    60    59    1
    13    59    61    1
    14    92    93    1
    15    99    97    1
    16    93    94    1
    17    93    96    1
    18    47    48    1
    19    48    51    1
    20    66    67    1
    21    94    95    2
    22    53    52    2
    23    97    96    1
    24    97    98    1
    25    51    52    1
    26    67    68    1
    27    90    89    2
    28    52    54   am
    29    89    88    1
    30    91    88    1
    31    68    69    1
    32    88    87    1
    33    86    84    1
    34    87    82   am
    35    83    82    2
    36    82    81    1
    37    37    35    1
    38    84    81    1
    39    84    85    1
    40    81    80    1
    41    36    35    1
    42    35    34    2
    43    41    40    2
    44    80    72   am
    45    42    43    1
    46    42    39    1
    47    40    39    1
    48    34    33    1
    49    45    44    2
    50    43    44    1
    51    72    73    2
    52    72    71    1
    53    39    38    1
    54    44    46   am
    55    70    71    1
    56    33    32    1
    57    38    29   am
    58    71    74    1
    59    32    31    1
    60    29    30    2
    61    29    28    1
    62    31    28    1
    63    74    75    1
    64    28    27    1
    65     1     2    1
    66    75    77   ar
    67    75    76   ar
    68     2     3    1
    69     2     5    1
    70    77    79   ar
    71    19    20   ar
    72    19    17   ar
    73    27    23   am
    74     3     4    2
    75    20    18   ar
    76    76    78   ar
    77    17    15   ar
    78    24    23    2
    79    79    78   ar
    80    23    22    1
    81    18    16   ar
    82    15    16   ar
    83    15    14    1
    84    13    12    2
    85    22    25    1
    86    22    21    1
    87    26    25    1
    88    14    11    1
    89    12    21   am
    90    12    11    1
    91    11    10    1
    92   105   104    1
    93    10     8   am
    94   104   101    1
    95     6     7    1
    96   100   101    1
    97     8     9    2
    98     8     7    1
    99   101   102    1
   100   102   103    2
