@<TRIPOS>MOLECULE
tmp/3v9eA02.pdb
 127 125 0 0 0
SMALL
GASTEIGER

@<TRIPOS>ATOM
      1  N        -32.5230    0.8750   -9.5440 N.3    59  PRO59      -0.2102
      2  CA       -31.1860    0.3860   -9.2070 C.3    59  PRO59       0.1504
      3  C        -31.1470   -0.1030   -7.7700 C.2    59  PRO59       0.2576
      4  O        -32.0500    0.2450   -6.9700 O.2    59  PRO59      -0.2718
      5  CB       -30.2860    1.6190   -9.3740 C.3    59  PRO59       0.0282
      6  CG       -31.1290    2.6840   -9.9470 C.3    59  PRO59       0.0208
      7  CD       -32.5670    2.3190   -9.7330 C.3    59  PRO59       0.0893
      8  N        -30.1110   -0.8720   -7.4410 N.am   60  GLY60      -0.1943
      9  CA       -29.8240   -1.2710   -6.1300 C.3    60  GLY60       0.1998
     10  C        -29.4590   -0.1610   -5.1860 C.2    60  GLY60       0.2481
     11  O        -29.3590    1.0030   -5.6000 O.2    60  GLY60      -0.2729
     12  N        -29.3160   -0.4990   -3.8950 N.am   61  PRO61      -0.2715
     13  CA       -28.9470    0.5690   -2.9640 C.3    61  PRO61       0.1536
     14  C        -27.6590    1.2470   -3.3220 C.2    61  PRO61       0.2598
     15  O        -26.7810    0.6730   -3.8490 O.2    61  PRO61      -0.2715
     16  CB       -28.7410   -0.1380   -1.6160 C.3    61  PRO61       0.0310
     17  CG       -29.2760   -1.5230   -1.7850 C.3    61  PRO61       0.0237
     18  CD       -29.3340   -1.8130   -3.2650 C.3    61  PRO61       0.0939
     19  N        -27.5980    2.5500   -3.0230 N.am   62  ALA62      -0.1978
     20  CA       -26.3730    3.3400   -3.1550 C.3    62  ALA62       0.1597
     21  C        -25.3430    2.9200   -2.1000 C.2    62  ALA62       0.2287
     22  O        -25.6250    2.7510   -0.9060 O.2    62  ALA62      -0.2864
     23  CB       -26.7190    4.8020   -3.0020 C.3    62  ALA62       0.0319
     24  N        -22.1610    4.4860   -0.7310 N.3    64  ILE64      -0.1245
     25  CA       -21.5490    5.8160   -0.7320 C.3    64  ILE64       0.1561
     26  C        -20.4260    5.8130    0.2940 C.2    64  ILE64       0.2260
     27  O        -20.5890    5.3690    1.4330 O.2    64  ILE64      -0.2867
     28  CB       -22.5700    6.8930   -0.4750 C.3    64  ILE64       0.0252
     29  CG1      -23.6700    6.8350   -1.5670 C.3    64  ILE64       0.0019
     30  CG2      -21.9490    8.2980   -0.4950 C.3    64  ILE64       0.0019
     31  CD1      -24.8950    7.7140   -1.3080 C.3    64  ILE64       0.0001
     32  N        -25.5520    2.1480   -7.7630 N.3   145  PRO145     -0.2116
     33  CA       -24.5470    3.1860   -7.7960 C.3   145  PRO145      0.1372
     34  C        -23.5000    3.0510   -6.6670 C.2   145  PRO145      0.2244
     35  O        -23.8400    2.6270   -5.5630 O.2   145  PRO145     -0.2868
     36  CB       -25.3490    4.4550   -7.5960 C.3   145  PRO145      0.0268
     37  CG       -26.6140    4.0330   -6.8620 C.3   145  PRO145      0.0207
     38  CD       -26.8150    2.5470   -7.1140 C.3   145  PRO145      0.0892
     39  N        -20.7570    5.5930   -5.2630 N.3   147  ILE147     -0.1245
     40  CA       -20.3020    6.9910   -5.3150 C.3   147  ILE147      0.1561
     41  C        -19.2620    7.1870   -4.2390 C.2   147  ILE147      0.2260
     42  O        -19.5380    6.8780   -3.0630 O.2   147  ILE147     -0.2867
     43  CB       -21.4430    7.9370   -5.0400 C.3   147  ILE147      0.0252
     44  CG1      -22.4820    7.8340   -6.1830 C.3   147  ILE147      0.0019
     45  CG2      -20.9360    9.3600   -4.9830 C.3   147  ILE147      0.0019
     46  CD1      -23.7220    8.7150   -5.9480 C.3   147  ILE147      0.0001
     47  N        -25.1310   17.9840   -5.1610 N.3   159  ASP159     -0.1225
     48  CA       -24.9490   16.7090   -5.8910 C.3   159  ASP159      0.1805
     49  C        -26.2570   15.9310   -5.9600 C.2   159  ASP159      0.2598
     50  O        -26.7730   15.4350   -4.9570 O.2   159  ASP159     -0.2718
     51  CB       -23.8380   15.9290   -5.1360 C.3   159  ASP159      0.1424
     52  CG       -23.5110   14.5840   -5.7520 C.2   159  ASP159      0.3668
     53  OD1      -23.9700   14.2930   -6.8430 O.co2 159  ASP159     -0.2456
     54  OD2      -22.7650   13.8550   -5.0620 O.co2 159  ASP159     -0.2456
     55  N        -26.8120   15.7550   -7.1490 N.am  160  VAL160     -0.1966
     56  CA       -28.1030   15.0920   -7.2570 C.3   160  VAL160      0.1727
     57  C        -27.9540   13.5950   -7.3580 C.2   160  VAL160      0.2617
     58  O        -28.9220   12.8940   -7.3880 O.2   160  VAL160     -0.2715
     59  CB       -28.9050   15.5780   -8.4640 C.3   160  VAL160      0.0290
     60  CG1      -29.1380   17.0560   -8.2810 C.3   160  VAL160      0.0023
     61  CG2      -28.2980   15.2930   -9.8530 C.3   160  VAL160      0.0023
     62  N        -26.7250   13.1510   -7.4900 N.am  161  GLY161     -0.1940
     63  CA       -26.5630   11.7450   -7.5870 C.3   161  GLY161      0.2014
     64  C        -26.5600   11.2710   -9.0140 C.2   161  GLY161      0.2639
     65  O        -26.3770   11.9920   -9.9860 O.2   161  GLY161     -0.2714
     66  N        -26.7110    9.9610   -9.0810 N.am  162  VAL162     -0.1963
     67  CA       -26.6030    9.2710  -10.3450 C.3   162  VAL162      0.1727
     68  C        -27.9050    9.3490  -11.1360 C.2   162  VAL162      0.2616
     69  O        -29.0260    9.3020  -10.5500 O.2   162  VAL162     -0.2715
     70  CB       -26.2150    7.7970  -10.0790 C.3   162  VAL162      0.0290
     71  CG1      -26.3650    7.0290  -11.3420 C.3   162  VAL162      0.0023
     72  CG2      -24.7700    7.6690   -9.6260 C.3   162  VAL162      0.0023
     73  N        -27.7750    9.4330  -12.4590 N.am  163  ILE163     -0.1963
     74  CA       -28.8870    9.2190  -13.3580 C.3   163  ILE163      0.1727
     75  C        -28.4410    8.0280  -14.2170 C.2   163  ILE163      0.2616
     76  O        -27.5240    8.1280  -15.0070 O.2   163  ILE163     -0.2715
     77  CB       -29.1860   10.4230  -14.2960 C.3   163  ILE163      0.0290
     78  CG1      -29.5950   11.5750  -13.4300 C.3   163  ILE163      0.0022
     79  CG2      -30.3090   10.0420  -15.3030 C.3   163  ILE163      0.0023
     80  CD1      -29.6600   12.9490  -14.0520 C.3   163  ILE163      0.0001
     81  N        -29.0390    6.8810  -14.0110 N.am  164  PHE164     -0.1974
     82  CA       -28.7700    5.7540  -14.8590 C.3   164  PHE164      0.1639
     83  C        -29.5010    5.8650  -16.1920 C.2   164  PHE164      0.2290
     84  O        -30.6550    6.2880  -16.2750 O.2   164  PHE164     -0.2864
     85  CB       -29.2010    4.4480  -14.2010 C.3   164  PHE164      0.0560
     86  CG       -28.3330    4.0580  -13.0650 C.ar  164  PHE164     -0.0200
     87  CD1      -27.1380    3.5250  -13.2880 C.ar  164  PHE164     -0.0042
     88  CD2      -28.7720    4.2640  -11.7330 C.ar  164  PHE164     -0.0042
     89  CE1      -26.3200    3.1420  -12.2330 C.ar  164  PHE164     -0.0003
     90  CE2      -27.9640    3.8700  -10.6770 C.ar  164  PHE164     -0.0003
     91  CZ       -26.7520    3.3210  -10.9280 C.ar  164  PHE164     -0.0000
     92  N        -32.9640    6.5310  -14.8490 N.3   194  ASN194     -0.1240
     93  CA       -32.9410    6.3060  -13.4040 C.3   194  ASN194      0.1653
     94  C        -34.0370    5.4420  -12.9040 C.2   194  ASN194      0.2266
     95  O        -34.6110    5.6590  -11.8400 O.2   194  ASN194     -0.2867
     96  CB       -32.8840    7.6340  -12.6620 C.3   194  ASN194      0.1155
     97  CG       -32.0350    7.5610  -11.4170 C.2   194  ASN194      0.2627
     98  OD1      -30.9530    6.9820  -11.4160 O.2   194  ASN194     -0.2716
     99  ND2      -32.5120    8.1910  -10.3670 N.am  194  ASN194     -0.0877
    100  N        -38.8450    9.8800  -15.4310 N.3   216  PHE216     -0.1227
    101  CA       -37.8560   10.4100  -14.5180 C.3   216  PHE216      0.1736
    102  C        -37.9840   11.9310  -14.3870 C.2   216  PHE216      0.2595
    103  O        -38.1090   12.6370  -15.4050 O.2   216  PHE216     -0.2718
    104  CB       -36.4680   10.1050  -15.0320 C.3   216  PHE216      0.0547
    105  CG       -35.3940   10.7920  -14.2680 C.ar  216  PHE216     -0.0202
    106  CD1      -35.1310   10.4300  -12.9520 C.ar  216  PHE216     -0.0042
    107  CD2      -34.7080   11.8700  -14.8360 C.ar  216  PHE216     -0.0042
    108  CE1      -34.1510   11.1000  -12.2300 C.ar  216  PHE216     -0.0003
    109  CE2      -33.6690   12.4860  -14.1380 C.ar  216  PHE216     -0.0003
    110  CZ       -33.4540   12.1350  -12.8090 C.ar  216  PHE216     -0.0000
    111  N        -37.9640   12.4360  -13.1550 N.am  217  GLU217     -0.1965
    112  CA       -38.1090   13.8620  -12.9510 C.3   217  GLU217      0.1733
    113  C        -36.9220   14.3610  -12.1240 C.2   217  GLU217      0.2616
    114  O        -36.4830   13.6890  -11.1500 O.2   217  GLU217     -0.2715
    115  CB       -39.4490   14.1840  -12.2760 C.3   217  GLU217      0.0429
    116  CG       -39.8210   15.6590  -12.2030 C.3   217  GLU217      0.1163
    117  CD       -39.0880   16.5090  -11.1120 C.2   217  GLU217      0.3649
    118  OE1      -38.5980   15.9740  -10.0800 O.co2 217  GLU217     -0.2457
    119  OE2      -39.0410   17.7710  -11.2610 O.co2 217  GLU217     -0.2457
    120  N        -36.4580   15.5320  -12.4790 N.am  218  LEU218     -0.1977
    121  CA       -35.3720   16.1890  -11.8360 C.3   218  LEU218      0.1596
    122  C        -35.8460   17.6540  -11.6550 C.2   218  LEU218      0.2287
    123  O        -36.3510   18.2050  -12.5910 O.2   218  LEU218     -0.2864
    124  CB       -34.1390   16.1500  -12.7460 C.3   218  LEU218      0.0297
    125  CG       -32.8870   16.8600  -12.2770 C.3   218  LEU218      0.0022
    126  CD1      -32.4830   16.4600  -10.8650 C.3   218  LEU218      0.0001
    127  CD2      -31.7700   16.6750  -13.2740 C.3   218  LEU218      0.0001
@<TRIPOS>BOND
     1    84    83    2
     2    83    82    1
     3   100   101    1
     4   103   102    2
     5    79    77    1
     6   104   101    1
     7   104   105    1
     8    76    75    2
     9    82    85    1
    10    82    81    1
    11    92    93    1
    12   107   105   ar
    13   107   109   ar
    14   101   102    1
    15   102   111   am
    16    77    78    1
    17    77    74    1
    18   105   106   ar
    19    75    81   am
    20    75    74    1
    21    85    86    1
    22   109   110   ar
    23    80    78    1
    24    93    94    1
    25    93    96    1
    26    74    73    1
    27    87    86   ar
    28    87    89   ar
    29   127   125    1
    30   111   112    1
    31    86    88   ar
    32   106   108   ar
    33   112   115    1
    34   112   113    1
    35    94    95    2
    36   110   108   ar
    37   124   125    1
    38   124   121    1
    39    96    97    1
    40   123   122    2
    41   120   113   am
    42   120   121    1
    43    73    68   am
    44   125   126    1
    45   115   116    1
    46    89    91   ar
    47   116   117    1
    48   113   114    2
    49   121   122    1
    50    88    90   ar
    51    97    98    2
    52    97    99   am
    53    71    70    1
    54   119   117   ar
    55    68    69    2
    56    68    67    1
    57   117   118   ar
    58    91    90   ar
    59    67    70    1
    60    67    66    1
    61    70    72    1
    62    65    64    2
    63     6     7    1
    64     6     5    1
    65    61    59    1
    66     7     1    1
    67     1     2    1
    68     5     2    1
    69     2     3    1
    70    66    64   am
    71    64    63    1
    72    59    60    1
    73    59    56    1
    74    33    32    1
    75    33    36    1
    76    33    34    1
    77     3     8   am
    78     3     4    2
    79    32    38    1
    80    36    37    1
    81    63    62    1
    82    62    57   am
    83     8     9    1
    84    58    57    2
    85    57    56    1
    86    56    55    1
    87    55    49   am
    88    38    37    1
    89    53    52   ar
    90    34    35    2
    91    44    46    1
    92    44    43    1
    93     9    10    1
    94    49    48    1
    95    49    50    2
    96    48    47    1
    97    48    51    1
    98    52    51    1
    99    52    54   ar
   100    11    10    2
   101    40    39    1
   102    40    43    1
   103    40    41    1
   104    10    12   am
   105    43    45    1
   106    41    42    2
   107    12    18    1
   108    12    13    1
   109    15    14    2
   110    14    19   am
   111    14    13    1
   112    18    17    1
   113    20    19    1
   114    20    23    1
   115    20    21    1
   116    13    16    1
   117    21    22    2
   118    17    16    1
   119    29    31    1
   120    29    28    1
   121    25    24    1
   122    25    28    1
   123    25    26    1
   124    30    28    1
   125    26    27    2
