@<TRIPOS>MOLECULE
tmp/3v9mB00.pdb
 116 111 0 0 0
SMALL
GASTEIGER

@<TRIPOS>ATOM
      1  N         16.5550   10.4020   -1.6770 N.3     2  LEU2       -0.1245
      2  CA        17.4370   11.3430   -2.3760 C.3     2  LEU2        0.1561
      3  C         16.8160   12.7120   -2.6960 C.2     2  LEU2        0.2260
      4  O         17.4990   13.7370   -2.6580 O.2     2  LEU2       -0.2867
      5  CB        18.0090   10.7030   -3.6360 C.3     2  LEU2        0.0270
      6  CG        19.0300    9.6080   -3.3130 C.3     2  LEU2        0.0019
      7  CD1       19.6240    9.0580   -4.6170 C.3     2  LEU2        0.0001
      8  CD2       20.1360   10.1320   -2.3730 C.3     2  LEU2        0.0001
      9  N         17.0260   14.5940    0.5390 N.3     5  PHE5       -0.1241
     10  CA        18.4110   15.0490    0.6900 C.3     5  PHE5        0.1605
     11  C         18.6380   16.3550   -0.0940 C.2     5  PHE5        0.2264
     12  O         19.2160   17.3120    0.4270 O.2     5  PHE5       -0.2867
     13  CB        19.3790   13.9530    0.2210 C.3     5  PHE5        0.0534
     14  CG        20.8350   14.2590    0.4740 C.ar    5  PHE5       -0.0203
     15  CD1       21.2360   14.9930    1.5820 C.ar    5  PHE5       -0.0042
     16  CD2       21.8070   13.7860   -0.3990 C.ar    5  PHE5       -0.0042
     17  CE1       22.5770   15.2560    1.8080 C.ar    5  PHE5       -0.0003
     18  CE2       23.1410   14.0450   -0.1840 C.ar    5  PHE5       -0.0003
     19  CZ        23.5320   14.7910    0.9210 C.ar    5  PHE5       -0.0000
     20  N         19.7740   19.9970    1.3550 N.3     9  ILE9       -0.1245
     21  CA        20.9300   20.7540    0.8970 C.3     9  ILE9        0.1561
     22  C         20.5280   22.2200    0.7160 C.2     9  ILE9        0.2260
     23  O         21.2330   23.1230    1.1740 O.2     9  ILE9       -0.2867
     24  CB        21.5050   20.1610   -0.4000 C.3     9  ILE9        0.0252
     25  CG1       22.0600   18.7530   -0.1310 C.3     9  ILE9        0.0019
     26  CG2       22.5800   21.0720   -0.9670 C.3     9  ILE9        0.0019
     27  CD1       22.4380   17.9880   -1.3860 C.3     9  ILE9        0.0001
     28  N         20.9380   21.9710   -5.5660 N.3    19  SER19      -0.1217
     29  CA        21.3930   20.6780   -5.0650 C.3    19  SER19       0.1889
     30  C         21.9850   19.8030   -6.1710 C.2    19  SER19       0.2288
     31  O         22.8460   18.9580   -5.9110 O.2    19  SER19      -0.2866
     32  CB        20.2520   19.9510   -4.3520 C.3    19  SER19       0.2089
     33  OG        19.2860   19.5170   -5.2820 O.3    19  SER19      -0.2183
     34  N         25.7300   19.3550   -6.7270 N.3    22  TYR22      -0.1227
     35  CA        26.5190   18.4810   -5.8600 C.3    22  TYR22       0.1736
     36  C         26.4710   17.0110   -6.3000 C.2    22  TYR22       0.2595
     37  O         27.1430   16.1580   -5.7110 O.2    22  TYR22      -0.2718
     38  CB        26.0330   18.5980   -4.4080 C.3    22  TYR22       0.0548
     39  CG        26.1730   19.9820   -3.8020 C.ar   22  TYR22      -0.0200
     40  CD1       27.3320   20.3520   -3.1320 C.ar   22  TYR22      -0.0009
     41  CD2       25.1430   20.9140   -3.8830 C.ar   22  TYR22      -0.0009
     42  CE1       27.4700   21.6130   -2.5720 C.ar   22  TYR22       0.0417
     43  CE2       25.2750   22.1730   -3.3260 C.ar   22  TYR22       0.0417
     44  CZ        26.4470   22.5170   -2.6710 C.ar   22  TYR22       0.1957
     45  OH        26.5900   23.7690   -2.1040 O.3    22  TYR22      -0.2866
     46  N         25.6870   16.7180   -7.3360 N.am   23  ALA23      -0.1980
     47  CA        25.4110   15.3340   -7.7210 C.3    23  ALA23       0.1597
     48  C         26.5770   14.5500   -8.3330 C.2    23  ALA23       0.2287
     49  O         26.6080   13.3260   -8.2450 O.2    23  ALA23      -0.2864
     50  CB        24.1890   15.2700   -8.6350 C.3    23  ALA23       0.0319
     51  N         31.2240   12.5030   -4.3560 N.3    29  CYS29      -0.1221
     52  CA        29.8570   12.9470   -4.5940 C.3    29  CYS29       0.1808
     53  C         29.3040   12.2950   -5.8570 C.2    29  CYS29       0.2601
     54  O         29.7950   12.5460   -6.9520 O.2    29  CYS29      -0.2717
     55  CB        29.7920   14.4780   -4.7240 C.3    29  CYS29       0.0970
     56  SG        30.5940   15.4370   -3.3770 S.3    29  CYS29      -0.0800
     57  N         28.2750   11.4700   -5.7100 N.am   30  GLY30      -0.1957
     58  CA        27.7580   10.7250   -6.8480 C.3    30  GLY30       0.1869
     59  C         28.1580    9.2640   -6.7740 C.2    30  GLY30       0.2309
     60  O         28.5710    8.7950   -5.7160 O.2    30  GLY30      -0.2863
     61  N         31.3160   14.4250    1.2110 N.3    45  CYS45      -0.1235
     62  CA        30.7320   13.3040    0.4800 C.3    45  CYS45       0.1677
     63  C         31.3120   11.9470    0.8780 C.2    45  CYS45       0.2270
     64  O         30.6050   10.9310    0.8890 O.2    45  CYS45      -0.2867
     65  CB        30.8750   13.5180   -1.0220 C.3    45  CYS45       0.0956
     66  SG        29.8630   14.8960   -1.5750 S.3    45  CYS45      -0.0801
     67  N         29.5790   11.0540    3.9190 N.3    48  HIS48      -0.1226
     68  CA        28.2110   10.6740    3.5690 C.3    48  HIS48       0.1752
     69  C         28.1570    9.2670    2.9750 C.2    48  HIS48       0.2596
     70  O         27.2650    8.4710    3.2990 O.2    48  HIS48      -0.2718
     71  CB        27.5910   11.7020    2.6140 C.3    48  HIS48       0.0759
     72  CG        26.1350   11.4770    2.3450 C.ar   48  HIS48       0.0818
     73  ND1       25.6710   10.9500    1.1570 N.ar   48  HIS48      -0.2268
     74  CD2       25.0390   11.7050    3.1050 C.ar   48  HIS48       0.1154
     75  CE1       24.3540   10.8620    1.2010 C.ar   48  HIS48       0.1986
     76  NE2       23.9430   11.3210    2.3680 N.ar   48  HIS48      -0.2212
     77  N         29.1080    8.9740    2.0960 N.am   49  ASP49      -0.1974
     78  CA        29.2570    7.6390    1.5290 C.3    49  ASP49       0.1709
     79  C         29.4080    6.5970    2.6430 C.2    49  ASP49       0.2293
     80  O         28.7590    5.5530    2.6240 O.2    49  ASP49      -0.2864
     81  CB        30.4770    7.5990    0.6050 C.3    49  ASP49       0.1436
     82  CG        30.1600    8.0310   -0.8170 C.2    49  ASP49       0.3671
     83  OD1       29.0980    8.6490   -1.0440 O.co2  49  ASP49      -0.2456
     84  OD2       30.9910    7.7590   -1.7140 O.co2  49  ASP49      -0.2456
     85  N         26.0590    6.0740    4.4350 N.3    52  TYR52      -0.1241
     86  CA        25.1690    5.2180    3.6490 C.3    52  TYR52       0.1605
     87  C         25.6090    3.7600    3.6970 C.2    52  TYR52       0.2264
     88  O         24.7740    2.8450    3.6390 O.2    52  TYR52      -0.2867
     89  CB        25.0770    5.6970    2.2000 C.3    52  TYR52       0.0534
     90  CG        23.9970    6.7280    1.9530 C.ar   52  TYR52      -0.0201
     91  CD1       23.5340    7.5530    2.9790 C.ar   52  TYR52      -0.0009
     92  CD2       23.4170    6.8570    0.6920 C.ar   52  TYR52      -0.0009
     93  CE1       22.5370    8.4990    2.7430 C.ar   52  TYR52       0.0417
     94  CE2       22.4230    7.7930    0.4590 C.ar   52  TYR52       0.0417
     95  CZ        21.9880    8.6090    1.4790 C.ar   52  TYR52       0.1957
     96  OH        20.9990    9.5460    1.2320 O.3    52  TYR52      -0.2866
     97  N         18.8660    5.3490   -0.1940 N.3    63  LYS63      -0.1245
     98  CA        18.3340    6.1430   -1.2940 C.3    63  LYS63       0.1561
     99  C         16.8110    6.1580   -1.2860 C.2    63  LYS63       0.2260
    100  O         16.2150    7.0890   -1.8110 O.2    63  LYS63      -0.2867
    101  CB        18.8280    5.6360   -2.6560 C.3    63  LYS63       0.0271
    102  CG        20.3380    5.6090   -2.7960 C.3    63  LYS63       0.0035
    103  CD        20.7440    5.2460   -4.2330 C.3    63  LYS63       0.0206
    104  CE        22.2390    5.2630   -4.3970 C.3    63  LYS63       0.1093
    105  NZ        22.6640    4.6780   -5.7060 N.3    63  LYS63      -0.1314
    106  N         27.9920   20.3190    3.4900 N.3    99  PHE99      -0.1241
    107  CA        28.0630   20.9250    2.1510 C.3    99  PHE99       0.1605
    108  C         27.9800   22.4380    2.2760 C.2    99  PHE99       0.2264
    109  O         28.7320   23.1790    1.6310 O.2    99  PHE99      -0.2867
    110  CB        26.9070   20.4820    1.2510 C.3    99  PHE99       0.0534
    111  CG        26.9800   19.0450    0.7780 C.ar   99  PHE99      -0.0203
    112  CD1       27.9750   18.1830    1.2130 C.ar   99  PHE99      -0.0042
    113  CD2       26.0370   18.5710   -0.1210 C.ar   99  PHE99      -0.0042
    114  CE1       28.0250   16.8700    0.7630 C.ar   99  PHE99      -0.0003
    115  CE2       26.0810   17.2630   -0.5840 C.ar   99  PHE99      -0.0003
    116  CZ        27.0810   16.4120   -0.1340 C.ar   99  PHE99      -0.0000
@<TRIPOS>BOND
     1    50    47    1
     2    48    49    2
     3    48    47    1
     4    47    46    1
     5    46    36   am
     6    54    53    2
     7    58    59    1
     8    58    57    1
     9    59    60    2
    10    34    35    1
    11    36    35    1
    12    36    37    2
    13    30    31    2
    14    30    29    1
    15    35    38    1
    16    53    57   am
    17    53    52    1
    18   105   104    1
    19    28    29    1
    20    33    32    1
    21    29    32    1
    22    55    52    1
    23    55    56    1
    24     7     6    1
    25    52    51    1
    26    38    39    1
    27   104   103    1
    28   103   102    1
    29    41    39   ar
    30    41    43   ar
    31    39    40   ar
    32     5     6    1
    33     5     2    1
    34    56    66    1
    35    43    44   ar
    36     6     8    1
    37    40    42   ar
    38   102   101    1
    39     3     4    2
    40     3     2    1
    41    44    42   ar
    42    44    45    1
    43   101    98    1
    44     2     1    1
    45   100    99    2
    46    84    82   ar
    47    66    65    1
    48    27    25    1
    49    98    99    1
    50    98    97    1
    51    83    82   ar
    52    65    62    1
    53    26    24    1
    54    82    81    1
    55   115   116   ar
    56   115   113   ar
    57    24    25    1
    58    24    21    1
    59    16    18   ar
    60    16    14   ar
    61    18    19   ar
    62   116   114   ar
    63   113   111   ar
    64    11    12    2
    65    11    10    1
    66    13    14    1
    67    13    10    1
    68    94    92   ar
    69    94    95   ar
    70    14    15   ar
    71    62    63    1
    72    62    61    1
    73     9    10    1
    74    81    78    1
    75    92    90   ar
    76    22    21    1
    77    22    23    2
    78   114   112   ar
    79   111   112   ar
    80   111   110    1
    81    63    64    2
    82    21    20    1
    83    19    17   ar
    84    73    75   ar
    85    73    72   ar
    86    75    76   ar
    87    96    95    1
    88   110   107    1
    89    95    93   ar
    90    78    77    1
    91    78    79    1
    92    15    17   ar
    93   109   108    2
    94    90    89    1
    95    90    91   ar
    96    77    69   am
    97   107   108    1
    98   107   106    1
    99    89    86    1
   100    72    71    1
   101    72    74   ar
   102    76    74   ar
   103    71    68    1
   104    80    79    2
   105    93    91   ar
   106    69    70    2
   107    69    68    1
   108    68    67    1
   109    88    87    2
   110    86    87    1
   111    86    85    1
