@<TRIPOS>MOLECULE
tmp/3v9pB00.pdb
 98 94 0 0 0
SMALL
GASTEIGER

@<TRIPOS>ATOM
      1  N         52.3620   90.9180    0.2160 N.3    40  GLU40      -0.1231
      2  CA        52.1690   91.0210    1.6440 C.3    40  GLU40       0.1684
      3  C         52.5570   89.6560    2.2360 C.2    40  GLU40       0.2434
      4  O         52.2730   88.5920    1.6390 O.2    40  GLU40      -0.2733
      5  CB        50.7120   91.3820    1.9750 C.3    40  GLU40       0.0402
      6  CG        50.3400   92.8070    1.5380 C.3    40  GLU40       0.1161
      7  CD        48.9530   93.2850    1.9890 C.2    40  GLU40       0.3649
      8  OE1       48.2250   92.4710    2.6130 O.co2  40  GLU40      -0.2457
      9  OE2       48.5800   94.4650    1.6960 O.co2  40  GLU40      -0.2457
     10  N         53.2750   89.6560    3.3680 N.am   41  PRO41      -0.2729
     11  CA        53.8730   90.7660    4.1030 C.3    41  PRO41       0.1401
     12  C         55.0440   91.4620    3.3680 C.2    41  PRO41       0.2269
     13  O         55.5520   90.9490    2.3860 O.2    41  PRO41      -0.2865
     14  CB        54.3830   90.0840    5.3960 C.3    41  PRO41       0.0296
     15  CG        54.6400   88.6760    4.9870 C.3    41  PRO41       0.0237
     16  CD        53.5460   88.3410    3.9970 C.3    41  PRO41       0.0939
     17  N         57.0940   90.4930   14.0970 N.3    54  LEU54      -0.1245
     18  CA        56.2270   89.3350   14.2270 C.3    54  LEU54       0.1561
     19  C         57.0360   88.0490   14.2910 C.2    54  LEU54       0.2260
     20  O         56.6250   87.0860   14.9600 O.2    54  LEU54      -0.2867
     21  CB        55.2280   89.2640   13.0770 C.3    54  LEU54       0.0270
     22  CG        54.1160   90.3370   13.1160 C.3    54  LEU54       0.0019
     23  CD1       53.4490   90.5040   11.7510 C.3    54  LEU54       0.0001
     24  CD2       53.0960   90.0310   14.1980 C.3    54  LEU54       0.0001
     25  N         49.4110   93.0750   11.5420 N.3    68  MET68      -0.1245
     26  CA        49.1730   92.6940   10.1460 C.3    68  MET68       0.1570
     27  C         48.3050   93.7050    9.4040 C.2    68  MET68       0.2261
     28  O         48.6000   94.0740    8.2700 O.2    68  MET68      -0.2867
     29  CB        48.5750   91.2820   10.0630 C.3    68  MET68       0.0387
     30  CG        49.5610   90.2340   10.5170 C.3    68  MET68       0.0595
     31  SD        48.7420   88.6470   10.7900 S.3    68  MET68      -0.1393
     32  CE        50.1710   87.8470   11.5160 C.3    68  MET68       0.0692
     33  N         49.0650   96.3840    6.3600 N.3    72  ARG72      -0.1245
     34  CA        48.1370   96.5190    5.2410 C.3    72  ARG72       0.1563
     35  C         47.6510   97.9320    4.9870 C.2    72  ARG72       0.2260
     36  O         47.5410   98.3440    3.8350 O.2    72  ARG72      -0.2867
     37  CB        46.9250   95.6140    5.3970 C.3    72  ARG72       0.0307
     38  CG        46.0060   95.6320    4.1700 C.3    72  ARG72       0.0489
     39  CD        45.1310   94.3790    4.0780 C.3    72  ARG72       0.2205
     40  NE        45.9590   93.1670    3.9910 N.pl3  72  ARG72      -0.0865
     41  CZ        45.9490   92.1530    4.8580 C.cat  72  ARG72       0.5346
     42  NH1       45.0950   92.1100    5.9000 N.pl3  72  ARG72       0.1354
     43  NH2       46.8060   91.1610    4.6870 N.pl3  72  ARG72       0.1354
     44  N         49.2340   88.0400   -2.2050 N.3    94  ARG94      -0.1231
     45  CA        48.5070   87.9450   -0.9140 C.3    94  ARG94       0.1694
     46  C         47.9530   89.2950   -0.4600 C.2    94  ARG94       0.2592
     47  O         48.5280   90.3650   -0.7480 O.2    94  ARG94      -0.2718
     48  CB        49.3220   87.3580    0.2340 C.3    94  ARG94       0.0321
     49  CG        49.9220   85.9790   -0.0200 C.3    94  ARG94       0.0489
     50  CD        50.5350   85.4440    1.2560 C.3    94  ARG94       0.2205
     51  NE        51.1150   84.1180    1.0970 N.pl3  94  ARG94      -0.0865
     52  CZ        50.4230   82.9860    0.9220 C.cat  94  ARG94       0.5346
     53  NH1       49.0730   82.9790    0.8570 N.pl3  94  ARG94       0.1354
     54  NH2       51.0890   81.8440    0.8080 N.pl3  94  ARG94       0.1354
     55  N         46.8170   89.2200    0.2270 N.am   95  PHE95      -0.1976
     56  CA        46.1290   90.4020    0.7910 C.3    95  PHE95       0.1639
     57  C         45.2980   89.8920    1.9930 C.2    95  PHE95       0.2290
     58  O         45.6740   88.8940    2.6390 O.2    95  PHE95      -0.2864
     59  CB        45.3210   91.0690   -0.3300 C.3    95  PHE95       0.0560
     60  CG        44.8220   92.4600   -0.0270 C.ar   95  PHE95      -0.0200
     61  CD1       45.7180   93.5010    0.1980 C.ar   95  PHE95      -0.0042
     62  CD2       43.4450   92.7480   -0.0090 C.ar   95  PHE95      -0.0042
     63  CE1       45.2750   94.7790    0.4750 C.ar   95  PHE95      -0.0003
     64  CE2       42.9970   94.0320    0.3040 C.ar   95  PHE95      -0.0003
     65  CZ        43.9050   95.0500    0.5300 C.ar   95  PHE95      -0.0000
     66  N         44.4040   86.0840    2.8240 N.3    98  ALA98      -0.1231
     67  CA        45.5060   85.3870    3.5010 C.3    98  ALA98       0.1694
     68  C         45.4330   85.4690    5.0130 C.2    98  ALA98       0.2592
     69  O         45.5760   84.4630    5.7100 O.2    98  ALA98      -0.2718
     70  CB        46.8580   85.8880    2.9810 C.3    98  ALA98       0.0304
     71  N         45.1770   86.6650    5.5370 N.am   99  THR99      -0.1953
     72  CA        45.0650   86.8800    6.9720 C.3    99  THR99       0.1897
     73  C         43.9200   86.0940    7.5570 C.2    99  THR99       0.2313
     74  O         44.0620   85.3810    8.5700 O.2    99  THR99      -0.2863
     75  CB        44.9540   88.3920    7.2930 C.3    99  THR99       0.1794
     76  OG1       46.0380   89.1050    6.6710 O.3    99  THR99      -0.2208
     77  CG2       45.0180   88.6580    8.8080 C.3    99  THR99       0.0378
     78  N         44.9270   82.0450    7.3380 N.3   102  TYR102     -0.1227
     79  CA        45.9470   81.5680    8.2470 C.3   102  TYR102      0.1736
     80  C         45.6810   81.9590    9.7180 C.2   102  TYR102      0.2595
     81  O         45.8250   81.1560   10.6320 O.2   102  TYR102     -0.2718
     82  CB        47.3290   82.1280    7.8180 C.3   102  TYR102      0.0548
     83  CG        47.9300   81.4890    6.6020 C.ar  102  TYR102     -0.0200
     84  CD1       47.6260   81.9480    5.3410 C.ar  102  TYR102     -0.0009
     85  CD2       48.7960   80.4150    6.7210 C.ar  102  TYR102     -0.0009
     86  CE1       48.1940   81.3850    4.2110 C.ar  102  TYR102      0.0417
     87  CE2       49.3500   79.8130    5.5970 C.ar  102  TYR102      0.0417
     88  CZ        49.0650   80.3300    4.3480 C.ar  102  TYR102      0.1957
     89  OH        49.5910   79.7680    3.2120 O.3   102  TYR102     -0.2866
     90  N         45.3170   83.2260    9.9580 N.am  103  GLN103     -0.1979
     91  CA        45.0870   83.6690   11.3620 C.3   103  GLN103      0.1601
     92  C         43.7650   83.1610   11.8960 C.2   103  GLN103      0.2287
     93  O         43.6580   82.7550   13.0770 O.2   103  GLN103     -0.2864
     94  CB        45.1240   85.1960   11.4540 C.3   103  GLN103      0.0394
     95  CG        46.4080   85.7790   10.8820 C.3   103  GLN103      0.0908
     96  CD        47.6410   85.0980   11.4170 C.2   103  GLN103      0.2608
     97  OE1       47.7450   84.8870   12.6150 O.2   103  GLN103     -0.2717
     98  NE2       48.6040   84.8050   10.5450 N.am  103  GLN103     -0.0878
@<TRIPOS>BOND
     1    44    45    1
     2    45    46    1
     3    45    48    1
     4    47    46    2
     5    46    55   am
     6    59    60    1
     7    59    56    1
     8    60    62   ar
     9    60    61   ar
    10    49    48    1
    11    49    50    1
    12    62    64   ar
    13    61    63   ar
    14     1     2    1
    15    55    56    1
    16    64    65   ar
    17    63    65   ar
    18    56    57    1
    19    54    52    1
    20    53    52    1
    21    52    51    2
    22    51    50    1
    23     6     5    1
    24     6     7    1
    25     4     3    2
    26     2     5    1
    27     2     3    1
    28     9     7   ar
    29     7     8   ar
    30    57    58    2
    31     3    10   am
    32    13    12    2
    33    66    67    1
    34    70    67    1
    35    89    88    1
    36    10    16    1
    37    10    11    1
    38    12    11    1
    39    67    68    1
    40    36    35    2
    41    40    39    1
    42    40    41    2
    43    16    15    1
    44    39    38    1
    45    11    14    1
    46    38    37    1
    47    86    88   ar
    48    86    84   ar
    49    88    87   ar
    50    43    41    1
    51    41    42    1
    52    15    14    1
    53    35    34    1
    54    68    71   am
    55    68    69    2
    56    34    37    1
    57    34    33    1
    58    84    83   ar
    59    71    72    1
    60    87    85   ar
    61    83    85   ar
    62    83    82    1
    63    76    75    1
    64    72    75    1
    65    72    73    1
    66    75    77    1
    67    78    79    1
    68    73    74    2
    69    82    79    1
    70    79    80    1
    71    28    27    2
    72    27    26    1
    73    80    90   am
    74    80    81    2
    75    90    91    1
    76    29    26    1
    77    29    30    1
    78    26    25    1
    79    30    31    1
    80    98    96   am
    81    31    32    1
    82    95    96    1
    83    95    94    1
    84    91    94    1
    85    91    92    1
    86    96    97    2
    87    23    22    1
    88    92    93    2
    89    21    22    1
    90    21    18    1
    91    22    24    1
    92    17    18    1
    93    18    19    1
    94    19    20    2
