@<TRIPOS>MOLECULE
tmp/3v9tA01.pdb
 243 233 0 0 0
SMALL
GASTEIGER

@<TRIPOS>ATOM
      1  N         12.9210   39.2000   71.1960 N.3    50  LEU50      -0.1245
      2  CA        13.1280   40.6190   70.8870 C.3    50  LEU50       0.1561
      3  C         14.1270   41.2300   71.8660 C.2    50  LEU50       0.2260
      4  O         15.0850   41.8790   71.4540 O.2    50  LEU50      -0.2867
      5  CB        11.8070   41.3950   70.9120 C.3    50  LEU50       0.0270
      6  CG        11.8830   42.9130   70.7130 C.3    50  LEU50       0.0019
      7  CD1       12.6820   43.2860   69.4670 C.3    50  LEU50       0.0001
      8  CD2       10.4840   43.4970   70.6570 C.3    50  LEU50       0.0001
      9  N         18.2250   42.6500   70.8310 N.3    54  GLU54      -0.1245
     10  CA        18.3510   44.1170   70.7850 C.3    54  GLU54       0.1567
     11  C         19.6710   44.6230   70.2000 C.2    54  GLU54       0.2260
     12  O         19.6770   45.5820   69.4280 O.2    54  GLU54      -0.2867
     13  CB        18.1640   44.7160   72.1840 C.3    54  GLU54       0.0388
     14  CG        16.7160   44.7450   72.6720 C.3    54  GLU54       0.1160
     15  CD        15.8370   45.7020   71.8840 C.2    54  GLU54       0.3649
     16  OE1       14.6760   45.3420   71.5960 O.co2  54  GLU54      -0.2457
     17  OE2       16.3030   46.8130   71.5470 O.co2  54  GLU54      -0.2457
     18  N         20.2010   43.8360   66.2460 N.3    57  ILE57      -0.1245
     19  CA        19.3880   44.6270   65.3170 C.3    57  ILE57       0.1561
     20  C         19.5540   46.1260   65.5720 C.2    57  ILE57       0.2260
     21  O         19.3090   46.9470   64.6820 O.2    57  ILE57      -0.2867
     22  CB        17.8830   44.2360   65.3880 C.3    57  ILE57       0.0252
     23  CG1       17.2580   44.6250   66.7360 C.3    57  ILE57       0.0019
     24  CG2       17.7120   42.7420   65.1250 C.3    57  ILE57       0.0019
     25  CD1       15.7880   44.2550   66.8660 C.3    57  ILE57       0.0001
     26  N          7.9050   50.5680   70.2350 N.3    64  ARG64      -0.1231
     27  CA         9.3280   50.4320   69.9090 C.3    64  ARG64       0.1694
     28  C          9.4870   49.9400   68.4740 C.2    64  ARG64       0.2591
     29  O         10.2770   50.4840   67.7050 O.2    64  ARG64      -0.2718
     30  CB        10.0150   49.4420   70.8650 C.3    64  ARG64       0.0321
     31  CG         9.9430   49.8070   72.3510 C.3    64  ARG64       0.0489
     32  CD        11.2500   50.3880   72.8720 C.3    64  ARG64       0.2205
     33  NE        12.2380   49.3540   73.1840 N.pl3  64  ARG64      -0.0865
     34  CZ        13.5550   49.5560   73.2720 C.cat  64  ARG64       0.5346
     35  NH1       14.0850   50.7620   73.0580 N.pl3  64  ARG64       0.1354
     36  NH2       14.3550   48.5350   73.5660 N.pl3  64  ARG64       0.1354
     37  N          8.7090   48.9180   68.1230 N.am   65  ILE65      -0.1980
     38  CA         8.7630   48.3150   66.7860 C.3    65  ILE65       0.1595
     39  C          8.2420   49.2850   65.7210 C.2    65  ILE65       0.2287
     40  O          8.8150   49.3790   64.6320 O.2    65  ILE65      -0.2864
     41  CB         7.9780   46.9770   66.7420 C.3    65  ILE65       0.0276
     42  CG1        8.6450   45.9470   67.6620 C.3    65  ILE65       0.0022
     43  CG2        7.8980   46.4440   65.3130 C.3    65  ILE65       0.0022
     44  CD1        7.8580   44.6710   67.8390 C.3    65  ILE65       0.0001
     45  N          8.3330   52.5960   65.8800 N.3    67  GLN67      -0.1231
     46  CA         9.4000   53.5840   65.6910 C.3    67  GLN67       0.1698
     47  C         10.5320   53.0290   64.8200 C.2    67  GLN67       0.2593
     48  O         11.1290   53.7660   64.0350 O.2    67  GLN67      -0.2718
     49  CB         9.9660   54.0480   67.0380 C.3    67  GLN67       0.0381
     50  CG         8.9580   54.7470   67.9480 C.3    67  GLN67       0.0905
     51  CD         8.3670   56.0020   67.3460 C.2    67  GLN67       0.2608
     52  OE1        9.0180   56.7010   66.5680 O.2    67  GLN67      -0.2717
     53  NE2        7.1260   56.3060   67.7170 N.am   67  GLN67      -0.0878
     54  N         10.8200   51.7360   64.9670 N.am   68  GLY68      -0.1942
     55  CA        11.8150   51.0510   64.1460 C.3    68  GLY68       0.2014
     56  C         11.4440   51.0840   62.6730 C.2    68  GLY68       0.2639
     57  O         12.2730   51.4240   61.8270 O.2    68  GLY68      -0.2714
     58  N         10.1890   50.7600   62.3700 N.am   69  CYS69      -0.1967
     59  CA         9.6840   50.8500   60.9950 C.3    69  CYS69       0.1712
     60  C          9.8350   52.2660   60.4480 C.2    69  CYS69       0.2296
     61  O         10.2440   52.4520   59.3030 O.2    69  CYS69      -0.2864
     62  CB         8.2210   50.4240   60.9230 C.3    69  CYS69       0.0983
     63  SG         7.9560   48.6840   61.2940 S.3    69  CYS69      -0.0798
     64  N         12.0460   54.6370   61.3150 N.3    71  PHE71      -0.1227
     65  CA        13.4440   54.9720   61.0390 C.3    71  PHE71       0.1736
     66  C         13.9660   54.2830   59.7800 C.2    71  PHE71       0.2595
     67  O         14.6900   54.8970   58.9980 O.2    71  PHE71      -0.2718
     68  CB        14.3420   54.6840   62.2450 C.3    71  PHE71       0.0547
     69  CG        14.3530   55.8020   63.2530 C.ar   71  PHE71      -0.0202
     70  CD1       13.5660   55.7390   64.3940 C.ar   71  PHE71      -0.0042
     71  CD2       15.1360   56.9310   63.0430 C.ar   71  PHE71      -0.0042
     72  CE1       13.5670   56.7780   65.3180 C.ar   71  PHE71      -0.0003
     73  CE2       15.1410   57.9740   63.9610 C.ar   71  PHE71      -0.0003
     74  CZ        14.3560   57.8950   65.0990 C.ar   71  PHE71      -0.0000
     75  N         13.5880   53.0240   59.5710 N.am   72  ARG72      -0.1966
     76  CA        13.9270   52.3510   58.3180 C.3    72  ARG72       0.1729
     77  C         13.2690   53.0530   57.1180 C.2    72  ARG72       0.2616
     78  O         13.9190   53.2410   56.0870 O.2    72  ARG72      -0.2715
     79  CB        13.5440   50.8660   58.3540 C.3    72  ARG72       0.0348
     80  CG        13.7050   50.1280   57.0210 C.3    72  ARG72       0.0492
     81  CD        15.1000   50.2610   56.4180 C.3    72  ARG72       0.2205
     82  NE        15.0840   49.8720   55.0100 N.pl3  72  ARG72      -0.0865
     83  CZ        15.8800   50.3580   54.0590 C.cat  72  ARG72       0.5346
     84  NH1       16.7920   51.2900   54.3290 N.pl3  72  ARG72       0.1354
     85  NH2       15.7480   49.9150   52.8140 N.pl3  72  ARG72       0.1354
     86  N         12.0000   53.4360   57.2510 N.am   73  SER73      -0.1950
     87  CA        11.2960   54.1780   56.1850 C.3    73  SER73       0.1924
     88  C         11.9980   55.4960   55.8500 C.2    73  SER73       0.2314
     89  O         12.1240   55.8550   54.6810 O.2    73  SER73      -0.2863
     90  CB         9.8400   54.4630   56.5670 C.3    73  SER73       0.2116
     91  OG         9.0590   53.2790   56.5660 O.3    73  SER73      -0.2180
     92  N          6.0670   55.9130   49.3450 N.3   107  HIS107     -0.1241
     93  CA         5.4600   54.7930   50.0690 C.3   107  HIS107      0.1621
     94  C          5.0590   53.6400   49.1650 C.2   107  HIS107      0.2264
     95  O          5.1230   52.4870   49.5920 O.2   107  HIS107     -0.2867
     96  CB         4.3270   55.2470   50.9800 C.3   107  HIS107      0.0745
     97  CG         4.8260   55.9240   52.2130 C.ar  107  HIS107      0.0817
     98  ND1        5.0360   57.2850   52.2820 N.ar  107  HIS107     -0.2268
     99  CD2        5.2240   55.4200   53.4040 C.ar  107  HIS107      0.1154
    100  CE1        5.5110   57.5920   53.4740 C.ar  107  HIS107      0.1986
    101  NE2        5.6350   56.4790   54.1740 N.ar  107  HIS107     -0.2212
    102  N          8.2670   51.9460   48.8720 N.3   110  ILE110     -0.1231
    103  CA         8.6160   51.2830   50.1310 C.3   110  ILE110      0.1692
    104  C          7.8920   49.9370   50.2210 C.2   110  ILE110      0.2592
    105  O          8.5190   48.9350   50.5380 O.2   110  ILE110     -0.2718
    106  CB         8.3410   52.1670   51.3660 C.3   110  ILE110      0.0266
    107  CG1        9.4080   53.2610   51.4810 C.3   110  ILE110      0.0019
    108  CG2        8.3320   51.3260   52.6390 C.3   110  ILE110      0.0020
    109  CD1        9.0390   54.3890   52.4390 C.3   110  ILE110      0.0001
    110  N          6.5940   49.9030   49.9070 N.am  111  TYR111     -0.1976
    111  CA         5.8450   48.6290   49.8800 C.3   111  TYR111      0.1639
    112  C          6.4930   47.6420   48.9120 C.2   111  TYR111      0.2290
    113  O          6.6640   46.4640   49.2310 O.2   111  TYR111     -0.2864
    114  CB         4.3840   48.8290   49.4690 C.3   111  TYR111      0.0560
    115  CG         3.3980   48.9880   50.6070 C.ar  111  TYR111     -0.0198
    116  CD1        2.5460   47.9420   50.9670 C.ar  111  TYR111     -0.0009
    117  CD2        3.2910   50.1870   51.3010 C.ar  111  TYR111     -0.0009
    118  CE1        1.6300   48.0860   52.0100 C.ar  111  TYR111      0.0417
    119  CE2        2.3830   50.3420   52.3350 C.ar  111  TYR111      0.0417
    120  CZ         1.5510   49.2900   52.6830 C.ar  111  TYR111      0.1957
    121  OH         0.6420   49.4490   53.7010 O.3   111  TYR111     -0.2866
    122  N          9.9960   46.5390   50.3010 N.3   114  LEU114     -0.1245
    123  CA         9.7840   45.7070   51.4840 C.3   114  LEU114      0.1561
    124  C          9.5210   44.2480   51.0870 C.2   114  LEU114      0.2260
    125  O         10.0300   43.3270   51.7240 O.2   114  LEU114     -0.2867
    126  CB         8.6280   46.2740   52.3190 C.3   114  LEU114      0.0270
    127  CG         8.5090   46.0030   53.8130 C.3   114  LEU114      0.0019
    128  CD1        9.8410   46.1620   54.5630 C.3   114  LEU114      0.0001
    129  CD2        7.4570   46.9470   54.3790 C.3   114  LEU114      0.0001
    130  N         10.9070   40.1070   52.3210 N.3   118  MET118     -0.1245
    131  CA         9.8860   39.3180   53.0070 C.3   118  MET118      0.1570
    132  C          9.6830   37.9460   52.3750 C.2   118  MET118      0.2261
    133  O          9.9000   37.7520   51.1780 O.2   118  MET118     -0.2867
    134  CB         8.5440   40.0480   52.9730 C.3   118  MET118      0.0387
    135  CG         8.4370   41.2490   53.9020 C.3   118  MET118      0.0595
    136  SD         6.8720   42.1260   53.6960 S.3   118  MET118     -0.1393
    137  CE         6.9090   43.1600   55.1540 C.3   118  MET118      0.0692
    138  N         10.1720   39.0750   57.9410 N.3   123  VAL123     -0.1231
    139  CA        10.8670   40.1520   57.2340 C.3   123  VAL123      0.1692
    140  C         12.2960   40.3100   57.7360 C.2   123  VAL123      0.2592
    141  O         12.5500   40.2430   58.9460 O.2   123  VAL123     -0.2718
    142  CB        10.1120   41.5020   57.3710 C.3   123  VAL123      0.0266
    143  CG1        9.9640   41.9150   58.8400 C.3   123  VAL123      0.0020
    144  CG2       10.8110   42.6110   56.5580 C.3   123  VAL123      0.0020
    145  N         13.2220   40.5090   56.8000 N.am  124  LEU124     -0.1966
    146  CA        14.5990   40.8500   57.1400 C.3   124  LEU124      0.1728
    147  C         14.6750   42.2980   57.5980 C.2   124  LEU124      0.2616
    148  O         14.1100   43.1920   56.9630 O.2   124  LEU124     -0.2715
    149  CB        15.5340   40.6420   55.9480 C.3   124  LEU124      0.0311
    150  CG        15.7680   39.2010   55.5040 C.3   124  LEU124      0.0022
    151  CD1       16.4810   39.1970   54.1600 C.3   124  LEU124      0.0001
    152  CD2       16.5680   38.4160   56.5480 C.3   124  LEU124      0.0001
    153  N         15.3850   42.5150   58.7020 N.am  125  ILE125     -0.1963
    154  CA        15.6140   43.8470   59.2480 C.3   125  ILE125      0.1727
    155  C         17.1000   44.0450   59.5430 C.2   125  ILE125      0.2616
    156  O         17.8750   43.0830   59.5650 O.2   125  ILE125     -0.2715
    157  CB        14.7640   44.0810   60.5270 C.3   125  ILE125      0.0290
    158  CG1       15.1760   43.1250   61.6550 C.3   125  ILE125      0.0022
    159  CG2       13.2840   43.8830   60.2250 C.3   125  ILE125      0.0023
    160  CD1       14.4170   43.3490   62.9470 C.3   125  ILE125      0.0001
    161  N         17.4900   45.2960   59.7600 N.am  126  SER126     -0.1950
    162  CA        18.8610   45.6360   60.1300 C.3   126  SER126      0.1924
    163  C         19.8800   45.0860   59.1390 C.2   126  SER126      0.2314
    164  O         20.8040   44.3570   59.5120 O.2   126  SER126     -0.2863
    165  CB        19.1550   45.1460   61.5490 C.3   126  SER126      0.2116
    166  OG        18.1710   45.6250   62.4420 O.3   126  SER126     -0.2180
    167  N         12.3900   39.1860   61.6980 N.3   132  MET132     -0.1245
    168  CA        11.2560   39.3010   62.6050 C.3   132  MET132      0.1570
    169  C         10.0630   38.6000   61.9740 C.2   132  MET132      0.2261
    170  O          9.7350   38.8520   60.8200 O.2   132  MET132     -0.2867
    171  CB        10.9370   40.7660   62.9010 C.3   132  MET132      0.0387
    172  CG        10.0670   40.9580   64.1320 C.3   132  MET132      0.0595
    173  SD         9.9340   42.6720   64.6760 S.3   132  MET132     -0.1393
    174  CE        11.4960   42.8950   65.5320 C.3   132  MET132      0.0692
    175  N          4.7200   40.1310   64.5200 N.3   137  LEU137     -0.1245
    176  CA         4.2760   41.4690   64.1240 C.3   137  LEU137      0.1561
    177  C          2.7530   41.6090   64.0850 C.2   137  LEU137      0.2260
    178  O          2.2090   42.6240   64.5120 O.2   137  LEU137     -0.2867
    179  CB         4.8850   41.8540   62.7710 C.3   137  LEU137      0.0270
    180  CG         6.3910   42.1080   62.8460 C.3   137  LEU137      0.0019
    181  CD1        7.0230   42.1040   61.4590 C.3   137  LEU137      0.0001
    182  CD2        6.6770   43.4250   63.5750 C.3   137  LEU137      0.0001
    183  N         -1.2520   47.4770   61.3060 N.3   147  PHE147     -0.1227
    184  CA        -0.3510   48.3550   60.5590 C.3   147  PHE147      0.1736
    185  C          0.7100   47.5260   59.8290 C.2   147  PHE147      0.2595
    186  O          1.1190   47.8680   58.7230 O.2   147  PHE147     -0.2718
    187  CB         0.3050   49.3690   61.5090 C.3   147  PHE147      0.0547
    188  CG         1.3960   50.1970   60.8800 C.ar  147  PHE147     -0.0202
    189  CD1        1.1020   51.4010   60.2560 C.ar  147  PHE147     -0.0042
    190  CD2        2.7210   49.7760   60.9320 C.ar  147  PHE147     -0.0042
    191  CE1        2.1090   52.1680   59.6810 C.ar  147  PHE147     -0.0003
    192  CE2        3.7340   50.5380   60.3560 C.ar  147  PHE147     -0.0003
    193  CZ         3.4270   51.7370   59.7360 C.ar  147  PHE147     -0.0000
    194  N          1.1420   46.4340   60.4550 N.am  148  MET148     -0.1979
    195  CA         2.2050   45.5880   59.9100 C.3   148  MET148      0.1605
    196  C          1.6860   44.6520   58.8230 C.2   148  MET148      0.2287
    197  O          2.3210   44.4850   57.7840 O.2   148  MET148     -0.2864
    198  CB         2.8330   44.7360   61.0210 C.3   148  MET148      0.0413
    199  CG         3.3990   45.5120   62.2030 C.3   148  MET148      0.0598
    200  SD         4.7620   46.5900   61.7470 S.3   148  MET148     -0.1393
    201  CE         5.0060   47.4940   63.2790 C.3   148  MET148      0.0692
    202  N          1.4650   44.9700   54.7890 N.3   151  LYS151     -0.1231
    203  CA         2.7330   44.9690   54.0680 C.3   151  LYS151      0.1693
    204  C          3.0870   43.5340   53.6530 C.2   151  LYS151      0.2592
    205  O          3.5920   43.3060   52.5530 O.2   151  LYS151     -0.2718
    206  CB         3.8440   45.6140   54.9130 C.3   151  LYS151      0.0285
    207  CG         3.7630   47.1500   55.0030 C.3   151  LYS151      0.0035
    208  CD         2.5360   47.6550   55.7610 C.3   151  LYS151      0.0206
    209  CE         2.6260   49.1420   56.0560 C.3   151  LYS151      0.1093
    210  NZ         1.3390   49.6530   56.6190 N.3   151  LYS151     -0.1314
    211  N          2.7880   42.5650   54.5180 N.am  152  PHE152     -0.1976
    212  CA         3.0020   41.1520   54.1880 C.3   152  PHE152      0.1639
    213  C          1.9740   40.6540   53.1760 C.2   152  PHE152      0.2290
    214  O          2.2990   39.8430   52.3050 O.2   152  PHE152     -0.2864
    215  CB         2.9430   40.2780   55.4450 C.3   152  PHE152      0.0560
    216  CG         4.1610   40.3800   56.3180 C.ar  152  PHE152     -0.0200
    217  CD1        5.2870   39.6190   56.0420 C.ar  152  PHE152     -0.0042
    218  CD2        4.1710   41.2000   57.4390 C.ar  152  PHE152     -0.0042
    219  CE1        6.4090   39.6940   56.8480 C.ar  152  PHE152     -0.0003
    220  CE2        5.2940   41.2800   58.2510 C.ar  152  PHE152     -0.0003
    221  CZ         6.4150   40.5260   57.9560 C.ar  152  PHE152     -0.0000
    222  N         -2.6970   52.8460   54.1820 N.3   233  HIS233     -0.1241
    223  CA        -1.5690   53.0080   55.0990 C.3   233  HIS233      0.1621
    224  C         -1.5820   54.3950   55.7410 C.2   233  HIS233      0.2264
    225  O         -1.4000   54.5270   56.9570 O.2   233  HIS233     -0.2867
    226  CB        -0.2460   52.7910   54.3610 C.3   233  HIS233      0.0745
    227  CG         0.9580   53.2190   55.1380 C.ar  233  HIS233      0.0817
    228  ND1        1.5640   54.4420   54.9540 N.ar  233  HIS233     -0.2268
    229  CD2        1.6610   52.5940   56.1110 C.ar  233  HIS233      0.1154
    230  CE1        2.5930   54.5470   55.7740 C.ar  233  HIS233      0.1986
    231  NE2        2.6730   53.4400   56.4900 N.ar  233  HIS233     -0.2212
    232  N          3.3570   62.9650   54.6180 N.3   255  TYR255     -0.1241
    233  CA         1.9270   62.7240   54.8560 C.3   255  TYR255      0.1605
    234  C          1.0770   63.9950   54.8410 C.2   255  TYR255      0.2264
    235  O         -0.1170   63.9320   54.5310 O.2   255  TYR255     -0.2867
    236  CB         1.6920   61.9850   56.1830 C.3   255  TYR255      0.0534
    237  CG         2.3520   60.6250   56.2810 C.ar  255  TYR255     -0.0201
    238  CD1        2.2970   59.7140   55.2280 C.ar  255  TYR255     -0.0009
    239  CD2        3.0200   60.2420   57.4420 C.ar  255  TYR255     -0.0009
    240  CE1        2.9050   58.4660   55.3270 C.ar  255  TYR255      0.0417
    241  CE2        3.6230   59.0060   57.5500 C.ar  255  TYR255      0.0417
    242  CZ         3.5640   58.1210   56.4970 C.ar  255  TYR255      0.1957
    243  OH         4.1760   56.8960   56.6200 O.3   255  TYR255     -0.2866
@<TRIPOS>BOND
     1   102   103    1
     2   112   113    2
     3   112   111    1
     4    94    95    2
     5    94    93    1
     6    92    93    1
     7   114   111    1
     8   114   115    1
     9   111   110    1
    10   110   104   am
    11    93    96    1
    12   103   104    1
    13   103   106    1
    14   104   105    2
    15   122   123    1
    16   115   116   ar
    17   115   117   ar
    18   116   118   ar
    19    96    97    1
    20   124   123    1
    21   124   125    2
    22   133   132    2
    23   117   119   ar
    24   106   107    1
    25   106   108    1
    26   107   109    1
    27   123   126    1
    28   118   120   ar
    29    97    98   ar
    30    97    99   ar
    31    98   100   ar
    32   214   213    2
    33   126   127    1
    34   130   131    1
    35   119   120   ar
    36   132   131    1
    37   205   204    2
    38   120   121    1
    39    85    83    1
    40   134   131    1
    41   134   135    1
    42   213   212    1
    43    99   101   ar
    44   100   101   ar
    45   204   203    1
    46   204   211   am
    47   136   135    1
    48   136   137    1
    49   127   129    1
    50   127   128    1
    51    83    84    1
    52    83    82    2
    53   203   202    1
    54   203   206    1
    55   151   150    1
    56   222   223    1
    57   212   211    1
    58   212   215    1
    59   226   223    1
    60   226   227    1
    61   235   234    2
    62   232   233    1
    63    89    88    2
    64   234   233    1
    65   233   236    1
    66   206   207    1
    67   228   227   ar
    68   228   230   ar
    69   207   208    1
    70    82    81    1
    71   223   224    1
    72   227   229   ar
    73   238   240   ar
    74   238   237   ar
    75   240   242   ar
    76   215   216    1
    77   150   149    1
    78   150   152    1
    79   224   225    2
    80   208   209    1
    81   230   231   ar
    82    88    87    1
    83   149   146    1
    84   217   216   ar
    85   217   219   ar
    86   209   210    1
    87    78    77    2
    88   229   231   ar
    89   236   237    1
    90    87    90    1
    91    87    86    1
    92   237   239   ar
    93   216   218   ar
    94    81    80    1
    95   242   243    1
    96   242   241   ar
    97   144   142    1
    98    91    90    1
    99   145   146    1
   100   145   140   am
   101   219   221   ar
   102   148   147    2
   103    80    79    1
   104    77    86   am
   105    77    76    1
   106   146   147    1
   107   139   142    1
   108   139   140    1
   109   139   138    1
   110   142   143    1
   111   218   220   ar
   112   239   241   ar
   113   147   153   am
   114   140   141    2
   115   197   196    2
   116   221   220   ar
   117    76    79    1
   118    76    75    1
   119   153   154    1
   120   186   185    2
   121   196   195    1
   122    67    66    2
   123   163   164    2
   124   163   162    1
   125   154   155    1
   126   154   157    1
   127    61    60    2
   128   155   156    2
   129   155   161   am
   130    75    66   am
   131   191   193   ar
   132   191   189   ar
   133   193   192   ar
   134   161   162    1
   135    66    65    1
   136   185   194   am
   137   185   184    1
   138   195   194    1
   139   195   198    1
   140   162   165    1
   141   159   157    1
   142   189   188   ar
   143   192   190   ar
   144    60    59    1
   145   157   158    1
   146   184   183    1
   147   184   187    1
   148   170   169    2
   149   188   190   ar
   150   188   187    1
   151    62    59    1
   152    62    63    1
   153    59    58    1
   154   198   199    1
   155    65    64    1
   156    65    68    1
   157   181   180    1
   158   165   166    1
   159   158   160    1
   160   167   168    1
   161   200   199    1
   162   200   201    1
   163    57    56    2
   164   169   168    1
   165    68    69    1
   166    58    56   am
   167   168   171    1
   168    56    55    1
   169   179   180    1
   170   179   176    1
   171   180   182    1
   172   171   172    1
   173    71    69   ar
   174    71    73   ar
   175    69    70   ar
   176    73    74   ar
   177    48    47    2
   178   177   176    1
   179   177   178    2
   180   176   175    1
   181   172   173    1
   182    55    54    1
   183    70    72   ar
   184    40    39    2
   185   173   174    1
   186    21    20    2
   187    47    54   am
   188    47    46    1
   189    74    72   ar
   190    24    22    1
   191    43    41    1
   192    19    22    1
   193    19    20    1
   194    19    18    1
   195    22    23    1
   196    46    45    1
   197    46    49    1
   198    39    38    1
   199    52    51    2
   200    23    25    1
   201    41    38    1
   202    41    42    1
   203    38    37    1
   204    49    50    1
   205    51    53   am
   206    51    50    1
   207    42    44    1
   208    29    28    2
   209    37    28   am
   210    28    27    1
   211    12    11    2
   212     7     6    1
   213    27    26    1
   214    27    30    1
   215    11    10    1
   216     8     6    1
   217     6     5    1
   218    10     9    1
   219    10    13    1
   220    30    31    1
   221     2     5    1
   222     2     1    1
   223     2     3    1
   224     4     3    2
   225    17    15   ar
   226    16    15   ar
   227    15    14    1
   228    13    14    1
   229    31    32    1
   230    32    33    1
   231    35    34    1
   232    33    34    2
   233    34    36    1
