@<TRIPOS>MOLECULE
tmp/3v9uD00.pdb
 162 158 0 0 0
SMALL
GASTEIGER

@<TRIPOS>ATOM
      1  N        -23.4580   23.3230   65.3290 N.3    20  ASP20      -0.1225
      2  CA       -24.8690   23.2080   65.6650 C.3    20  ASP20       0.1805
      3  C        -25.3900   24.5220   66.2340 C.2    20  ASP20       0.2598
      4  O        -24.7450   25.1500   67.0710 O.2    20  ASP20      -0.2718
      5  CB       -25.1150   22.0850   66.6720 C.3    20  ASP20       0.1424
      6  CG       -26.5770   21.9750   67.0680 C.2    20  ASP20       0.3668
      7  OD1      -27.3430   21.3790   66.2900 O.co2  20  ASP20      -0.2456
      8  OD2      -26.9660   22.4870   68.1440 O.co2  20  ASP20      -0.2456
      9  N        -26.5640   24.9360   65.7780 N.am   21  VAL21      -0.1966
     10  CA       -27.2080   26.1090   66.3410 C.3    21  VAL21       0.1727
     11  C        -28.5030   25.6860   67.0160 C.2    21  VAL21       0.2616
     12  O        -29.1470   24.7290   66.5880 O.2    21  VAL21      -0.2715
     13  CB       -27.5160   27.1650   65.2540 C.3    21  VAL21       0.0290
     14  CG1      -26.2450   27.5580   64.5210 C.3    21  VAL21       0.0023
     15  CG2      -28.5560   26.6390   64.2780 C.3    21  VAL21       0.0023
     16  N        -28.8690   26.3710   68.0930 N.am   22  GLU22      -0.1963
     17  CA       -30.2390   26.2930   68.5760 C.3    22  GLU22       0.1733
     18  C        -30.8660   27.6610   68.3570 C.2    22  GLU22       0.2617
     19  O        -30.2040   28.6940   68.5080 O.2    22  GLU22      -0.2715
     20  CB       -30.3070   25.8760   70.0450 C.3    22  GLU22       0.0429
     21  CG       -29.5840   24.5780   70.3700 C.3    22  GLU22       0.1163
     22  CD       -30.1560   23.3630   69.6550 C.2    22  GLU22       0.3649
     23  OE1      -29.3610   22.4720   69.2930 O.co2  22  GLU22      -0.2457
     24  OE2      -31.3890   23.2830   69.4680 O.co2  22  GLU22      -0.2457
     25  N        -32.1420   27.6690   67.9970 N.am   23  THR23      -0.1951
     26  CA       -32.7690   28.8830   67.5040 C.3    23  THR23       0.1897
     27  C        -34.1770   29.0330   68.0590 C.2    23  THR23       0.2313
     28  O        -34.7060   28.1150   68.6900 O.2    23  THR23      -0.2863
     29  CB       -32.8570   28.8580   65.9650 C.3    23  THR23       0.1794
     30  OG1      -33.8440   27.9030   65.5680 O.3    23  THR23      -0.2208
     31  CG2      -31.5140   28.4720   65.3510 C.3    23  THR23       0.0378
     32  N        -36.8260   29.4390   66.1440 N.3    25  GLY25      -0.1210
     33  CA       -37.7160   29.1740   65.0250 C.3    25  GLY25       0.1956
     34  C        -37.0170   28.6360   63.7870 C.2    25  GLY25       0.2611
     35  O        -35.7970   28.4810   63.7650 O.2    25  GLY25      -0.2717
     36  N        -37.7930   28.3640   62.7450 N.am   26  PHE26      -0.1976
     37  CA       -37.2610   27.7510   61.5300 C.3    26  PHE26       0.1639
     38  C        -36.7610   28.7470   60.4850 C.2    26  PHE26       0.2290
     39  O        -36.0870   28.3610   59.5320 O.2    26  PHE26      -0.2864
     40  CB       -38.2990   26.8220   60.8960 C.3    26  PHE26       0.0560
     41  CG       -38.6080   25.6050   61.7200 C.ar   26  PHE26      -0.0200
     42  CD1      -37.6110   24.7020   62.0480 C.ar   26  PHE26      -0.0042
     43  CD2      -39.8980   25.3570   62.1560 C.ar   26  PHE26      -0.0042
     44  CE1      -37.8940   23.5790   62.8020 C.ar   26  PHE26      -0.0003
     45  CE2      -40.1870   24.2300   62.9100 C.ar   26  PHE26      -0.0003
     46  CZ       -39.1830   23.3410   63.2310 C.ar   26  PHE26      -0.0000
     47  N        -43.0620   27.3950   70.5450 N.3    70  GLU70      -0.1231
     48  CA       -42.8960   25.9660   70.2900 C.3    70  GLU70       0.1699
     49  C        -41.4220   25.6050   70.1270 C.2    70  GLU70       0.2592
     50  O        -40.9870   24.5390   70.5540 O.2    70  GLU70      -0.2718
     51  CB       -43.6910   25.5260   69.0590 C.3    70  GLU70       0.0402
     52  CG       -43.7320   26.5540   67.9480 C.3    70  GLU70       0.1161
     53  CD       -44.6230   27.7360   68.2880 C.2    70  GLU70       0.3649
     54  OE1      -45.5740   27.5510   69.0780 O.co2  70  GLU70      -0.2457
     55  OE2      -44.3710   28.8490   67.7720 O.co2  70  GLU70      -0.2457
     56  N        -40.6580   26.5010   69.5130 N.am   71  ALA71      -0.1980
     57  CA       -39.2240   26.3030   69.3630 C.3    71  ALA71       0.1597
     58  C        -38.5670   26.2440   70.7340 C.2    71  ALA71       0.2287
     59  O        -37.8000   25.3270   71.0310 O.2    71  ALA71      -0.2864
     60  CB       -38.6200   27.4230   68.5370 C.3    71  ALA71       0.0319
     61  N        -39.4450   23.2610   72.4040 N.3    74  PHE74      -0.1227
     62  CA       -38.7300   22.1400   71.8030 C.3    74  PHE74       0.1736
     63  C        -37.3130   22.0030   72.3480 C.2    74  PHE74       0.2595
     64  O        -36.8500   20.8950   72.6230 O.2    74  PHE74      -0.2718
     65  CB       -38.6880   22.2710   70.2770 C.3    74  PHE74       0.0547
     66  CG       -37.7860   21.2760   69.6160 C.ar   74  PHE74      -0.0202
     67  CD1      -38.2590   20.0260   69.2540 C.ar   74  PHE74      -0.0042
     68  CD2      -36.4550   21.5800   69.3740 C.ar   74  PHE74      -0.0042
     69  CE1      -37.4240   19.0990   68.6550 C.ar   74  PHE74      -0.0003
     70  CE2      -35.6170   20.6570   68.7710 C.ar   74  PHE74      -0.0003
     71  CZ       -36.1040   19.4150   68.4150 C.ar   74  PHE74      -0.0000
     72  N        -36.6290   23.1330   72.5040 N.am   75  ASN75      -0.1974
     73  CA       -35.2230   23.1200   72.9010 C.3    75  ASN75       0.1688
     74  C        -34.9990   23.4650   74.3730 C.2    75  ASN75       0.2292
     75  O        -33.8630   23.4550   74.8540 O.2    75  ASN75      -0.2864
     76  CB       -34.4050   24.0500   72.0000 C.3    75  ASN75       0.1181
     77  CG       -34.8630   25.4890   72.0800 C.2    75  ASN75       0.2629
     78  OD1      -35.3010   25.9560   73.1350 O.2    75  ASN75      -0.2716
     79  ND2      -34.7770   26.2020   70.9580 N.am   75  ASN75      -0.0877
     80  N        -25.8660   18.5830   60.6910 N.3   117  HIS117     -0.1226
     81  CA       -26.9420   17.6510   60.4010 C.3   117  HIS117      0.1752
     82  C        -28.1310   18.3860   59.7860 C.2   117  HIS117      0.2596
     83  O        -28.7680   19.2010   60.4480 O.2   117  HIS117     -0.2718
     84  CB       -27.3630   16.9000   61.6700 C.3   117  HIS117      0.0759
     85  CG       -28.0020   15.5830   61.3840 C.ar  117  HIS117      0.0818
     86  ND1      -27.2810   14.4880   60.9580 N.ar  117  HIS117     -0.2268
     87  CD2      -29.2980   15.1960   61.4080 C.ar  117  HIS117      0.1154
     88  CE1      -28.1030   13.4760   60.7550 C.ar  117  HIS117      0.1986
     89  NE2      -29.3330   13.8800   61.0190 N.ar  117  HIS117     -0.2212
     90  N        -28.4360   18.0740   58.5270 N.am  118  ASN118     -0.1974
     91  CA       -29.3400   18.8980   57.7380 C.3   118  ASN118      0.1688
     92  C        -28.7260   20.2900   57.7120 C.2   118  ASN118      0.2292
     93  O        -29.3400   21.2750   58.1200 O.2   118  ASN118     -0.2864
     94  CB       -30.7590   18.8970   58.3230 C.3   118  ASN118      0.1181
     95  CG       -31.3800   17.5040   58.3380 C.2   118  ASN118      0.2629
     96  OD1      -31.7170   16.9660   59.3960 O.2   118  ASN118     -0.2716
     97  ND2      -31.5080   16.9040   57.1610 N.am  118  ASN118     -0.0877
     98  N        -29.8560   24.2970   57.2610 N.3   121  PHE121     -0.1227
     99  CA       -30.4450   24.9950   58.3980 C.3   121  PHE121      0.1736
    100  C        -29.3910   25.7460   59.2130 C.2   121  PHE121      0.2595
    101  O        -29.5100   26.9480   59.4460 O.2   121  PHE121     -0.2718
    102  CB       -31.1680   23.9850   59.2890 C.3   121  PHE121      0.0547
    103  CG       -31.8700   24.5910   60.4720 C.ar  121  PHE121     -0.0202
    104  CD1      -31.2190   24.7270   61.6870 C.ar  121  PHE121     -0.0042
    105  CD2      -33.1920   24.9970   60.3780 C.ar  121  PHE121     -0.0042
    106  CE1      -31.8720   25.2690   62.7860 C.ar  121  PHE121     -0.0003
    107  CE2      -33.8490   25.5410   61.4740 C.ar  121  PHE121     -0.0003
    108  CZ       -33.1880   25.6760   62.6780 C.ar  121  PHE121     -0.0000
    109  N        -28.3630   25.0300   59.6510 N.am  122  ASP122     -0.1974
    110  CA       -27.3260   25.6350   60.4720 C.3   122  ASP122      0.1709
    111  C        -26.5480   26.6660   59.6610 C.2   122  ASP122      0.2293
    112  O        -26.2110   27.7390   60.1590 O.2   122  ASP122     -0.2864
    113  CB       -26.4000   24.5550   61.0370 C.3   122  ASP122      0.1436
    114  CG       -27.1610   23.4850   61.8180 C.2   122  ASP122      0.3671
    115  OD1      -27.0320   23.4510   63.0580 O.co2 122  ASP122     -0.2456
    116  OD2      -27.9000   22.6850   61.1970 O.co2 122  ASP122     -0.2456
    117  N        -30.8710    8.6040   58.4490 N.3   159  THR159     -0.1203
    118  CA       -30.7640   10.0520   58.2750 C.3   159  THR159      0.1994
    119  C        -31.0290   10.8480   59.5560 C.2   159  THR159      0.2618
    120  O        -30.5550   11.9720   59.7020 O.2   159  THR159     -0.2717
    121  CB       -31.6900   10.5710   57.1540 C.3   159  THR159      0.1784
    122  OG1      -33.0350   10.1510   57.4090 O.3   159  THR159     -0.2211
    123  CG2      -31.2380   10.0380   55.7930 C.3   159  THR159      0.0376
    124  N        -31.7970   10.2730   60.4730 N.am  160  VAL160     -0.1965
    125  CA       -32.0710   10.9280   61.7490 C.3   160  VAL160      0.1727
    126  C        -30.8500   10.8760   62.6850 C.2   160  VAL160      0.2616
    127  O        -30.2930    9.8030   62.9460 O.2   160  VAL160     -0.2715
    128  CB       -33.3030   10.3100   62.4390 C.3   160  VAL160      0.0290
    129  CG1      -33.5220   10.9340   63.8180 C.3   160  VAL160      0.0023
    130  CG2      -34.5340   10.4760   61.5600 C.3   160  VAL160      0.0023
    131  N        -30.4430   12.0380   63.1910 N.am  161  LEU161     -0.1963
    132  CA       -29.2330   12.1360   64.0100 C.3   161  LEU161      0.1728
    133  C        -29.1180   11.0380   65.0760 C.2   161  LEU161      0.2616
    134  O        -28.1630   10.2640   65.0740 O.2   161  LEU161     -0.2715
    135  CB       -29.1310   13.5150   64.6670 C.3   161  LEU161      0.0311
    136  CG       -27.8560   13.7300   65.4870 C.3   161  LEU161      0.0022
    137  CD1      -26.6490   13.2770   64.6890 C.3   161  LEU161      0.0001
    138  CD2      -27.7080   15.1870   65.9160 C.3   161  LEU161      0.0001
    139  N        -30.0890   10.9720   65.9820 N.am  162  SER162     -0.1950
    140  CA       -30.0250   10.0050   67.0730 C.3   162  SER162      0.1924
    141  C        -29.8640    8.5750   66.5560 C.2   162  SER162      0.2314
    142  O        -29.0000    7.8370   67.0310 O.2   162  SER162     -0.2863
    143  CB       -31.2360   10.1300   68.0110 C.3   162  SER162      0.2116
    144  OG       -32.4580    9.9100   67.3330 O.3   162  SER162     -0.2180
    145  N        -30.1760   18.9910   72.0540 N.3   178  HIS178     -0.1241
    146  CA       -30.5910   20.3920   71.9270 C.3   178  HIS178      0.1621
    147  C        -29.8480   21.3600   72.8440 C.2   178  HIS178      0.2264
    148  O        -30.1490   22.5580   72.8840 O.2   178  HIS178     -0.2867
    149  CB       -32.1110   20.5330   72.0270 C.3   178  HIS178      0.0745
    150  CG       -32.8420   19.5730   71.1450 C.ar  178  HIS178      0.0817
    151  ND1      -32.5620   19.4440   69.8010 N.ar  178  HIS178     -0.2268
    152  CD2      -33.8040   18.6610   71.4190 C.ar  178  HIS178      0.1154
    153  CE1      -33.3350   18.5070   69.2800 C.ar  178  HIS178      0.1986
    154  NE2      -34.0980   18.0150   70.2410 N.ar  178  HIS178     -0.2212
    155  N        -25.3040   18.3710   70.7330 N.3   183  ASP183     -0.1239
    156  CA       -25.5500   18.1360   69.3030 C.3   183  ASP183      0.1674
    157  C        -24.2570   18.1790   68.4950 C.2   183  ASP183      0.2266
    158  O        -23.9600   17.2730   67.7290 O.2   183  ASP183     -0.2867
    159  CB       -26.4990   19.1870   68.7230 C.3   183  ASP183      0.1410
    160  CG       -27.9560   18.8830   68.9920 C.2   183  ASP183      0.3668
    161  OD1      -28.2660   18.2220   70.0030 O.co2 183  ASP183     -0.2456
    162  OD2      -28.7970   19.3160   68.1810 O.co2 183  ASP183     -0.2456
@<TRIPOS>BOND
     1   123   121    1
     2   121   122    1
     3   121   118    1
     4    97    95   am
     5    98    99    1
     6    92    91    1
     7    92    93    2
     8    91    94    1
     9    91    90    1
    10   118   117    1
    11   118   119    1
    12    94    95    1
    13    95    96    2
    14    99   100    1
    15    99   102    1
    16    90    82   am
    17   100   101    2
    18   100   109   am
    19   102   103    1
    20    39    38    2
    21   119   120    2
    22   119   124   am
    23   109   110    1
    24   111   112    2
    25   111   110    1
    26    82    81    1
    27    82    83    2
    28   105   103   ar
    29   105   107   ar
    30    81    80    1
    31    81    84    1
    32   103   104   ar
    33   110   113    1
    34   124   125    1
    35    38    37    1
    36    88    86   ar
    37    88    89   ar
    38    40    37    1
    39    40    41    1
    40    86    85   ar
    41    89    87   ar
    42   113   114    1
    43   116   114   ar
    44    85    87   ar
    45    85    84    1
    46   107   108   ar
    47    37    36    1
    48   130   128    1
    49   104   106   ar
    50    41    42   ar
    51    41    43   ar
    52   125   128    1
    53   125   126    1
    54   114   115   ar
    55    42    44   ar
    56    43    45   ar
    57   128   129    1
    58   108   106   ar
    59   126   127    2
    60   126   131   am
    61    36    34   am
    62    44    46   ar
    63    45    46   ar
    64   131   132    1
    65    35    34    2
    66    34    33    1
    67   132   135    1
    68   132   133    1
    69    15    13    1
    70    14    13    1
    71   135   136    1
    72   137   136    1
    73    33    32    1
    74   134   133    2
    75   133   139   am
    76    13    10    1
    77     1     2    1
    78    31    29    1
    79   136   138    1
    80    30    29    1
    81     2     3    1
    82     2     5    1
    83     9     3   am
    84     9    10    1
    85    29    26    1
    86   139   140    1
    87     3     4    2
    88     7     6   ar
    89    10    11    1
    90   141   142    2
    91   141   140    1
    92    12    11    2
    93     5     6    1
    94    11    16   am
    95     6     8   ar
    96   140   143    1
    97   144   143    1
    98    26    25    1
    99    26    27    1
   100   158   157    2
   101    55    53   ar
   102    52    53    1
   103    52    51    1
   104    25    18   am
   105    27    28    2
   106    16    17    1
   107   162   160   ar
   108    53    54   ar
   109    18    19    2
   110    18    17    1
   111    71    69   ar
   112    71    70   ar
   113   157   156    1
   114    60    57    1
   115    17    20    1
   116    69    67   ar
   117   159   160    1
   118   159   156    1
   119    70    68   ar
   120   160   161   ar
   121    51    48    1
   122    67    66   ar
   123   153   151   ar
   124   153   154   ar
   125    23    22   ar
   126   156   155    1
   127    57    56    1
   128    57    58    1
   129    68    66   ar
   130    24    22   ar
   131    56    49   am
   132    66    65    1
   133    22    21    1
   134   151   150   ar
   135    20    21    1
   136    49    48    1
   137    49    50    2
   138   154   152   ar
   139    65    62    1
   140    48    47    1
   141    58    59    2
   142    79    77   am
   143   150   152   ar
   144   150   149    1
   145    62    63    1
   146    62    61    1
   147   146   149    1
   148   146   145    1
   149   146   147    1
   150    76    77    1
   151    76    73    1
   152    77    78    2
   153    63    72   am
   154    63    64    2
   155    72    73    1
   156   147   148    2
   157    73    74    1
   158    74    75    2
