@<TRIPOS>MOLECULE
tmp/3v9vA01.pdb
 226 219 0 0 0
SMALL
GASTEIGER

@<TRIPOS>ATOM
      1  N         20.6430   43.8860   65.9140 N.3    56  ILE56      -0.1245
      2  CA        19.8630   44.6970   64.9740 C.3    56  ILE56       0.1561
      3  C         20.1000   46.1900   65.1870 C.2    56  ILE56       0.2260
      4  O         19.6720   47.0150   64.3770 O.2    56  ILE56      -0.2867
      5  CB        18.3420   44.3850   65.0690 C.3    56  ILE56       0.0252
      6  CG1       17.7390   44.8970   66.3850 C.3    56  ILE56       0.0019
      7  CG2       18.0980   42.8890   64.9060 C.3    56  ILE56       0.0019
      8  CD1       16.2840   44.5120   66.5810 C.3    56  ILE56       0.0001
      9  N          8.1830   50.5620   70.1820 N.3    61  ARG61      -0.1231
     10  CA         9.6080   50.4580   69.8600 C.3    61  ARG61       0.1694
     11  C          9.8220   49.9050   68.4490 C.2    61  ARG61       0.2591
     12  O         10.6900   50.3830   67.7180 O.2    61  ARG61      -0.2718
     13  CB        10.3250   49.5870   70.9030 C.3    61  ARG61       0.0321
     14  CG        11.8220   49.3890   70.6740 C.3    61  ARG61       0.0489
     15  CD        12.1270   48.0550   69.9940 C.3    61  ARG61       0.2205
     16  NE        13.5420   47.9170   69.6540 N.pl3  61  ARG61      -0.0865
     17  CZ        14.1440   48.5250   68.6320 C.cat  61  ARG61       0.5346
     18  NH1       13.4680   49.3340   67.8200 N.pl3  61  ARG61       0.1354
     19  NH2       15.4400   48.3270   68.4200 N.pl3  61  ARG61       0.1354
     20  N          9.0300   48.9020   68.0740 N.am   62  ILE62      -0.1980
     21  CA         9.1120   48.3130   66.7340 C.3    62  ILE62       0.1595
     22  C          8.6310   49.3030   65.6720 C.2    62  ILE62       0.2287
     23  O          9.2250   49.4030   64.5980 O.2    62  ILE62      -0.2864
     24  CB         8.2920   47.0050   66.6340 C.3    62  ILE62       0.0276
     25  CG1        8.9130   45.9140   67.5150 C.3    62  ILE62       0.0022
     26  CG2        8.2080   46.5250   65.1870 C.3    62  ILE62       0.0022
     27  CD1       10.2820   45.4560   67.0620 C.3    62  ILE62       0.0001
     28  N         11.2840   51.7500   64.9680 N.3    65  GLY65      -0.1210
     29  CA        12.2620   51.0840   64.1140 C.3    65  GLY65       0.1956
     30  C         11.8620   51.1340   62.6520 C.2    65  GLY65       0.2612
     31  O         12.6860   51.4290   61.7850 O.2    65  GLY65      -0.2717
     32  N         10.5890   50.8550   62.3820 N.am   66  CYS66      -0.1956
     33  CA        10.0450   50.9580   61.0270 C.3    66  CYS66       0.1843
     34  C         10.1820   52.3810   60.4840 C.2    66  CYS66       0.2625
     35  O         10.5110   52.5680   59.3120 O.2    66  CYS66      -0.2714
     36  CB         8.5790   50.5220   60.9960 C.3    66  CYS66       0.0997
     37  SG         8.3310   48.7520   61.2500 S.3    66  CYS66      -0.0797
     38  N          9.9360   53.3760   61.3390 N.am   67  GLN67      -0.1963
     39  CA        10.0950   54.7840   60.9580 C.3    67  GLN67       0.1733
     40  C         11.5250   55.1160   60.5530 C.2    67  GLN67       0.2616
     41  O         11.7460   55.7680   59.5320 O.2    67  GLN67      -0.2715
     42  CB         9.6900   55.7220   62.0980 C.3    67  GLN67       0.0408
     43  CG         8.2000   55.9260   62.2630 C.3    67  GLN67       0.0908
     44  CD         7.8960   57.0590   63.2200 C.2    67  GLN67       0.2608
     45  OE1        8.3620   58.1830   63.0320 O.2    67  GLN67      -0.2717
     46  NE2        7.1240   56.7680   64.2600 N.am   67  GLN67      -0.0878
     47  N         12.4890   54.6900   61.3680 N.am   68  PHE68      -0.1960
     48  CA        13.9000   54.9630   61.0910 C.3    68  PHE68       0.1771
     49  C         14.3440   54.3420   59.7670 C.2    68  PHE68       0.2619
     50  O         15.0570   54.9800   58.9930 O.2    68  PHE68      -0.2715
     51  CB        14.8030   54.4720   62.2320 C.3    68  PHE68       0.0574
     52  CG        14.7860   55.3600   63.4530 C.ar   68  PHE68      -0.0200
     53  CD1       14.4940   54.8370   64.7080 C.ar   68  PHE68      -0.0042
     54  CD2       15.0740   56.7170   63.3480 C.ar   68  PHE68      -0.0042
     55  CE1       14.4880   55.6520   65.8370 C.ar   68  PHE68      -0.0003
     56  CE2       15.0650   57.5390   64.4710 C.ar   68  PHE68      -0.0003
     57  CZ        14.7720   57.0050   65.7160 C.ar   68  PHE68      -0.0000
     58  N         13.9210   53.1060   59.5070 N.am   69  ARG69      -0.1963
     59  CA        14.2310   52.4550   58.2350 C.3    69  ARG69       0.1729
     60  C         13.5510   53.1670   57.0630 C.2    69  ARG69       0.2616
     61  O         14.1550   53.3340   56.0050 O.2    69  ARG69      -0.2715
     62  CB        13.8390   50.9700   58.2570 C.3    69  ARG69       0.0348
     63  CG        13.9690   50.2460   56.9080 C.3    69  ARG69       0.0492
     64  CD        15.3640   50.3710   56.2940 C.3    69  ARG69       0.2205
     65  NE        15.3660   49.9550   54.8920 N.pl3  69  ARG69      -0.0865
     66  CZ        16.2070   50.4000   53.9570 C.cat  69  ARG69       0.5346
     67  NH1       17.1400   51.3020   54.2450 N.pl3  69  ARG69       0.1354
     68  NH2       16.1050   49.9440   52.7130 N.pl3  69  ARG69       0.1354
     69  N         12.2990   53.5790   57.2540 N.am   70  SER70      -0.1950
     70  CA        11.5660   54.3080   56.2140 C.3    70  SER70       0.1924
     71  C         12.2830   55.6040   55.8370 C.2    70  SER70       0.2314
     72  O         12.4060   55.9310   54.6580 O.2    70  SER70      -0.2863
     73  CB        10.1380   54.6140   56.6690 C.3    70  SER70       0.2116
     74  OG         9.4020   55.2610   55.6420 O.3    70  SER70      -0.2180
     75  N          6.3590   55.8940   49.2910 N.3   104  HIS104     -0.1241
     76  CA         5.7190   54.7970   50.0290 C.3   104  HIS104      0.1621
     77  C          5.2440   53.6630   49.1230 C.2   104  HIS104      0.2264
     78  O          5.2460   52.5070   49.5400 O.2   104  HIS104     -0.2867
     79  CB         4.5960   55.3090   50.9310 C.3   104  HIS104      0.0745
     80  CG         5.0990   56.0420   52.1330 C.ar  104  HIS104      0.0817
     81  ND1        5.1570   57.4170   52.1990 N.ar  104  HIS104     -0.2268
     82  CD2        5.6040   55.5880   53.3040 C.ar  104  HIS104      0.1154
     83  CE1        5.6620   57.7780   53.3650 C.ar  104  HIS104      0.1986
     84  NE2        5.9400   56.6870   54.0550 N.ar  104  HIS104     -0.2212
     85  N          8.4470   51.8460   48.7240 N.3   107  ILE107     -0.1231
     86  CA         8.8150   51.1300   49.9440 C.3   107  ILE107      0.1692
     87  C          8.0160   49.8290   50.0750 C.2   107  ILE107      0.2592
     88  O          8.5820   48.8030   50.4420 O.2   107  ILE107     -0.2718
     89  CB         8.6680   52.0050   51.2090 C.3   107  ILE107      0.0266
     90  CG1        9.7310   53.1050   51.2120 C.3   107  ILE107      0.0019
     91  CG2        8.8260   51.1600   52.4700 C.3   107  ILE107      0.0020
     92  CD1        9.5040   54.1720   52.2620 C.3   107  ILE107      0.0001
     93  N          6.7180   49.8650   49.7670 N.am  108  TYR108     -0.1976
     94  CA         5.9110   48.6340   49.7090 C.3   108  TYR108      0.1639
     95  C          6.5370   47.6190   48.7530 C.2   108  TYR108      0.2290
     96  O          6.6340   46.4300   49.0690 O.2   108  TYR108     -0.2864
     97  CB         4.4650   48.9190   49.2680 C.3   108  TYR108      0.0560
     98  CG         3.4540   48.9880   50.3960 C.ar  108  TYR108     -0.0198
     99  CD1        3.1760   50.1910   51.0380 C.ar  108  TYR108     -0.0009
    100  CD2        2.7620   47.8490   50.8110 C.ar  108  TYR108     -0.0009
    101  CE1        2.2450   50.2640   52.0660 C.ar  108  TYR108      0.0417
    102  CE2        1.8260   47.9120   51.8460 C.ar  108  TYR108      0.0417
    103  CZ         1.5750   49.1240   52.4680 C.ar  108  TYR108      0.1957
    104  OH         0.6530   49.2070   53.4890 O.3   108  TYR108     -0.2866
    105  N         10.1430   46.4600   50.1910 N.3   111  LEU111     -0.1245
    106  CA         9.9390   45.5750   51.3450 C.3   111  LEU111      0.1561
    107  C          9.6870   44.1350   50.9060 C.2   111  LEU111      0.2260
    108  O         10.1900   43.2030   51.5300 O.2   111  LEU111     -0.2867
    109  CB         8.7770   46.0570   52.2270 C.3   111  LEU111      0.0270
    110  CG         9.1300   46.8410   53.4970 C.3   111  LEU111      0.0019
    111  CD1       10.3310   47.7560   53.3120 C.3   111  LEU111      0.0001
    112  CD2        7.9190   47.6220   53.9910 C.3   111  LEU111      0.0001
    113  N         11.1120   40.0780   52.0730 N.3   115  MET115     -0.1245
    114  CA        10.0750   39.3220   52.7730 C.3   115  MET115      0.1570
    115  C          9.8190   37.9600   52.1440 C.2   115  MET115      0.2261
    116  O          9.8920   37.8000   50.9270 O.2   115  MET115     -0.2867
    117  CB         8.7530   40.0930   52.7550 C.3   115  MET115      0.0387
    118  CG         8.6690   41.2620   53.7180 C.3   115  MET115      0.0595
    119  SD         7.1250   42.1770   53.5140 S.3   115  MET115     -0.1393
    120  CE         7.2010   43.2590   54.9390 C.3   115  MET115      0.0692
    121  N         10.4120   39.1450   57.7120 N.3   120  VAL120     -0.1231
    122  CA        11.1080   40.2170   56.9980 C.3   120  VAL120      0.1692
    123  C         12.5460   40.3920   57.4940 C.2   120  VAL120      0.2592
    124  O         12.8080   40.3660   58.7020 O.2   120  VAL120     -0.2718
    125  CB        10.3530   41.5650   57.1370 C.3   120  VAL120      0.0266
    126  CG1       10.2490   41.9910   58.6030 C.3   120  VAL120      0.0020
    127  CG2       11.0290   42.6520   56.3040 C.3   120  VAL120      0.0020
    128  N         13.4730   40.5610   56.5520 N.am  121  LEU121     -0.1966
    129  CA        14.8640   40.8640   56.8780 C.3   121  LEU121      0.1728
    130  C         14.9910   42.3180   57.3130 C.2   121  LEU121      0.2616
    131  O         14.4590   43.2160   56.6580 O.2   121  LEU121     -0.2715
    132  CB        15.7770   40.6140   55.6730 C.3   121  LEU121      0.0311
    133  CG        15.9840   39.1520   55.2820 C.3   121  LEU121      0.0022
    134  CD1       16.6380   39.0560   53.9120 C.3   121  LEU121      0.0001
    135  CD2       16.8220   38.4320   56.3330 C.3   121  LEU121      0.0001
    136  N         15.7000   42.5390   58.4160 N.am  122  ILE122     -0.1963
    137  CA        15.9390   43.8820   58.9410 C.3   122  ILE122      0.1727
    138  C         17.4280   44.0850   59.2150 C.2   122  ILE122      0.2616
    139  O         18.1940   43.1180   59.2830 O.2   122  ILE122     -0.2715
    140  CB        15.1100   44.1480   60.2260 C.3   122  ILE122      0.0290
    141  CG1       15.5040   43.1850   61.3540 C.3   122  ILE122      0.0022
    142  CG2       13.6200   44.0140   59.9320 C.3   122  ILE122      0.0023
    143  CD1       14.7230   43.3910   62.6310 C.3   122  ILE122      0.0001
    144  N         17.8280   45.3470   59.3600 N.am  123  SER123     -0.1950
    145  CA        19.2130   45.7120   59.6670 C.3   123  SER123      0.1924
    146  C         20.1940   45.1620   58.6300 C.2   123  SER123      0.2314
    147  O         21.1650   44.4860   58.9740 O.2   123  SER123     -0.2863
    148  CB        19.5890   45.2390   61.0750 C.3   123  SER123      0.2116
    149  OG        18.6050   45.6320   62.0150 O.3   123  SER123     -0.2180
    150  N         12.7680   39.3020   61.4790 N.3   129  MET129     -0.1245
    151  CA        11.6170   39.3970   62.3710 C.3   129  MET129      0.1570
    152  C         10.4280   38.6840   61.7350 C.2   129  MET129      0.2261
    153  O         10.0900   38.9460   60.5800 O.2   129  MET129     -0.2867
    154  CB        11.2840   40.8620   62.6560 C.3   129  MET129      0.0387
    155  CG        10.3980   41.0660   63.8740 C.3   129  MET129      0.0595
    156  SD        10.3140   42.7860   64.4090 S.3   129  MET129     -0.1393
    157  CE        11.9340   42.9980   65.1450 C.3   129  MET129      0.0692
    158  N          5.0470   40.2790   64.3440 N.3   134  LEU134     -0.1245
    159  CA         4.5930   41.6080   63.9340 C.3   134  LEU134      0.1561
    160  C          3.0680   41.7140   63.8850 C.2   134  LEU134      0.2260
    161  O          2.5040   42.7280   64.2980 O.2   134  LEU134     -0.2867
    162  CB         5.1870   41.9820   62.5720 C.3   134  LEU134      0.0270
    163  CG         6.6970   42.2250   62.5770 C.3   134  LEU134      0.0019
    164  CD1        7.2520   42.2550   61.1620 C.3   134  LEU134      0.0001
    165  CD2        7.0260   43.5190   63.3120 C.3   134  LEU134      0.0001
    166  N         -1.0520   47.4680   61.1280 N.3   144  PHE144     -0.1227
    167  CA        -0.1740   48.3410   60.3440 C.3   144  PHE144      0.1736
    168  C          0.8940   47.5170   59.6200 C.2   144  PHE144      0.2595
    169  O          1.2850   47.8460   58.4980 O.2   144  PHE144     -0.2718
    170  CB         0.4780   49.3900   61.2570 C.3   144  PHE144      0.0547
    171  CG         1.5190   50.2400   60.5760 C.ar  144  PHE144     -0.0202
    172  CD1        1.1520   51.3670   59.8540 C.ar  144  PHE144     -0.0042
    173  CD2        2.8680   49.9190   60.6750 C.ar  144  PHE144     -0.0042
    174  CE1        2.1130   52.1550   59.2320 C.ar  144  PHE144     -0.0003
    175  CE2        3.8340   50.7010   60.0560 C.ar  144  PHE144     -0.0003
    176  CZ         3.4560   51.8220   59.3350 C.ar  144  PHE144     -0.0000
    177  N          1.3500   46.4430   60.2640 N.am  145  MET145     -0.1979
    178  CA         2.4300   45.6060   59.7320 C.3   145  MET145      0.1605
    179  C          1.9400   44.6230   58.6700 C.2   145  MET145      0.2287
    180  O          2.5920   44.4420   57.6440 O.2   145  MET145     -0.2864
    181  CB         3.0990   44.8080   60.8600 C.3   145  MET145      0.0413
    182  CG         3.6400   45.6430   62.0130 C.3   145  MET145      0.0598
    183  SD         4.9320   46.7930   61.5180 S.3   145  MET145     -0.1393
    184  CE         5.1600   47.7110   63.0410 C.3   145  MET145      0.0692
    185  N          1.7270   44.8830   54.5740 N.3   148  LYS148     -0.1231
    186  CA         2.9950   44.8700   53.8440 C.3   148  LYS148      0.1693
    187  C          3.3610   43.4420   53.4320 C.2   148  LYS148      0.2592
    188  O          3.8810   43.2210   52.3370 O.2   148  LYS148     -0.2718
    189  CB         4.1200   45.5030   54.6770 C.3   148  LYS148      0.0285
    190  CG         4.0810   47.0350   54.7440 C.3   148  LYS148      0.0035
    191  CD         2.8400   47.5580   55.4600 C.3   148  LYS148      0.0206
    192  CE         2.9200   49.0480   55.7240 C.3   148  LYS148      0.1093
    193  NZ         1.6250   49.5860   56.2290 N.3   148  LYS148     -0.1314
    194  N          3.0760   42.4790   54.3060 N.am  149  PHE149     -0.1976
    195  CA         3.2760   41.0610   53.9960 C.3   149  PHE149      0.1639
    196  C          2.2400   40.5470   53.0000 C.2   149  PHE149      0.2290
    197  O          2.5650   39.7460   52.1240 O.2   149  PHE149     -0.2864
    198  CB         3.2210   40.2130   55.2690 C.3   149  PHE149      0.0560
    199  CG         4.4270   40.3610   56.1450 C.ar  149  PHE149     -0.0200
    200  CD1        5.5800   39.6370   55.8790 C.ar  149  PHE149     -0.0042
    201  CD2        4.4120   41.2170   57.2380 C.ar  149  PHE149     -0.0042
    202  CE1        6.6990   39.7630   56.6820 C.ar  149  PHE149     -0.0003
    203  CE2        5.5290   41.3490   58.0470 C.ar  149  PHE149     -0.0003
    204  CZ         6.6780   40.6210   57.7670 C.ar  149  PHE149     -0.0000
    205  N         -2.6640   52.5900   53.8880 N.3   230  HIS230     -0.1241
    206  CA        -1.5050   52.7520   54.7720 C.3   230  HIS230      0.1621
    207  C         -1.5580   54.0840   55.5230 C.2   230  HIS230      0.2264
    208  O         -1.2720   54.1400   56.7220 O.2   230  HIS230     -0.2867
    209  CB        -0.2040   52.6400   53.9640 C.3   230  HIS230      0.0745
    210  CG         1.0040   53.1680   54.6720 C.ar  230  HIS230      0.0817
    211  ND1        1.6940   52.4390   55.6150 N.ar  230  HIS230     -0.2268
    212  CD2        1.6500   54.3530   54.5650 C.ar  230  HIS230      0.1154
    213  CE1        2.7100   53.1550   56.0640 C.ar  230  HIS230      0.1986
    214  NE2        2.7060   54.3200   55.4430 N.ar  230  HIS230     -0.2212
    215  N          3.7850   63.0130   54.6120 N.3   254  TYR254     -0.1241
    216  CA         2.3720   62.7430   54.9030 C.3   254  TYR254      0.1605
    217  C          1.4940   64.0000   54.9190 C.2   254  TYR254      0.2264
    218  O          0.2840   63.9070   54.7050 O.2   254  TYR254     -0.2867
    219  CB         2.2220   62.0000   56.2390 C.3   254  TYR254      0.0534
    220  CG         2.7130   60.5650   56.2190 C.ar  254  TYR254     -0.0201
    221  CD1        2.2080   59.6470   55.3010 C.ar  254  TYR254     -0.0009
    222  CD2        3.6650   60.1200   57.1320 C.ar  254  TYR254     -0.0009
    223  CE1        2.6530   58.3290   55.2830 C.ar  254  TYR254      0.0417
    224  CE2        4.1150   58.8080   57.1230 C.ar  254  TYR254      0.0417
    225  CZ         3.6040   57.9160   56.1990 C.ar  254  TYR254      0.1957
    226  OH         4.0490   56.6140   56.1920 O.3   254  TYR254     -0.2866
@<TRIPOS>BOND
     1    85    86    1
     2    95    96    2
     3    95    94    1
     4    77    78    2
     5    77    76    1
     6    97    94    1
     7    97    98    1
     8    75    76    1
     9    94    93    1
    10    93    87   am
    11    86    87    1
    12    86    89    1
    13    76    79    1
    14    87    88    2
    15   105   106    1
    16    98   100   ar
    17    98    99   ar
    18   100   102   ar
    19   107   106    1
    20   107   108    2
    21   116   115    2
    22    79    80    1
    23    99   101   ar
    24    89    90    1
    25    89    91    1
    26    90    92    1
    27   106   109    1
    28   102   103   ar
    29   101   103   ar
    30   113   114    1
    31   197   196    2
    32    80    81   ar
    33    80    82   ar
    34   115   114    1
    35    81    83   ar
    36   109   110    1
    37   188   187    2
    38   103   104    1
    39    68    66    1
    40   117   114    1
    41   117   118    1
    42   196   195    1
    43    82    84   ar
    44   111   110    1
    45    83    84   ar
    46   187   186    1
    47   187   194   am
    48   110   112    1
    49   119   118    1
    50   119   120    1
    51   186   185    1
    52   186   189    1
    53   205   206    1
    54   134   133    1
    55    66    67    1
    56    66    65    2
    57   209   210    1
    58   209   206    1
    59   195   194    1
    60   195   198    1
    61   212   210   ar
    62   212   214   ar
    63   215   216    1
    64    72    71    2
    65   210   211   ar
    66   189   190    1
    67   218   217    2
    68   190   191    1
    69   206   207    1
    70    65    64    1
    71   216   217    1
    72   216   219    1
    73   198   199    1
    74   133   132    1
    75   133   135    1
    76   223   221   ar
    77   223   225   ar
    78   221   220   ar
    79   214   213   ar
    80   191   192    1
    81   207   208    2
    82   211   213   ar
    83    74    73    1
    84   132   129    1
    85   192   193    1
    86    71    70    1
    87   200   199   ar
    88   200   202   ar
    89    61    60    2
    90   199   201   ar
    91   226   225    1
    92   225   224   ar
    93    70    73    1
    94    70    69    1
    95   220   219    1
    96   220   222   ar
    97    64    63    1
    98   127   125    1
    99   128   129    1
   100   128   123   am
   101   131   130    2
   102   202   204   ar
   103   129   130    1
   104    63    62    1
   105   122   125    1
   106   122   123    1
   107   122   121    1
   108    60    69   am
   109    60    59    1
   110   224   222   ar
   111   125   126    1
   112   201   203   ar
   113   130   136   am
   114   123   124    2
   115   180   179    2
   116   204   203   ar
   117    59    62    1
   118    59    58    1
   119   136   137    1
   120   169   168    2
   121   146   147    2
   122   146   145    1
   123   179   178    1
   124   137   138    1
   125   137   140    1
   126    50    49    2
   127   138   139    2
   128   138   144   am
   129   174   176   ar
   130   174   172   ar
   131    35    34    2
   132   176   175   ar
   133   144   145    1
   134    58    49   am
   135    41    40    2
   136   168   177   am
   137   168   167    1
   138   145   148    1
   139   178   177    1
   140   178   181    1
   141    49    48    1
   142   172   171   ar
   143   142   140    1
   144   175   173   ar
   145   140   141    1
   146   167   166    1
   147   167   170    1
   148    34    33    1
   149    34    38   am
   150    40    39    1
   151    40    47   am
   152   171   173   ar
   153   171   170    1
   154   153   152    2
   155   181   182    1
   156    39    38    1
   157    39    42    1
   158    36    33    1
   159    36    37    1
   160    33    32    1
   161   148   149    1
   162    48    47    1
   163    48    51    1
   164   164   163    1
   165   141   143    1
   166   150   151    1
   167   183   182    1
   168   183   184    1
   169   152   151    1
   170    31    30    2
   171    42    43    1
   172    51    52    1
   173    43    44    1
   174   151   154    1
   175    32    30   am
   176   162   163    1
   177   162   159    1
   178   163   165    1
   179    30    29    1
   180   154   155    1
   181    45    44    2
   182    44    46   am
   183    54    52   ar
   184    54    56   ar
   185    52    53   ar
   186   155   156    1
   187   160   159    1
   188   160   161    2
   189   159   158    1
   190    29    28    1
   191     4     3    2
   192   156   157    1
   193    56    57   ar
   194    23    22    2
   195    53    55   ar
   196     7     5    1
   197     2     5    1
   198     2     3    1
   199     2     1    1
   200     5     6    1
   201    26    24    1
   202    22    21    1
   203    57    55   ar
   204     6     8    1
   205    24    21    1
   206    24    25    1
   207    21    20    1
   208    27    25    1
   209    12    11    2
   210    18    17    1
   211    20    11   am
   212    19    17    1
   213    11    10    1
   214    17    16    2
   215    16    15    1
   216    10     9    1
   217    10    13    1
   218    15    14    1
   219    14    13    1
