@<TRIPOS>MOLECULE
tmp/3v9vA00.pdb
 157 150 0 0 0
SMALL
GASTEIGER

@<TRIPOS>ATOM
      1  N         13.6810   56.4410   52.1850 N.3    74  VAL74      -0.1231
      2  CA        13.3130   57.6360   51.4240 C.3    74  VAL74       0.1692
      3  C         14.5520   58.2880   50.8120 C.2    74  VAL74       0.2591
      4  O         14.5240   58.7280   49.6580 O.2    74  VAL74      -0.2718
      5  CB        12.5590   58.6690   52.2900 C.3    74  VAL74       0.0266
      6  CG1       12.4880   60.0210   51.5870 C.3    74  VAL74       0.0020
      7  CG2       11.1590   58.1630   52.6240 C.3    74  VAL74       0.0020
      8  N         15.6390   58.3350   51.5790 N.am   75  GLN75      -0.1979
      9  CA        16.8880   58.9290   51.0980 C.3    75  GLN75       0.1601
     10  C         17.5550   58.0880   50.0040 C.2    75  GLN75       0.2287
     11  O         18.1300   58.6360   49.0640 O.2    75  GLN75      -0.2864
     12  CB        17.8410   59.1840   52.2680 C.3    75  GLN75       0.0394
     13  CG        17.3160   60.2490   53.2150 C.3    75  GLN75       0.0908
     14  CD        18.0900   60.3210   54.5090 C.2    75  GLN75       0.2608
     15  OE1       19.1630   60.9190   54.5710 O.2    75  GLN75      -0.2717
     16  NE2       17.5390   59.7260   55.5580 N.am   75  GLN75      -0.0878
     17  N         15.4240   58.6770   46.8800 N.3    78  THR78      -0.1203
     18  CA        15.7470   60.0010   46.3440 C.3    78  THR78       0.1994
     19  C         17.0150   59.9560   45.4880 C.2    78  THR78       0.2617
     20  O         17.0420   60.4910   44.3810 O.2    78  THR78      -0.2717
     21  CB        15.9130   61.0400   47.4710 C.3    78  THR78       0.1784
     22  OG1       14.6860   61.1440   48.1990 O.3    78  THR78      -0.2211
     23  CG2       16.2740   62.4060   46.9000 C.3    78  THR78       0.0376
     24  N         18.0560   59.3000   45.9930 N.am   79  GLU79      -0.1979
     25  CA        19.3010   59.1640   45.2410 C.3    79  GLU79       0.1602
     26  C         19.0850   58.3920   43.9440 C.2    79  GLU79       0.2287
     27  O         19.6300   58.7530   42.8980 O.2    79  GLU79      -0.2864
     28  CB        20.3810   58.4940   46.0950 C.3    79  GLU79       0.0415
     29  CG        20.9110   59.3910   47.2010 C.3    79  GLU79       0.1163
     30  CD        21.5860   60.6410   46.6580 C.2    79  GLU79       0.3649
     31  OE1       22.6640   60.5130   46.0410 O.co2  79  GLU79      -0.2457
     32  OE2       21.0350   61.7500   46.8350 O.co2  79  GLU79      -0.2457
     33  N         17.2770   60.5780   41.3120 N.3    82  LYS82      -0.1245
     34  CA        18.2010   61.5310   40.6960 C.3    82  LYS82       0.1561
     35  C         19.0780   60.9220   39.5940 C.2    82  LYS82       0.2260
     36  O         19.6650   61.6580   38.7960 O.2    82  LYS82      -0.2867
     37  CB        19.0700   62.1870   41.7720 C.3    82  LYS82       0.0271
     38  CG        18.2900   63.1500   42.6510 C.3    82  LYS82       0.0035
     39  CD        18.9230   63.3510   44.0150 C.3    82  LYS82       0.0206
     40  CE        20.2290   64.1170   43.9270 C.3    82  LYS82       0.1093
     41  NZ        20.7520   64.4110   45.2860 N.3    82  LYS82      -0.1314
     42  N         15.3210   63.3960   35.2280 N.3    87  PHE87      -0.1227
     43  CA        14.6570   63.7050   36.4960 C.3    87  PHE87       0.1736
     44  C         15.1610   65.0050   37.1310 C.2    87  PHE87       0.2595
     45  O         14.3580   65.8560   37.5160 O.2    87  PHE87      -0.2718
     46  CB        14.7880   62.5380   37.4840 C.3    87  PHE87       0.0547
     47  CG        14.0810   62.7670   38.7950 C.ar   87  PHE87      -0.0202
     48  CD1       12.7570   62.3770   38.9660 C.ar   87  PHE87      -0.0042
     49  CD2       14.7410   63.3700   39.8590 C.ar   87  PHE87      -0.0042
     50  CE1       12.1030   62.5880   40.1810 C.ar   87  PHE87      -0.0003
     51  CE2       14.0980   63.5870   41.0680 C.ar   87  PHE87      -0.0003
     52  CZ        12.7740   63.1940   41.2320 C.ar   87  PHE87      -0.0000
     53  N         16.4810   65.1700   37.2270 N.am   88  VAL88      -0.1980
     54  CA        17.0450   66.3540   37.8890 C.3    88  VAL88       0.1595
     55  C         16.8370   67.6460   37.0910 C.2    88  VAL88       0.2287
     56  O         17.0200   68.7360   37.6320 O.2    88  VAL88      -0.2864
     57  CB        18.5600   66.2070   38.1990 C.3    88  VAL88       0.0276
     58  CG1       18.8050   65.0530   39.1670 C.3    88  VAL88       0.0022
     59  CG2       19.3640   66.0340   36.9220 C.3    88  VAL88       0.0022
     60  N         11.9980   71.7530   40.1660 N.3    92  LEU92      -0.1231
     61  CA        12.3610   71.2020   41.4780 C.3    92  LEU92       0.1693
     62  C         11.1390   70.8600   42.3360 C.2    92  LEU92       0.2592
     63  O         11.1420   69.8680   43.0650 O.2    92  LEU92      -0.2718
     64  CB        13.2800   72.1740   42.2310 C.3    92  LEU92       0.0284
     65  CG        13.8390   71.7110   43.5810 C.3    92  LEU92       0.0019
     66  CD1       14.6690   70.4420   43.4460 C.3    92  LEU92       0.0001
     67  CD2       14.6690   72.8280   44.2030 C.3    92  LEU92       0.0001
     68  N         10.0950   71.6800   42.2520 N.am   93  ASN93      -0.1974
     69  CA         8.8700   71.4050   42.9920 C.3    93  ASN93       0.1688
     70  C          8.1630   70.1530   42.4840 C.2    93  ASN93       0.2292
     71  O          7.5580   69.4300   43.2750 O.2    93  ASN93      -0.2864
     72  CB         7.9330   72.6140   42.9670 C.3    93  ASN93       0.1181
     73  CG         8.5190   73.8070   43.6960 C.2    93  ASN93       0.2629
     74  OD1        8.7880   73.7410   44.8940 O.2    93  ASN93      -0.2716
     75  ND2        8.7330   74.8990   42.9730 N.am   93  ASN93      -0.0877
     76  N          9.8610   67.5780   41.1850 N.3    95  GLN95      -0.1231
     77  CA        10.7000   66.5110   41.7470 C.3    95  GLN95       0.1698
     78  C         10.2410   66.1590   43.1610 C.2    95  GLN95       0.2592
     79  O         10.1120   64.9830   43.5100 O.2    95  GLN95      -0.2718
     80  CB        12.1730   66.9240   41.7820 C.3    95  GLN95       0.0381
     81  CG        12.8170   67.1290   40.4270 C.3    95  GLN95       0.0905
     82  CD        14.2610   67.5540   40.5620 C.2    95  GLN95       0.2608
     83  OE1       15.0230   66.9510   41.3190 O.2    95  GLN95      -0.2717
     84  NE2       14.6420   68.6060   39.8500 N.am   95  GLN95      -0.0878
     85  N          9.9920   67.1850   43.9720 N.am   96  VAL96      -0.1980
     86  CA         9.4890   66.9870   45.3300 C.3    96  VAL96       0.1595
     87  C          8.1430   66.2510   45.3110 C.2    96  VAL96       0.2287
     88  O          7.9340   65.3100   46.0750 O.2    96  VAL96      -0.2864
     89  CB         9.3420   68.3350   46.0810 C.3    96  VAL96       0.0276
     90  CG1        8.6410   68.1380   47.4190 C.3    96  VAL96       0.0022
     91  CG2       10.7070   68.9830   46.2820 C.3    96  VAL96       0.0022
     92  N          8.4700   62.4940   44.4950 N.3    99  LEU99      -0.1231
     93  CA         8.9580   61.7240   45.6420 C.3    99  LEU99       0.1693
     94  C          7.8910   61.6070   46.7310 C.2    99  LEU99       0.2591
     95  O          7.6660   60.5230   47.2630 O.2    99  LEU99      -0.2718
     96  CB        10.2340   62.3400   46.2210 C.3    99  LEU99       0.0284
     97  CG        11.4940   62.2410   45.3610 C.3    99  LEU99       0.0019
     98  CD1       12.6270   63.0040   46.0280 C.3    99  LEU99       0.0001
     99  CD2       11.8910   60.7930   45.1210 C.3    99  LEU99       0.0001
    100  N          7.2360   62.7220   47.0470 N.am  100  LYS100     -0.1980
    101  CA         6.1980   62.7600   48.0820 C.3   100  LYS100      0.1596
    102  C          5.1470   61.6650   47.8770 C.2   100  LYS100      0.2287
    103  O          4.8000   60.9410   48.8120 O.2   100  LYS100     -0.2864
    104  CB         5.5210   64.1350   48.0860 C.3   100  LYS100      0.0298
    105  CG         4.5190   64.3540   49.2120 C.3   100  LYS100      0.0038
    106  CD         3.7250   65.6290   48.9840 C.3   100  LYS100      0.0206
    107  CE         2.7870   65.9250   50.1400 C.3   100  LYS100      0.1093
    108  NZ         3.5090   66.1980   51.4140 N.3   100  LYS100     -0.1314
    109  N          7.3170   57.6600   47.1430 N.3   103  VAL103     -0.1245
    110  CA         8.2120   56.9080   48.0340 C.3   103  VAL103      0.1561
    111  C          7.5610   55.7210   48.7510 C.2   103  VAL103      0.2260
    112  O          8.1480   54.6440   48.7970 O.2   103  VAL103     -0.2867
    113  CB         8.9340   57.8100   49.0730 C.3   103  VAL103      0.0252
    114  CG1        9.9800   58.6780   48.3830 C.3   103  VAL103      0.0019
    115  CG2        7.9440   58.6570   49.8600 C.3   103  VAL103      0.0019
    116  N          8.8520   61.1330   62.6150 N.3   247  HIS247     -0.1227
    117  CA        10.0930   61.7430   62.1420 C.3   247  HIS247      0.1737
    118  C          9.7580   62.8990   61.1910 C.2   247  HIS247      0.2438
    119  O          8.8480   62.7690   60.3720 O.2   247  HIS247     -0.2733
    120  CB        10.9550   60.6920   61.4340 C.3   247  HIS247      0.0758
    121  CG        12.3410   61.1550   61.1100 C.ar  247  HIS247      0.0818
    122  ND1       12.6170   61.9910   60.0500 N.ar  247  HIS247     -0.2268
    123  CD2       13.5330   60.8810   61.6910 C.ar  247  HIS247      0.1154
    124  CE1       13.9160   62.2220   59.9990 C.ar  247  HIS247      0.1986
    125  NE2       14.4960   61.5600   60.9840 N.ar  247  HIS247     -0.2212
    126  N         10.4760   64.0370   61.3060 N.am  248  PRO248     -0.2718
    127  CA        10.1930   65.2360   60.4990 C.3   248  PRO248      0.1535
    128  C         10.0710   64.9980   58.9900 C.2   248  PRO248      0.2598
    129  O          9.1990   65.5800   58.3460 O.2   248  PRO248     -0.2715
    130  CB        11.3920   66.1390   60.7970 C.3   248  PRO248      0.0310
    131  CG        11.7800   65.7750   62.1770 C.3   248  PRO248      0.0237
    132  CD        11.5430   64.2970   62.2930 C.3   248  PRO248      0.0939
    133  N         10.9460   64.1630   58.4370 N.am  249  LEU249     -0.1978
    134  CA        10.8880   63.8080   57.0190 C.3   249  LEU249      0.1596
    135  C          9.5600   63.1350   56.6730 C.2   249  LEU249      0.2287
    136  O          8.9490   63.4500   55.6520 O.2   249  LEU249     -0.2864
    137  CB        12.0600   62.8900   56.6490 C.3   249  LEU249      0.0297
    138  CG        12.1960   62.4850   55.1760 C.3   249  LEU249      0.0022
    139  CD1       12.2890   63.7090   54.2740 C.3   249  LEU249      0.0001
    140  CD2       13.4080   61.5900   54.9860 C.3   249  LEU249      0.0001
    141  N          6.6200   65.5680   56.8440 N.3   252  GLU252     -0.1231
    142  CA         6.5990   66.3690   55.6230 C.3   252  GLU252      0.1699
    143  C          5.9310   65.6300   54.4640 C.2   252  GLU252      0.2592
    144  O          5.1350   66.2110   53.7270 O.2   252  GLU252     -0.2718
    145  CB         8.0270   66.7620   55.2390 C.3   252  GLU252      0.0402
    146  CG         8.1460   67.5480   53.9470 C.3   252  GLU252      0.1161
    147  CD         9.5640   67.9900   53.6770 C.2   252  GLU252      0.3649
    148  OE1       10.0950   67.6620   52.5960 O.co2 252  GLU252     -0.2457
    149  OE2       10.1560   68.6640   54.5480 O.co2 252  GLU252     -0.2457
    150  N          6.2600   64.3510   54.3060 N.am  253  ILE253     -0.1980
    151  CA         5.7120   63.5450   53.2150 C.3   253  ILE253      0.1595
    152  C          4.2070   63.3180   53.3860 C.2   253  ILE253      0.2287
    153  O          3.4480   63.4340   52.4220 O.2   253  ILE253     -0.2864
    154  CB         6.4500   62.1900   53.0910 C.3   253  ILE253      0.0276
    155  CG1        7.8860   62.4170   52.6090 C.3   253  ILE253      0.0022
    156  CG2        5.7280   61.2670   52.1200 C.3   253  ILE253      0.0022
    157  CD1        8.7680   61.1920   52.7140 C.3   253  ILE253      0.0001
@<TRIPOS>BOND
     1    42    43    1
     2    43    44    1
     3    43    46    1
     4    59    57    1
     5    55    56    2
     6    55    54    1
     7    44    53   am
     8    44    45    2
     9    53    54    1
    10    46    47    1
    11    54    57    1
    12    57    58    1
    13    47    48   ar
    14    47    49   ar
    15    36    35    2
    16    48    50   ar
    17    35    34    1
    18    84    82   am
    19    49    51   ar
    20    60    61    1
    21    50    52   ar
    22    81    82    1
    23    81    80    1
    24    82    83    2
    25    34    33    1
    26    34    37    1
    27    51    52   ar
    28    76    77    1
    29    61    64    1
    30    61    62    1
    31    77    80    1
    32    77    78    1
    33    37    38    1
    34    64    65    1
    35    68    62   am
    36    68    69    1
    37    62    63    2
    38    70    69    1
    39    70    71    2
    40    38    39    1
    41    27    26    2
    42    72    69    1
    43    72    73    1
    44    75    73   am
    45    78    79    2
    46    78    85   am
    47    66    65    1
    48    65    67    1
    49    73    74    2
    50    40    39    1
    51    40    41    1
    52    26    25    1
    53    85    86    1
    54    20    19    2
    55    92    93    1
    56    99    97    1
    57    25    24    1
    58    25    28    1
    59    87    86    1
    60    87    88    2
    61    86    89    1
    62    97    98    1
    63    97    96    1
    64    19    24   am
    65    19    18    1
    66    93    96    1
    67    93    94    1
    68    31    30   ar
    69    89    91    1
    70    89    90    1
    71    28    29    1
    72    18    17    1
    73    18    21    1
    74    30    32   ar
    75    30    29    1
    76    94   100   am
    77    94    95    2
    78    23    21    1
    79   100   101    1
    80   109   110    1
    81    21    22    1
    82   102   101    1
    83   102   103    2
    84   110   111    1
    85   110   113    1
    86   101   104    1
    87   104   105    1
    88   114   113    1
    89   111   112    2
    90   106   105    1
    91   106   107    1
    92    11    10    2
    93   113   115    1
    94     4     3    2
    95    10     9    1
    96   107   108    1
    97     3     2    1
    98     3     8   am
    99     9     8    1
   100     9    12    1
   101     2     1    1
   102     2     5    1
   103     6     5    1
   104   156   154    1
   105    12    13    1
   106     5     7    1
   107   153   152    2
   108   148   147   ar
   109   155   157    1
   110   155   154    1
   111   154   151    1
   112   151   152    1
   113   151   150    1
   114    13    14    1
   115   147   146    1
   116   147   149   ar
   117   144   143    2
   118   146   145    1
   119   139   138    1
   120   150   143   am
   121   143   142    1
   122    14    15    2
   123    14    16   am
   124   140   138    1
   125   138   137    1
   126   145   142    1
   127   142   141    1
   128   136   135    2
   129   137   134    1
   130   135   134    1
   131   134   133    1
   132   129   128    2
   133   133   128   am
   134   128   127    1
   135   124   122   ar
   136   124   125   ar
   137   122   121   ar
   138   119   118    2
   139   127   130    1
   140   127   126    1
   141   130   131    1
   142   125   123   ar
   143   121   120    1
   144   121   123   ar
   145   118   126   am
   146   118   117    1
   147   126   132    1
   148   120   117    1
   149   117   116    1
   150   131   132    1
