@<TRIPOS>MOLECULE
tmp/3v9xB00.pdb
 162 158 0 0 0
SMALL
GASTEIGER

@<TRIPOS>ATOM
      1  N        -14.6590    7.7870  -13.2910 N.3    20  ASP20      -0.1225
      2  CA       -15.4550    6.6110  -13.5670 C.3    20  ASP20       0.1805
      3  C        -14.5500    5.5290  -14.1340 C.2    20  ASP20       0.2598
      4  O        -13.6860    5.8120  -14.9590 O.2    20  ASP20      -0.2718
      5  CB       -16.5730    6.9180  -14.5650 C.3    20  ASP20       0.1424
      6  CG       -17.3680    5.6770  -14.9520 C.2    20  ASP20       0.3668
      7  OD1      -18.3390    5.3710  -14.2460 O.co2  20  ASP20      -0.2456
      8  OD2      -17.0270    5.0040  -15.9570 O.co2  20  ASP20      -0.2456
      9  N        -14.7610    4.2890  -13.7030 N.am   21  VAL21      -0.1966
     10  CA       -14.0340    3.1550  -14.2740 C.3    21  VAL21       0.1727
     11  C        -15.0120    2.1710  -14.9150 C.2    21  VAL21       0.2616
     12  O        -16.1640    2.0540  -14.4940 O.2    21  VAL21      -0.2715
     13  CB       -13.1760    2.4130  -13.2090 C.3    21  VAL21       0.0290
     14  CG1      -12.2020    3.3650  -12.5460 C.3    21  VAL21       0.0023
     15  CG2      -14.0720    1.7430  -12.1620 C.3    21  VAL21       0.0023
     16  N        -14.5580    1.4830  -15.9580 N.am   22  GLU22      -0.1963
     17  CA       -15.2740    0.3240  -16.4630 C.3    22  GLU22       0.1733
     18  C        -14.4170   -0.8970  -16.1860 C.2    22  GLU22       0.2617
     19  O        -13.1890   -0.8160  -16.2060 O.2    22  GLU22      -0.2715
     20  CB       -15.5530    0.4500  -17.9580 C.3    22  GLU22       0.0429
     21  CG       -16.3220    1.7050  -18.3350 C.3    22  GLU22       0.1163
     22  CD       -17.6580    1.8250  -17.6300 C.2    22  GLU22       0.3649
     23  OE1      -18.0390    2.9680  -17.3090 O.co2  22  GLU22      -0.2457
     24  OE2      -18.3380    0.7960  -17.4140 O.co2  22  GLU22      -0.2457
     25  N        -15.0650   -2.0190  -15.9090 N.am   23  THR23      -0.1951
     26  CA       -14.3580   -3.1710  -15.3720 C.3    23  THR23       0.1897
     27  C        -14.8770   -4.4610  -15.9710 C.2    23  THR23       0.2313
     28  O        -15.9050   -4.4680  -16.6490 O.2    23  THR23      -0.2863
     29  CB       -14.5720   -3.2830  -13.8520 C.3    23  THR23       0.1794
     30  OG1      -15.9440   -3.6150  -13.5930 O.3    23  THR23      -0.2208
     31  CG2      -14.2040   -1.9860  -13.1560 C.3    23  THR23       0.0378
     32  N        -15.9400   -6.9360  -14.0920 N.3    25  GLY25      -0.1210
     33  CA       -16.5960   -7.5520  -12.9520 C.3    25  GLY25       0.1956
     34  C        -16.6510   -6.6310  -11.7370 C.2    25  GLY25       0.2611
     35  O        -16.2420   -5.4690  -11.8020 O.2    25  GLY25      -0.2717
     36  N        -17.1340   -7.1580  -10.6190 N.am   26  PHE26      -0.1976
     37  CA       -17.3780   -6.3450   -9.4300 C.3    26  PHE26       0.1639
     38  C        -16.2750   -6.3640   -8.3640 C.2    26  PHE26       0.2290
     39  O        -16.3280   -5.5870   -7.4090 O.2    26  PHE26      -0.2864
     40  CB       -18.6970   -6.7620   -8.7770 C.3    26  PHE26       0.0560
     41  CG       -19.9050   -6.4930   -9.6210 C.ar   26  PHE26      -0.0200
     42  CD1      -20.2400   -5.1970   -9.9850 C.ar   26  PHE26      -0.0042
     43  CD2      -20.7300   -7.5360  -10.0260 C.ar   26  PHE26      -0.0042
     44  CE1      -21.3610   -4.9470  -10.7530 C.ar   26  PHE26      -0.0003
     45  CE2      -21.8570   -7.2910  -10.7960 C.ar   26  PHE26      -0.0003
     46  CZ       -22.1730   -5.9920  -11.1590 C.ar   26  PHE26      -0.0000
     47  N        -20.7040  -11.3050  -18.3900 N.3    70  GLU70      -0.1231
     48  CA       -21.8140  -10.4230  -18.0520 C.3    70  GLU70       0.1699
     49  C        -21.3600   -8.9690  -17.9330 C.2    70  GLU70       0.2592
     50  O        -22.0850   -8.0590  -18.3210 O.2    70  GLU70      -0.2718
     51  CB       -22.4660  -10.8690  -16.7480 C.3    70  GLU70       0.0402
     52  CG       -21.4790  -11.4340  -15.7410 C.3    70  GLU70       0.1161
     53  CD       -20.9860  -12.8220  -16.1270 C.2    70  GLU70       0.3649
     54  OE1      -21.5600  -13.4100  -17.0680 O.co2  70  GLU70      -0.2457
     55  OE2      -20.0300  -13.3220  -15.4920 O.co2  70  GLU70      -0.2457
     56  N        -20.1650   -8.7550  -17.3920 N.am   71  ALA71      -0.1980
     57  CA       -19.6250   -7.4050  -17.2780 C.3    71  ALA71       0.1597
     58  C        -19.3640   -6.8340  -18.6690 C.2    71  ALA71       0.2287
     59  O        -19.8110   -5.7350  -18.9870 O.2    71  ALA71      -0.2864
     60  CB       -18.3590   -7.3990  -16.4520 C.3    71  ALA71       0.0319
     61  N        -22.3460   -5.9330  -20.4290 N.3    74  PHE74      -0.1227
     62  CA       -22.9450   -4.7340  -19.8630 C.3    74  PHE74       0.1736
     63  C        -22.2790   -3.4600  -20.3780 C.2    74  PHE74       0.2595
     64  O        -22.9610   -2.5410  -20.8320 O.2    74  PHE74      -0.2718
     65  CB       -22.9030   -4.7900  -18.3320 C.3    74  PHE74       0.0547
     66  CG       -23.3980   -3.5370  -17.6650 C.ar   74  PHE74      -0.0202
     67  CD1      -24.7510   -3.3340  -17.4670 C.ar   74  PHE74      -0.0042
     68  CD2      -22.5080   -2.5710  -17.2290 C.ar   74  PHE74      -0.0042
     69  CE1      -25.2130   -2.1780  -16.8500 C.ar   74  PHE74      -0.0003
     70  CE2      -22.9630   -1.4140  -16.6110 C.ar   74  PHE74      -0.0003
     71  CZ       -24.3150   -1.2210  -16.4240 C.ar   74  PHE74      -0.0000
     72  N        -20.9520   -3.3980  -20.3050 N.am   75  ASN75      -0.1974
     73  CA       -20.2370   -2.2120  -20.7630 C.3    75  ASN75       0.1688
     74  C        -19.8750   -2.2450  -22.2520 C.2    75  ASN75       0.2292
     75  O        -19.3860   -1.2600  -22.8000 O.2    75  ASN75      -0.2864
     76  CB       -19.0020   -1.9270  -19.8940 C.3    75  ASN75       0.1181
     77  CG       -18.0010   -3.0660  -19.8940 C.2    75  ASN75       0.2629
     78  OD1      -17.7810   -3.7220  -20.9170 O.2    75  ASN75      -0.2716
     79  ND2      -17.3840   -3.3090  -18.7360 N.am   75  ASN75      -0.0877
     80  N        -19.8130    8.0200   -8.6770 N.3   117  HIS117     -0.1226
     81  CA       -21.1910    7.6080   -8.4010 C.3   117  HIS117      0.1752
     82  C        -21.2200    6.2010   -7.8160 C.2   117  HIS117      0.2596
     83  O        -20.9130    5.2380   -8.5100 O.2   117  HIS117     -0.2718
     84  CB       -22.0830    7.7120   -9.6540 C.3   117  HIS117      0.0759
     85  CG       -23.5440    7.7840   -9.3360 C.ar  117  HIS117      0.0818
     86  ND1      -24.1580    8.9530   -8.9420 N.ar  117  HIS117     -0.2268
     87  CD2      -24.5010    6.8280   -9.3090 C.ar  117  HIS117      0.1154
     88  CE1      -25.4400    8.7210   -8.7160 C.ar  117  HIS117      0.1986
     89  NE2      -25.6710    7.4360   -8.9210 N.ar  117  HIS117     -0.2212
     90  N        -21.6410    6.1080   -6.5540 N.am  118  ASN118     -0.1974
     91  CA       -21.3770    4.9610   -5.6810 C.3   118  ASN118      0.1688
     92  C        -19.8700    4.8140   -5.5670 C.2   118  ASN118      0.2292
     93  O        -19.2850    3.8010   -5.9560 O.2   118  ASN118     -0.2864
     94  CB       -22.0650    3.6910   -6.1870 C.3   118  ASN118      0.1181
     95  CG       -23.5710    3.8320   -6.2070 C.2   118  ASN118      0.2629
     96  OD1      -24.2170    3.6370   -7.2420 O.2   118  ASN118     -0.2716
     97  ND2      -24.1400    4.2050   -5.0640 N.am  118  ASN118     -0.0877
     98  N        -17.0480    1.9750   -5.2680 N.3   121  PHE121     -0.1227
     99  CA       -16.7360    1.0970   -6.3980 C.3   121  PHE121      0.1736
    100  C        -15.4710    1.5400   -7.1410 C.2   121  PHE121      0.2595
    101  O        -14.4830    0.8040   -7.2220 O.2   121  PHE121     -0.2718
    102  CB       -17.9230    1.0190   -7.3560 C.3   121  PHE121      0.0547
    103  CG       -17.7300    0.0470   -8.4880 C.ar  121  PHE121     -0.0202
    104  CD1      -17.2670    0.4840   -9.7190 C.ar  121  PHE121     -0.0042
    105  CD2      -18.0160   -1.3010   -8.3230 C.ar  121  PHE121     -0.0042
    106  CE1      -17.0880   -0.4040  -10.7730 C.ar  121  PHE121     -0.0003
    107  CE2      -17.8410   -2.2000   -9.3780 C.ar  121  PHE121     -0.0003
    108  CZ       -17.3770   -1.7520  -10.5970 C.ar  121  PHE121     -0.0000
    109  N        -15.5020    2.7550   -7.6730 N.am  122  ASP122     -0.1974
    110  CA       -14.3840    3.2770   -8.4480 C.3   122  ASP122      0.1709
    111  C        -13.1340    3.4660   -7.5950 C.2   122  ASP122      0.2293
    112  O        -12.0090    3.2510   -8.0580 O.2   122  ASP122     -0.2864
    113  CB       -14.7900    4.6040   -9.0870 C.3   122  ASP122      0.1436
    114  CG       -16.0950    4.4950   -9.8350 C.2   122  ASP122      0.3671
    115  OD1      -16.0960    4.5460  -11.0860 O.co2 122  ASP122     -0.2456
    116  OD2      -17.1280    4.3160   -9.1740 O.co2 122  ASP122     -0.2456
    117  N        -30.9990    8.6940   -6.2180 N.3   159  THR159     -0.1203
    118  CA       -29.6700    8.0970   -6.0700 C.3   159  THR159      0.1994
    119  C        -29.1550    7.4520   -7.3600 C.2   159  THR159      0.2618
    120  O        -27.9510    7.2300   -7.5050 O.2   159  THR159     -0.2717
    121  CB       -29.6160    7.0490   -4.9140 C.3   159  THR159      0.1784
    122  OG1      -30.5760    6.0130   -5.1600 O.3   159  THR159     -0.2211
    123  CG2      -29.9300    7.7040   -3.5810 C.3   159  THR159      0.0376
    124  N        -30.0600    7.1330   -8.2820 N.am  160  VAL160     -0.1965
    125  CA       -29.6530    6.5300   -9.5570 C.3   160  VAL160      0.1727
    126  C        -29.0980    7.6130  -10.4870 C.2   160  VAL160      0.2616
    127  O        -29.7470    8.6420  -10.6940 O.2   160  VAL160     -0.2715
    128  CB       -30.8310    5.8200  -10.2540 C.3   160  VAL160      0.0290
    129  CG1      -30.4110    5.3000  -11.6230 C.3   160  VAL160      0.0023
    130  CG2      -31.3800    4.6940   -9.3820 C.3   160  VAL160      0.0023
    131  N        -27.9110    7.3790  -11.0510 N.am  161  LEU161     -0.1963
    132  CA       -27.2310    8.4070  -11.8570 C.3   161  LEU161      0.1728
    133  C        -28.1090    8.9950  -12.9680 C.2   161  LEU161      0.2616
    134  O        -28.2620   10.2080  -13.0650 O.2   161  LEU161     -0.2715
    135  CB       -25.9380    7.8670  -12.4620 C.3   161  LEU161      0.0311
    136  CG       -25.1180    8.9170  -13.2220 C.3   161  LEU161      0.0022
    137  CD1      -24.7750   10.1000  -12.3120 C.3   161  LEU161      0.0001
    138  CD2      -23.8630    8.3080  -13.8180 C.3   161  LEU161      0.0001
    139  N        -28.6850    8.1420  -13.8100 N.am  162  SER162     -0.1950
    140  CA       -29.4890    8.6440  -14.9250 C.3   162  SER162      0.1924
    141  C        -30.6460    9.5170  -14.4290 C.2   162  SER162      0.2314
    142  O        -30.9100   10.5880  -14.9800 O.2   162  SER162     -0.2863
    143  CB       -30.0190    7.4940  -15.7870 C.3   162  SER162      0.2116
    144  OG       -30.9270    6.6820  -15.0610 O.3   162  SER162     -0.2180
    145  N        -22.3040    2.9560  -21.6710 N.3   178  HIS178     -0.1241
    146  CA       -21.3910    3.3430  -20.6010 C.3   178  HIS178      0.1621
    147  C        -19.9540    3.4790  -21.0910 C.2   178  HIS178      0.2264
    148  O        -19.1260    2.6020  -20.8330 O.2   178  HIS178     -0.2867
    149  CB       -21.3950    2.2640  -19.5150 C.3   178  HIS178      0.0745
    150  CG       -22.7620    1.8900  -19.0430 C.ar  178  HIS178      0.0817
    151  ND1      -23.1970    2.1260  -17.7560 N.ar  178  HIS178     -0.2268
    152  CD2      -23.7990    1.3070  -19.6910 C.ar  178  HIS178      0.1154
    153  CE1      -24.4440    1.7060  -17.6320 C.ar  178  HIS178      0.1986
    154  NE2      -24.8340    1.2070  -18.7920 N.ar  178  HIS178     -0.2212
    155  N        -19.9900    8.8010  -18.8140 N.3   183  ASP183     -0.1239
    156  CA       -20.4200    8.7130  -17.4240 C.3   183  ASP183      0.1674
    157  C        -19.6220    9.6720  -16.5520 C.2   183  ASP183      0.2266
    158  O        -20.1730   10.2830  -15.6370 O.2   183  ASP183     -0.2867
    159  CB       -20.3090    7.2850  -16.8930 C.3   183  ASP183      0.1410
    160  CG       -21.3530    6.3490  -17.4930 C.2   183  ASP183      0.3668
    161  OD1      -22.2750    6.8070  -18.1990 O.co2 183  ASP183     -0.2456
    162  OD2      -21.2610    5.1430  -17.2370 O.co2 183  ASP183     -0.2456
@<TRIPOS>BOND
     1    75    74    2
     2    74    73    1
     3   145   146    1
     4   147   148    2
     5   147   146    1
     6    78    77    2
     7    64    63    2
     8    73    72    1
     9    73    76    1
    10   146   149    1
    11    61    62    1
    12    63    72   am
    13    63    62    1
    14    76    77    1
    15    77    79   am
    16    62    65    1
    17   152   150   ar
    18   152   154   ar
    19   149   150    1
    20   150   151   ar
    21    59    58    2
    22   155   156    1
    23   154   153   ar
    24    58    57    1
    25    47    48    1
    26    21    20    1
    27    21    22    1
    28    65    66    1
    29    50    49    2
    30   161   160   ar
    31    48    49    1
    32    48    51    1
    33    20    17    1
    34    49    56   am
    35   151   153   ar
    36    66    67   ar
    37    66    68   ar
    38    22    24   ar
    39    22    23   ar
    40   160   162   ar
    41   160   159    1
    42    67    69   ar
    43   156   159    1
    44   156   157    1
    45    56    57    1
    46    57    60    1
    47    68    70   ar
    48    54    53   ar
    49    69    71   ar
    50    51    52    1
    51    28    27    2
    52    70    71   ar
    53   157   158    2
    54    17    18    1
    55    17    16    1
    56    19    18    2
    57    18    25   am
    58    53    52    1
    59    53    55   ar
    60    27    26    1
    61    16    11   am
    62     8     6   ar
    63    25    26    1
    64   143   144    1
    65   143   140    1
    66    26    29    1
    67   142   141    2
    68     4     3    2
    69     6     5    1
    70     6     7   ar
    71   140   141    1
    72   140   139    1
    73    11    12    2
    74    11    10    1
    75     5     2    1
    76    10     9    1
    77    10    13    1
    78     3     9   am
    79     3     2    1
    80    32    33    1
    81    29    30    1
    82    29    31    1
    83   138   136    1
    84   139   133   am
    85     2     1    1
    86   136   135    1
    87   136   137    1
    88    13    14    1
    89    13    15    1
    90   134   133    2
    91   133   132    1
    92    33    34    1
    93   135   132    1
    94   132   131    1
    95    35    34    2
    96    34    36   am
    97   129   128    1
    98    46    45   ar
    99    46    44   ar
   100   115   114   ar
   101   131   126   am
   102    45    43   ar
   103   106   108   ar
   104   106   104   ar
   105    44    42   ar
   106   127   126    2
   107    36    37    1
   108   108   107   ar
   109   126   125    1
   110   128   125    1
   111   128   130    1
   112    43    41   ar
   113    42    41   ar
   114   114   116   ar
   115   114   113    1
   116   104   103   ar
   117    84    85    1
   118    84    81    1
   119    41    40    1
   120   125   124    1
   121    37    40    1
   122    37    38    1
   123   107   105   ar
   124    85    87   ar
   125    85    86   ar
   126    87    89   ar
   127   113   110    1
   128    86    88   ar
   129    89    88   ar
   130    80    81    1
   131    83    82    2
   132   103   105   ar
   133   103   102    1
   134   110   109    1
   135   110   111    1
   136    81    82    1
   137    38    39    2
   138   124   119   am
   139   112   111    2
   140    82    90   am
   141   109   100   am
   142   120   119    2
   143   119   118    1
   144   102    99    1
   145    96    95    2
   146   101   100    2
   147   100    99    1
   148    90    91    1
   149    99    98    1
   150   117   118    1
   151    95    94    1
   152    95    97   am
   153    94    91    1
   154   118   121    1
   155    93    92    2
   156    91    92    1
   157   122   121    1
   158   121   123    1
