@<TRIPOS>MOLECULE
tmp/3v9zB00.pdb
 176 172 0 0 0
SMALL
GASTEIGER

@<TRIPOS>ATOM
      1  N        -15.2980    4.3540   -6.9630 N.3    17  ASP17      -0.1225
      2  CA       -16.4400    3.7070   -6.3290 C.3    17  ASP17       0.1805
      3  C        -16.0770    3.1650   -4.9560 C.2    17  ASP17       0.2598
      4  O        -14.9460    2.7440   -4.7210 O.2    17  ASP17      -0.2718
      5  CB       -17.0290    2.5760   -7.1760 C.3    17  ASP17       0.1424
      6  CG       -18.3900    2.1390   -6.6660 C.2    17  ASP17       0.3668
      7  OD1      -19.2600    3.0120   -6.5480 O.co2  17  ASP17      -0.2456
      8  OD2      -18.5830    0.9490   -6.3380 O.co2  17  ASP17      -0.2456
      9  N        -17.0550    3.1780   -4.0540 N.am   18  VAL18      -0.1966
     10  CA       -16.8410    2.6920   -2.7000 C.3    18  VAL18       0.1727
     11  C        -17.8630    1.6210   -2.3380 C.2    18  VAL18       0.2616
     12  O        -18.9770    1.6130   -2.8640 O.2    18  VAL18      -0.2715
     13  CB       -16.9410    3.8660   -1.6980 C.3    18  VAL18       0.0290
     14  CG1      -17.1820    3.3610   -0.3100 C.3    18  VAL18       0.0023
     15  CG2      -15.7070    4.7540   -1.7780 C.3    18  VAL18       0.0023
     16  N        -17.4700    0.6770   -1.4770 N.am   19  GLU19      -0.1963
     17  CA       -18.4350   -0.1580   -0.7890 C.3    19  GLU19       0.1733
     18  C        -18.3420    0.1870    0.6940 C.2    19  GLU19       0.2617
     19  O        -17.2580    0.4440    1.2210 O.2    19  GLU19      -0.2715
     20  CB       -18.1910   -1.6610   -1.0110 C.3    19  GLU19       0.0429
     21  CG       -18.2410   -2.1090   -2.4710 C.3    19  GLU19       0.1163
     22  CD       -19.5940   -1.9080   -3.1490 C.2    19  GLU19       0.3649
     23  OE1      -19.5980   -1.7820   -4.3920 O.co2  19  GLU19      -0.2457
     24  OE2      -20.6520   -1.8960   -2.4700 O.co2  19  GLU19      -0.2457
     25  N        -19.4840    0.2030    1.3620 N.am   20  THR20      -0.1951
     26  CA       -19.5330    0.7130    2.7340 C.3    20  THR20       0.1897
     27  C        -20.3520   -0.1940    3.6420 C.2    20  THR20       0.2313
     28  O        -21.0110   -1.1170    3.1730 O.2    20  THR20      -0.2863
     29  CB       -20.2130    2.0790    2.7720 C.3    20  THR20       0.1794
     30  OG1      -21.5890    1.9240    2.4070 O.3    20  THR20      -0.2208
     31  CG2      -19.5420    3.0250    1.8010 C.3    20  THR20       0.0378
     32  N        -22.8450    1.0490    5.4730 N.3    22  GLY22      -0.1210
     33  CA       -24.0440    1.8080    5.7850 C.3    22  GLY22       0.1956
     34  C        -24.1660    3.0600    4.9490 C.2    22  GLY22       0.2611
     35  O        -23.3800    3.2760    4.0210 O.2    22  GLY22      -0.2717
     36  N        -25.1490    3.8930    5.2780 N.am   23  PHE23      -0.1976
     37  CA       -25.4480    5.0610    4.4600 C.3    23  PHE23       0.1639
     38  C        -24.8010    6.3570    4.9590 C.2    23  PHE23       0.2290
     39  O        -24.8470    7.3730    4.2730 O.2    23  PHE23      -0.2864
     40  CB       -26.9590    5.2500    4.3460 C.3    23  PHE23       0.0560
     41  CG       -27.6490    4.1890    3.5370 C.ar   23  PHE23      -0.0200
     42  CD1      -27.4230    4.0820    2.1700 C.ar   23  PHE23      -0.0042
     43  CD2      -28.5430    3.3150    4.1370 C.ar   23  PHE23      -0.0042
     44  CE1      -28.0650    3.1100    1.4210 C.ar   23  PHE23      -0.0003
     45  CE2      -29.2010    2.3440    3.3860 C.ar   23  PHE23      -0.0003
     46  CZ       -28.9570    2.2430    2.0320 C.ar   23  PHE23      -0.0000
     47  N        -27.6340   -4.7440    7.6480 N.3    67  GLU67      -0.1231
     48  CA       -28.3170   -4.6930    6.3520 C.3    67  GLU67       0.1699
     49  C        -27.3470   -4.3250    5.2320 C.2    67  GLU67       0.2592
     50  O        -27.4660   -4.8160    4.1080 O.2    67  GLU67      -0.2718
     51  CB       -29.4660   -3.6800    6.3790 C.3    67  GLU67       0.0402
     52  CG       -30.3780   -3.7350    5.1490 C.3    67  GLU67       0.1161
     53  CD       -29.8330   -2.9720    3.9480 C.2    67  GLU67       0.3649
     54  OE1      -29.1490   -1.9480    4.1430 O.co2  67  GLU67      -0.2457
     55  OE2      -30.1040   -3.3920    2.8000 O.co2  67  GLU67      -0.2457
     56  N        -26.3930   -3.4550    5.5450 N.am   68  ALA68      -0.1980
     57  CA       -25.3610   -3.0810    4.5690 C.3    68  ALA68       0.1597
     58  C        -24.4570   -4.2630    4.2000 C.2    68  ALA68       0.2287
     59  O        -24.1460   -4.4820    3.0320 O.2    68  ALA68      -0.2864
     60  CB       -24.5270   -1.9220    5.0950 C.3    68  ALA68       0.0319
     61  N        -26.3240   -6.6380    2.0700 N.3    71  PHE71      -0.1227
     62  CA       -26.4600   -6.1380    0.7040 C.3    71  PHE71       0.1736
     63  C        -25.2090   -6.3950   -0.1260 C.2    71  PHE71       0.2595
     64  O        -25.2890   -6.9250   -1.2340 O.2    71  PHE71      -0.2718
     65  CB       -26.7860   -4.6420    0.6970 C.3    71  PHE71       0.0547
     66  CG       -26.7370   -4.0170   -0.6700 C.ar   71  PHE71      -0.0202
     67  CD1      -27.8260   -4.1040   -1.5300 C.ar   71  PHE71      -0.0042
     68  CD2      -25.6020   -3.3560   -1.1000 C.ar   71  PHE71      -0.0042
     69  CE1      -27.7810   -3.5370   -2.7930 C.ar   71  PHE71      -0.0003
     70  CE2      -25.5480   -2.7900   -2.3660 C.ar   71  PHE71      -0.0003
     71  CZ       -26.6440   -2.8740   -3.2090 C.ar   71  PHE71      -0.0000
     72  N        -24.0520   -6.0100    0.3980 N.am   72  ASN72      -0.1974
     73  CA       -22.8240   -6.0930   -0.3880 C.3    72  ASN72       0.1688
     74  C        -22.0280   -7.3840   -0.2090 C.2    72  ASN72       0.2292
     75  O        -21.0600   -7.6290   -0.9380 O.2    72  ASN72      -0.2864
     76  CB       -21.9390   -4.8400   -0.2210 C.3    72  ASN72       0.1181
     77  CG       -21.4290   -4.6460    1.1990 C.2    72  ASN72       0.2629
     78  OD1      -21.2170   -5.6060    1.9400 O.2    72  ASN72      -0.2716
     79  ND2      -21.1970   -3.3850    1.5730 N.am   72  ASN72      -0.0877
     80  N        -21.0450    7.2690   -9.7190 N.3   114  HIS114     -0.1226
     81  CA       -22.4670    7.0650  -10.0040 C.3   114  HIS114      0.1752
     82  C        -23.3040    7.3860   -8.7720 C.2   114  HIS114      0.2596
     83  O        -23.2140    6.6900   -7.7620 O.2   114  HIS114     -0.2718
     84  CB       -22.7400    5.6340  -10.4750 C.3   114  HIS114      0.0759
     85  CG       -23.9940    5.5160  -11.2770 C.ar  114  HIS114      0.0818
     86  ND1      -24.0440    5.8140  -12.6220 N.ar  114  HIS114     -0.2268
     87  CD2      -25.2550    5.1830  -10.9150 C.ar  114  HIS114      0.1154
     88  CE1      -25.2800    5.6530  -13.0580 C.ar  114  HIS114      0.1986
     89  NE2      -26.0330    5.2720  -12.0420 N.ar  114  HIS114     -0.2212
     90  N        -24.1240    8.4340   -8.8700 N.am  115  ASN115     -0.1974
     91  CA       -24.6940    9.0860   -7.6890 C.3   115  ASN115      0.1688
     92  C        -23.5460    9.5850   -6.8050 C.2   115  ASN115      0.2292
     93  O        -23.3950    9.2080   -5.6310 O.2   115  ASN115     -0.2864
     94  CB       -25.6790    8.1650   -6.9510 C.3   115  ASN115      0.1181
     95  CG       -26.8610    7.7520   -7.8280 C.2   115  ASN115      0.2629
     96  OD1      -27.1420    6.5580   -8.0030 O.2   115  ASN115     -0.2716
     97  ND2      -27.5550    8.7360   -8.3850 N.am  115  ASN115     -0.0877
     98  N        -22.4900   10.3510   -2.8110 N.3   118  PHE118     -0.1227
     99  CA       -22.3000    9.2380   -1.8840 C.3   118  PHE118      0.1736
    100  C        -20.8230    8.8780   -1.7880 C.2   118  PHE118      0.2595
    101  O        -20.2320    8.9250   -0.7160 O.2   118  PHE118     -0.2718
    102  CB       -23.1220    8.0360   -2.3460 C.3   118  PHE118      0.0547
    103  CG       -23.1330    6.8850   -1.3720 C.ar  118  PHE118     -0.0202
    104  CD1      -22.2600    5.8260   -1.5250 C.ar  118  PHE118     -0.0042
    105  CD2      -24.0350    6.8570   -0.3170 C.ar  118  PHE118     -0.0042
    106  CE1      -22.2790    4.7580   -0.6350 C.ar  118  PHE118     -0.0003
    107  CE2      -24.0590    5.7950    0.5690 C.ar  118  PHE118     -0.0003
    108  CZ       -23.1760    4.7490    0.4130 C.ar  118  PHE118     -0.0000
    109  N        -20.2230    8.5290   -2.9200 N.am  119  ASP119     -0.1974
    110  CA       -18.8050    8.1830   -2.9430 C.3   119  ASP119      0.1709
    111  C        -17.9140    9.3330   -2.5010 C.2   119  ASP119      0.2293
    112  O        -16.9170    9.1220   -1.8090 O.2   119  ASP119     -0.2864
    113  CB       -18.4180    7.7030   -4.3360 C.3   119  ASP119      0.1436
    114  CG       -19.3230    6.6110   -4.8190 C.2   119  ASP119      0.3671
    115  OD1      -18.9370    5.4270   -4.7080 O.co2 119  ASP119     -0.2456
    116  OD2      -20.4440    6.9380   -5.2720 O.co2 119  ASP119     -0.2456
    117  N        -30.8310    6.2340  -15.6580 N.3   156  THR156     -0.1203
    118  CA       -30.0440    6.6660  -14.4890 C.3   156  THR156      0.1994
    119  C        -29.4550    5.5390  -13.6390 C.2   156  THR156      0.2618
    120  O        -28.5550    5.7710  -12.8300 O.2   156  THR156     -0.2717
    121  CB       -30.8340    7.6070  -13.5610 C.3   156  THR156      0.1784
    122  OG1      -31.9950    6.9340  -13.0530 O.3   156  THR156     -0.2211
    123  CG2      -31.2350    8.8840  -14.3120 C.3   156  THR156      0.0376
    124  N        -29.9820    4.3320  -13.8030 N.am  157  VAL157     -0.1965
    125  CA       -29.4690    3.1770  -13.0890 C.3   157  VAL157      0.1727
    126  C        -28.2040    2.6740  -13.7810 C.2   157  VAL157      0.2616
    127  O        -28.1740    2.5290  -14.9980 O.2   157  VAL157     -0.2715
    128  CB       -30.5250    2.0550  -13.0530 C.3   157  VAL157      0.0290
    129  CG1      -29.9550    0.7970  -12.4120 C.3   157  VAL157      0.0023
    130  CG2      -31.7600    2.5310  -12.3020 C.3   157  VAL157      0.0023
    131  N        -27.1540    2.4200  -13.0070 N.am  158  LEU158     -0.1963
    132  CA       -25.8700    2.0520  -13.6030 C.3   158  LEU158      0.1728
    133  C        -25.9780    0.8500  -14.5500 C.2   158  LEU158      0.2617
    134  O        -25.5680    0.9270  -15.7140 O.2   158  LEU158     -0.2715
    135  CB       -24.8240    1.7930  -12.5230 C.3   158  LEU158      0.0311
    136  CG       -23.4300    1.3760  -13.0090 C.3   158  LEU158      0.0022
    137  CD1      -22.8100    2.4470  -13.8870 C.3   158  LEU158      0.0001
    138  CD2      -22.5250    1.0520  -11.8250 C.3   158  LEU158      0.0001
    139  N        -26.5280   -0.2590  -14.0610 N.am  159  SER159     -0.1936
    140  CA       -26.6420   -1.4460  -14.9140 C.3   159  SER159      0.2055
    141  C        -27.3970   -1.1310  -16.2140 C.2   159  SER159      0.2642
    142  O        -26.9870   -1.5500  -17.2970 O.2   159  SER159     -0.2714
    143  CB       -27.3000   -2.6130  -14.1650 C.3   159  SER159      0.2130
    144  OG       -28.6350   -2.3090  -13.7970 O.3   159  SER159     -0.2179
    145  N        -28.4960   -0.3910  -16.1050 N.am  160  LYS160     -0.1977
    146  CA       -29.3260   -0.0890  -17.2690 C.3   160  LYS160      0.1596
    147  C        -28.6370    0.8860  -18.2160 C.2   160  LYS160      0.2287
    148  O        -28.7080    0.7420  -19.4330 O.2   160  LYS160     -0.2864
    149  CB       -30.6940    0.4520  -16.8340 C.3   160  LYS160      0.0298
    150  CG       -31.6150   -0.6210  -16.2750 C.3   160  LYS160      0.0038
    151  CD       -32.7820   -0.0220  -15.5080 C.3   160  LYS160      0.0206
    152  CE       -33.6720   -1.1150  -14.9280 C.3   160  LYS160      0.1093
    153  NZ       -34.7510   -0.5550  -14.0680 N.3   160  LYS160     -0.1314
    154  N        -21.5330   -6.8960   -9.1810 N.3   174  ALA174     -0.1231
    155  CA       -22.0440   -5.5440   -8.9260 C.3   174  ALA174      0.1694
    156  C        -21.7490   -4.9890   -7.5380 C.2   174  ALA174      0.2592
    157  O        -21.9320   -3.7920   -7.3030 O.2   174  ALA174     -0.2718
    158  CB       -23.5470   -5.4890   -9.1930 C.3   174  ALA174      0.0304
    159  N        -21.2990   -5.8450   -6.6210 N.am  175  HIS175     -0.1976
    160  CA       -20.9670   -5.3970   -5.2650 C.3   175  HIS175      0.1656
    161  C        -19.4690   -5.2370   -5.0700 C.2   175  HIS175      0.2291
    162  O        -19.0000   -5.0180   -3.9590 O.2   175  HIS175     -0.2864
    163  CB       -21.5230   -6.3610   -4.2150 C.3   175  HIS175      0.0771
    164  CG       -23.0060   -6.5400   -4.2870 C.ar  175  HIS175      0.0820
    165  ND1      -23.8740   -5.4870   -4.4860 N.ar  175  HIS175     -0.2267
    166  CD2      -23.7740   -7.6500   -4.1910 C.ar  175  HIS175      0.1154
    167  CE1      -25.1150   -5.9440   -4.5100 C.ar  175  HIS175      0.1986
    168  NE2      -25.0820   -7.2520   -4.3360 N.ar  175  HIS175     -0.2212
    169  N        -17.4840   -2.0520  -10.4130 N.3   180  ASP180     -0.1239
    170  CA       -18.3360   -0.8880  -10.6300 C.3   180  ASP180      0.1674
    171  C        -17.5430    0.3090  -11.1360 C.2   180  ASP180      0.2266
    172  O        -18.0340    1.0760  -11.9640 O.2   180  ASP180     -0.2867
    173  CB       -19.0940   -0.5140   -9.3580 C.3   180  ASP180      0.1410
    174  CG       -20.1710   -1.5120   -9.0120 C.2   180  ASP180      0.3668
    175  OD1      -20.5590   -2.3010   -9.8970 O.co2 180  ASP180     -0.2456
    176  OD2      -20.6330   -1.4950   -7.8550 O.co2 180  ASP180     -0.2456
@<TRIPOS>BOND
     1   148   147    2
     2   147   146    1
     3   142   141    2
     4   146   149    1
     5   146   145    1
     6   149   150    1
     7   150   151    1
     8   141   145   am
     9   141   140    1
    10   134   133    2
    11   117   118    1
    12   151   152    1
    13   127   126    2
    14   152   153    1
    15   140   143    1
    16   140   139    1
    17   133   139   am
    18   133   132    1
    19   118   119    1
    20   118   121    1
    21   123   121    1
    22   143   144    1
    23   137   136    1
    24   124   119   am
    25   124   125    1
    26   126   125    1
    27   126   131   am
    28   119   120    2
    29   132   131    1
    30   132   135    1
    31   121   122    1
    32   125   128    1
    33    88    86   ar
    34    88    89   ar
    35   128   129    1
    36   128   130    1
    37   136   135    1
    38   136   138    1
    39    86    85   ar
    40    89    87   ar
    41   172   171    2
    42    85    87   ar
    43    85    84    1
    44   171   170    1
    45   170   169    1
    46   170   173    1
    47    84    81    1
    48    81    80    1
    49    81    82    1
    50   175   174   ar
    51   173   174    1
    52   158   155    1
    53   154   155    1
    54   174   176   ar
    55   155   156    1
    56    90    82   am
    57    90    91    1
    58    82    83    2
    59    97    95   am
    60    96    95    2
    61    95    94    1
    62    91    94    1
    63    91    92    1
    64   156   157    2
    65   156   159   am
    66     5     6    1
    67     5     2    1
    68     1     2    1
    69    92    93    2
    70     6     7   ar
    71     6     8   ar
    72   159   160    1
    73     2     3    1
    74   116   114   ar
    75   160   161    1
    76   160   163    1
    77   161   162    2
    78     3     4    2
    79     3     9   am
    80   114   115   ar
    81   114   113    1
    82   167   165   ar
    83   167   168   ar
    84   165   164   ar
    85    23    22   ar
    86   168   166   ar
    87   113   110    1
    88   164   163    1
    89   164   166   ar
    90     9    10    1
    91    71    69   ar
    92    71    70   ar
    93    22    21    1
    94    22    24   ar
    95   110   109    1
    96   110   111    1
    97   109   100   am
    98    12    11    2
    99    98    99    1
   100    69    67   ar
   101    10    11    1
   102    10    13    1
   103   111   112    2
   104    21    20    1
   105    70    68   ar
   106   102    99    1
   107   102   103    1
   108    11    16   am
   109    99   100    1
   110   100   101    2
   111    15    13    1
   112    13    14    1
   113    67    66   ar
   114   104   103   ar
   115   104   106   ar
   116    16    17    1
   117   103   105   ar
   118    64    63    2
   119    68    66   ar
   120    20    17    1
   121    75    74    2
   122    17    18    1
   123    66    65    1
   124   106   108   ar
   125    73    76    1
   126    73    74    1
   127    73    72    1
   128   105   107   ar
   129    76    77    1
   130    63    72   am
   131    63    62    1
   132   108   107   ar
   133    18    19    2
   134    18    25   am
   135    65    62    1
   136    62    61    1
   137    77    79   am
   138    77    78    2
   139    25    26    1
   140    44    46   ar
   141    44    42   ar
   142    31    29    1
   143    46    45   ar
   144    42    41   ar
   145    30    29    1
   146    26    29    1
   147    26    27    1
   148    55    53   ar
   149    59    58    2
   150    28    27    2
   151    45    43   ar
   152    41    43   ar
   153    41    40    1
   154    53    54   ar
   155    53    52    1
   156    35    34    2
   157    50    49    2
   158    58    57    1
   159    39    38    2
   160    40    37    1
   161    37    38    1
   162    37    36    1
   163    57    60    1
   164    57    56    1
   165    34    36   am
   166    34    33    1
   167    52    51    1
   168    49    56   am
   169    49    48    1
   170    32    33    1
   171    48    51    1
   172    48    47    1
