@<TRIPOS>MOLECULE
tmp/3va0B00.pdb
 120 114 0 0 0
SMALL
GASTEIGER

@<TRIPOS>ATOM
      1  N         31.2090   25.4350   19.3310 N.3    17  VAL17      -0.1231
      2  CA        31.3500   25.0990   20.7360 C.3    17  VAL17       0.1692
      3  C         30.2800   24.1100   21.1900 C.2    17  VAL17       0.2592
      4  O         29.1140   24.2220   20.8110 O.2    17  VAL17      -0.2718
      5  CB        31.2810   26.3790   21.5950 C.3    17  VAL17       0.0266
      6  CG1       30.2820   26.2230   22.7310 C.3    17  VAL17       0.0020
      7  CG2       32.6650   26.7610   22.1080 C.3    17  VAL17       0.0020
      8  N         30.6970   23.1230   21.9780 N.am   18  GLU18      -0.1966
      9  CA        29.7680   22.2360   22.6650 C.3    18  GLU18       0.1733
     10  C         29.8830   22.5190   24.1580 C.2    18  GLU18       0.2617
     11  O         30.9750   22.7730   24.6650 O.2    18  GLU18      -0.2715
     12  CB        30.0900   20.7690   22.3730 C.3    18  GLU18       0.0429
     13  CG        30.0220   20.3860   20.8990 C.3    18  GLU18       0.1163
     14  CD        28.6220   20.4990   20.3180 C.2    18  GLU18       0.3649
     15  OE1       28.4980   20.5330   19.0740 O.co2  18  GLU18      -0.2457
     16  OE2       27.6480   20.5500   21.0990 O.co2  18  GLU18      -0.2457
     17  N         28.7610   22.4790   24.8650 N.am   19  THR19      -0.1951
     18  CA        28.7530   22.9130   26.2550 C.3    19  THR19       0.1897
     19  C         27.9410   22.0000   27.1580 C.2    19  THR19       0.2313
     20  O         27.3160   21.0410   26.6980 O.2    19  THR19      -0.2863
     21  CB        28.1760   24.3350   26.3860 C.3    19  THR19       0.1794
     22  OG1       26.7490   24.2860   26.2640 O.3    19  THR19      -0.2208
     23  CG2       28.7430   25.2460   25.3080 C.3    19  THR19       0.0378
     24  N         25.5250   23.3500   29.0470 N.3    21  GLY21      -0.1210
     25  CA        24.4120   24.2200   29.3830 C.3    21  GLY21       0.1956
     26  C         24.2730   25.4190   28.4630 C.2    21  GLY21       0.2611
     27  O         25.0430   25.5920   27.5180 O.2    21  GLY21      -0.2717
     28  N         23.2820   26.2560   28.7500 N.am   22  PHE22      -0.1976
     29  CA        22.9980   27.4330   27.9340 C.3    22  PHE22       0.1639
     30  C         23.7200   28.6840   28.4350 C.2    22  PHE22       0.2290
     31  O         23.8690   29.6600   27.7010 O.2    22  PHE22      -0.2864
     32  CB        21.4950   27.6990   27.9120 C.3    22  PHE22       0.0560
     33  CG        20.6990   26.6330   27.2200 C.ar   22  PHE22      -0.0200
     34  CD1       21.1300   26.0950   26.0190 C.ar   22  PHE22      -0.0042
     35  CD2       19.5170   26.1690   27.7710 C.ar   22  PHE22      -0.0042
     36  CE1       20.3930   25.1150   25.3790 C.ar   22  PHE22      -0.0003
     37  CE2       18.7770   25.1940   27.1370 C.ar   22  PHE22      -0.0003
     38  CZ        19.2160   24.6650   25.9390 C.ar   22  PHE22      -0.0000
     39  N         24.6200   20.8570   33.2250 N.3    64  GLN64      -0.1245
     40  CA        23.2120   20.5170   33.0660 C.3    64  GLN64       0.1566
     41  C         23.0410   19.1400   32.4420 C.2    64  GLN64       0.2260
     42  O         23.5010   18.8970   31.3270 O.2    64  GLN64      -0.2867
     43  CB        22.4850   21.5720   32.2330 C.3    64  GLN64       0.0367
     44  CG        22.2340   22.8590   32.9870 C.3    64  GLN64       0.0905
     45  CD        21.5310   22.6190   34.3080 C.2    64  GLN64       0.2608
     46  OE1       22.0460   22.9690   35.3690 O.2    64  GLN64      -0.2717
     47  NE2       20.3500   22.0150   34.2490 N.am   64  GLN64      -0.0878
     48  N         20.5440   17.6450   31.0440 N.3    66  GLU66      -0.1231
     49  CA        19.9140   17.6580   29.7260 C.3    66  GLU66       0.1699
     50  C         20.9040   18.0460   28.6340 C.2    66  GLU66       0.2592
     51  O         20.8050   17.5740   27.5020 O.2    66  GLU66      -0.2718
     52  CB        18.6970   18.5900   29.7010 C.3    66  GLU66       0.0402
     53  CG        18.7430   19.7160   30.7150 C.3    66  GLU66       0.1161
     54  CD        18.0560   19.3520   32.0160 C.2    66  GLU66       0.3649
     55  OE1       18.6940   19.4740   33.0830 O.co2  66  GLU66      -0.2457
     56  OE2       16.8740   18.9500   31.9710 O.co2  66  GLU66      -0.2457
     57  N         21.8550   18.9100   28.9780 N.am   67  ALA67      -0.1980
     58  CA        22.8980   19.3120   28.0440 C.3    67  ALA67       0.1597
     59  C         23.7460   18.1040   27.6650 C.2    67  ALA67       0.2287
     60  O         23.9470   17.8220   26.4860 O.2    67  ALA67      -0.2864
     61  CB        23.7620   20.4010   28.6520 C.3    67  ALA67       0.0319
     62  N         21.9030   15.5820   25.6800 N.3    70  PHE70      -0.1227
     63  CA        21.6890   16.0170   24.3060 C.3    70  PHE70       0.1736
     64  C         22.9150   15.7890   23.4300 C.2    70  PHE70       0.2595
     65  O         22.8300   15.1440   22.3890 O.2    70  PHE70      -0.2718
     66  CB        21.3020   17.4930   24.2640 C.3    70  PHE70       0.0547
     67  CG        21.1460   18.0380   22.8710 C.ar   70  PHE70      -0.0202
     68  CD1       22.2130   18.6400   22.2230 C.ar   70  PHE70      -0.0042
     69  CD2       19.9340   17.9430   22.2050 C.ar   70  PHE70      -0.0042
     70  CE1       22.0730   19.1430   20.9380 C.ar   70  PHE70      -0.0003
     71  CE2       19.7850   18.4450   20.9210 C.ar   70  PHE70      -0.0003
     72  CZ        20.8570   19.0440   20.2860 C.ar   70  PHE70      -0.0000
     73  N         24.0520   16.3320   23.8500 N.am   71  ASN71      -0.1974
     74  CA        25.2690   16.2530   23.0490 C.3    71  ASN71       0.1688
     75  C         26.0460   14.9620   23.2740 C.2    71  ASN71       0.2292
     76  O         27.0040   14.6710   22.5570 O.2    71  ASN71      -0.2864
     77  CB        26.1650   17.4750   23.2830 C.3    71  ASN71       0.1181
     78  CG        26.5960   17.6210   24.7360 C.2    71  ASN71       0.2629
     79  OD1       26.6190   16.6500   25.4940 O.2    71  ASN71      -0.2716
     80  ND2       26.9460   18.8420   25.1270 N.am   71  ASN71      -0.0877
     81  N         24.2670   30.9040   14.7010 N.3   114  ASN114     -0.1240
     82  CA        23.7510   31.5500   15.9030 C.3   114  ASN114      0.1653
     83  C         24.9530   31.9920   16.7270 C.2   114  ASN114      0.2266
     84  O         25.1150   31.6030   17.8850 O.2   114  ASN114     -0.2867
     85  CB        22.8560   30.6030   16.7030 C.3   114  ASN114      0.1155
     86  CG        21.6300   30.1680   15.9270 C.2   114  ASN114      0.2627
     87  OD1       21.3630   28.9760   15.7850 O.2   114  ASN114     -0.2716
     88  ND2       20.8770   31.1360   15.4180 N.am  114  ASN114     -0.0877
     89  N         26.2260   34.3530   18.4930 N.3   116  ASN116     -0.1225
     90  CA        26.2770   34.8990   19.8450 C.3   116  ASN116      0.1785
     91  C         26.4540   33.8250   20.9150 C.2   116  ASN116      0.2597
     92  O         27.1470   34.0400   21.9090 O.2   116  ASN116     -0.2718
     93  CB        25.0490   35.7620   20.1420 C.3   116  ASN116      0.1169
     94  CG        25.0890   36.3680   21.5330 C.2   116  ASN116      0.2627
     95  OD1       24.3380   35.9620   22.4200 O.2   116  ASN116     -0.2716
     96  ND2       25.9790   37.3350   21.7340 N.am  116  ASN116     -0.0877
     97  N         25.8300   32.6700   20.7070 N.am  117  PHE117     -0.1976
     98  CA        25.9570   31.5620   21.6460 C.3   117  PHE117      0.1639
     99  C         27.4140   31.1320   21.7700 C.2   117  PHE117      0.2290
    100  O         27.9430   31.0260   22.8730 O.2   117  PHE117     -0.2864
    101  CB        25.0830   30.3820   21.2130 C.3   117  PHE117      0.0560
    102  CG        25.1630   29.1960   22.1330 C.ar  117  PHE117     -0.0200
    103  CD1       26.0090   28.1340   21.8470 C.ar  117  PHE117     -0.0042
    104  CD2       24.3930   29.1410   23.2850 C.ar  117  PHE117     -0.0042
    105  CE1       26.0850   27.0380   22.6940 C.ar  117  PHE117     -0.0003
    106  CE2       24.4640   28.0490   24.1360 C.ar  117  PHE117     -0.0003
    107  CZ        25.3130   26.9950   23.8400 C.ar  117  PHE117     -0.0000
    108  N         26.5220   15.5990   14.3660 N.3   173  ALA173     -0.1245
    109  CA        26.0120   16.9450   14.6110 C.3   173  ALA173      0.1562
    110  C         26.3550   17.4730   16.0010 C.2   173  ALA173      0.2260
    111  O         26.2750   18.6740   16.2520 O.2   173  ALA173     -0.2867
    112  CB        24.5090   16.9930   14.3800 C.3   173  ALA173      0.0290
    113  N         30.7010   20.3360   13.0990 N.3   179  ASP179     -0.1239
    114  CA        29.8740   21.5210   12.8830 C.3   179  ASP179      0.1674
    115  C         30.6940   22.6870   12.3450 C.2   179  ASP179      0.2266
    116  O         30.2480   23.4120   11.4570 O.2   179  ASP179     -0.2867
    117  CB        29.1650   21.9390   14.1730 C.3   179  ASP179      0.1410
    118  CG        28.1020   20.9490   14.6060 C.2   179  ASP179      0.3668
    119  OD1       27.5430   20.2510   13.7320 O.co2 179  ASP179     -0.2456
    120  OD2       27.8220   20.8770   15.8230 O.co2 179  ASP179     -0.2456
@<TRIPOS>BOND
     1   116   115    2
     2   115   114    1
     3   114   113    1
     4   114   117    1
     5   119   118   ar
     6   117   118    1
     7   108   109    1
     8   112   109    1
     9   118   120   ar
    10   109   110    1
    11    81    82    1
    12    88    86   am
    13    87    86    2
    14    82    85    1
    15    82    83    1
    16    86    85    1
    17   110   111    2
    18    83    84    2
    19    89    90    1
    20    15    14   ar
    21     1     2    1
    22    90    93    1
    23    90    91    1
    24    93    94    1
    25    72    71   ar
    26    72    70   ar
    27    14    13    1
    28    14    16   ar
    29    97    91   am
    30    97    98    1
    31     2     3    1
    32     2     5    1
    33     4     3    2
    34    13    12    1
    35    91    92    2
    36    71    69   ar
    37    70    68   ar
    38     3     8   am
    39   101    98    1
    40   101   102    1
    41    94    96   am
    42    94    95    2
    43     5     7    1
    44     5     6    1
    45    98    99    1
    46    99   100    2
    47   103   102   ar
    48   103   105   ar
    49     8     9    1
    50   102   104   ar
    51    69    67   ar
    52    68    67   ar
    53    12     9    1
    54    65    64    2
    55    76    75    2
    56     9    10    1
    57   105   107   ar
    58    67    66    1
    59    74    75    1
    60    74    77    1
    61    74    73    1
    62    77    78    1
    63   104   106   ar
    64    64    73   am
    65    64    63    1
    66   107   106   ar
    67    10    11    2
    68    10    17   am
    69    66    63    1
    70    63    62    1
    71    78    80   am
    72    78    79    2
    73    17    18    1
    74    23    21    1
    75    36    38   ar
    76    36    34   ar
    77    38    37   ar
    78    34    33   ar
    79    18    21    1
    80    18    19    1
    81    22    21    1
    82    60    59    2
    83    20    19    2
    84    37    35   ar
    85    33    35   ar
    86    33    32    1
    87    51    50    2
    88    27    26    2
    89    59    58    1
    90    31    30    2
    91    32    29    1
    92    29    30    1
    93    29    28    1
    94    58    61    1
    95    58    57    1
    96    26    28   am
    97    26    25    1
    98    50    57   am
    99    50    49    1
   100    24    25    1
   101    52    49    1
   102    52    53    1
   103    49    48    1
   104    53    54    1
   105    42    41    2
   106    56    54   ar
   107    54    55   ar
   108    43    44    1
   109    43    40    1
   110    41    40    1
   111    44    45    1
   112    40    39    1
   113    47    45   am
   114    45    46    2
