@<TRIPOS>MOLECULE
tmp/3va4C00.pdb
 95 92 0 0 0
SMALL
GASTEIGER

@<TRIPOS>ATOM
      1  N         20.0820   26.0220   -3.5350 N.3    31  ARG31      -0.1245
      2  CA        21.0950   25.1800   -3.1940 C.3    31  ARG31       0.1563
      3  C         22.1480   25.0150   -4.2560 C.2    31  ARG31       0.2260
      4  O         23.3180   24.7910   -3.8710 O.2    31  ARG31      -0.2867
      5  CB        20.4130   23.8150   -2.8390 C.3    31  ARG31       0.0307
      6  CG        21.2000   22.9200   -2.0200 C.3    31  ARG31       0.0489
      7  CD        20.4310   21.6210   -1.7760 C.3    31  ARG31       0.2205
      8  NE        20.2470   20.7180   -2.9070 N.pl3  31  ARG31      -0.0865
      9  CZ        19.0870   20.2750   -3.3750 C.cat  31  ARG31       0.5346
     10  NH1       17.9070   20.7800   -2.9680 N.pl3  31  ARG31       0.1354
     11  NH2       19.1310   19.3770   -4.4020 N.pl3  31  ARG31       0.1354
     12  N         21.1390   20.5910    2.3240 N.3    42  PRO42      -0.2102
     13  CA        20.1740   19.7320    1.6730 C.3    42  PRO42       0.1504
     14  C         18.7100   20.1450    1.7920 C.2    42  PRO42       0.2576
     15  O         17.9260   19.7420    0.8900 O.2    42  PRO42      -0.2718
     16  CB        20.3670   18.3850    2.4360 C.3    42  PRO42       0.0282
     17  CG        21.7870   18.4280    2.8810 C.3    42  PRO42       0.0208
     18  CD        22.1720   19.8340    3.0840 C.3    42  PRO42       0.0893
     19  N         18.3690   20.8880    2.8710 N.am   43  SER43      -0.1938
     20  CA        16.9500   21.2560    3.1310 C.3    43  SER43       0.2055
     21  C         16.5840   22.5160    2.2990 C.2    43  SER43       0.2643
     22  O         15.4040   22.8720    2.2300 O.2    43  SER43      -0.2714
     23  CB        16.6790   21.5250    4.6090 C.3    43  SER43       0.2130
     24  OG        17.6050   22.4990    5.0250 O.3    43  SER43      -0.2179
     25  N         17.5560   23.1280    1.6630 N.am   44  ILE44      -0.1963
     26  CA        17.2410   24.3110    0.8000 C.3    44  ILE44       0.1727
     27  C         16.8540   23.8240   -0.5840 C.2    44  ILE44       0.2617
     28  O         17.5560   22.9150   -1.1540 O.2    44  ILE44      -0.2715
     29  CB        18.4750   25.2940    0.6990 C.3    44  ILE44       0.0290
     30  CG1       18.7770   25.7920    2.1350 C.3    44  ILE44       0.0022
     31  CG2       18.2920   26.4180   -0.3780 C.3    44  ILE44       0.0023
     32  CD1       17.8370   26.8730    2.6000 C.3    44  ILE44       0.0001
     33  N         15.8070   24.3920   -1.1670 N.am   45  SER45      -0.1936
     34  CA        15.4840   23.9530   -2.5110 C.3    45  SER45       0.2055
     35  C         16.4790   24.3540   -3.5580 C.2    45  SER45       0.2643
     36  O         17.1880   25.3790   -3.3740 O.2    45  SER45      -0.2714
     37  CB        14.0840   24.3530   -2.9270 C.3    45  SER45       0.2130
     38  OG        13.1340   23.6420   -2.1360 O.3    45  SER45      -0.2179
     39  N         16.5210   23.6340   -4.6820 N.am   46  LYS46      -0.1963
     40  CA        17.5500   23.9910   -5.7080 C.3    46  LYS46       0.1731
     41  C         17.2840   25.4190   -6.2410 C.2    46  LYS46       0.2616
     42  O         18.2020   26.2130   -6.5040 O.2    46  LYS46      -0.2715
     43  CB        17.4330   22.9940   -6.8650 C.3    46  LYS46       0.0358
     44  CG        18.6640   22.1470   -7.0550 C.3    46  LYS46       0.0298
     45  CD        18.7870   21.4910   -8.4400 C.2    46  LYS46      -0.0067
     46  CE        17.4680   21.0020   -9.1020 C.2    46  LYS46       0.1012
     47  NZ        17.5170   20.2800  -10.4560 N.pl3  46  LYS46      -0.1270
     48  N         16.0220   25.7750   -6.3930 N.am   47  GLN47      -0.1977
     49  CA        15.5930   27.1670   -6.6790 C.3    47  GLN47       0.1601
     50  C         14.5810   27.4470   -5.6140 C.2    47  GLN47       0.2287
     51  O         13.3970   27.0120   -5.6500 O.2    47  GLN47      -0.2864
     52  CB        14.9460   27.2860   -8.0770 C.3    47  GLN47       0.0394
     53  CG        15.7930   26.7050   -9.1630 C.3    47  GLN47       0.0908
     54  CD        16.8660   27.6790   -9.5850 C.2    47  GLN47       0.2608
     55  OE1       17.9860   27.6860   -9.0480 O.2    47  GLN47      -0.2717
     56  NE2       16.5330   28.5270  -10.5410 N.am   47  GLN47      -0.0878
     57  N          8.0770   28.1940   -4.6170 N.3    66  GLY66      -0.1210
     58  CA         7.4950   26.8430   -4.4450 C.3    66  GLY66       0.1956
     59  C          8.4880   25.8810   -3.7830 C.2    66  GLY66       0.2613
     60  O          8.5550   24.6730   -4.1180 O.2    66  GLY66      -0.2717
     61  N          9.2340   26.4060   -2.8040 N.am   67  SER67      -0.1938
     62  CA        10.2610   25.5770   -2.1380 C.3    67  SER67       0.2055
     63  C          9.6160   24.4760   -1.3020 C.2    67  SER67       0.2643
     64  O          8.4600   24.5850   -0.8650 O.2    67  SER67      -0.2714
     65  CB        11.0900   26.5110   -1.1960 C.3    67  SER67       0.2130
     66  OG        10.3230   26.9580   -0.0930 O.3    67  SER67      -0.2179
     67  N         10.3410   23.4040   -1.0700 N.am   68  LEU68      -0.1963
     68  CA         9.7740   22.2960   -0.2710 C.3    68  LEU68       0.1728
     69  C          9.5350   22.6840    1.1760 C.2    68  LEU68       0.2616
     70  O          8.4210   22.4740    1.7230 O.2    68  LEU68      -0.2715
     71  CB        10.7060   21.0870   -0.4060 C.3    68  LEU68       0.0311
     72  CG        10.2650   19.8590    0.4530 C.3    68  LEU68       0.0022
     73  CD1        8.9730   19.3150   -0.1590 C.3    68  LEU68       0.0001
     74  CD2       11.3920   18.8580    0.4780 C.3    68  LEU68       0.0001
     75  N         10.5350   23.3230    1.7680 N.am   69  ASN69      -0.1972
     76  CA        10.4600   23.5690    3.2140 C.3    69  ASN69       0.1688
     77  C         10.0480   25.0390    3.5780 C.2    69  ASN69       0.2292
     78  O          9.9580   25.3970    4.7810 O.2    69  ASN69      -0.2864
     79  CB        11.8290   23.2340    3.8530 C.3    69  ASN69       0.1181
     80  CG        12.0710   21.7380    3.8820 C.2    69  ASN69       0.2629
     81  OD1       11.1770   20.9970    4.3510 O.2    69  ASN69      -0.2716
     82  ND2       13.2620   21.2890    3.4070 N.am   69  ASN69      -0.0877
     83  N         13.8670   27.5260    4.6040 N.3    97  ALA97      -0.1231
     84  CA        13.8480   26.2940    5.3540 C.3    97  ALA97       0.1694
     85  C         14.1160   26.5270    6.8470 C.2    97  ALA97       0.2592
     86  O         13.4030   27.3390    7.4290 O.2    97  ALA97      -0.2718
     87  CB        14.7330   25.2750    4.6410 C.3    97  ALA97       0.0304
     88  N         15.1440   25.8800    7.4510 N.am   98  ASP98      -0.1974
     89  CA        15.4860   26.1020    8.8570 C.3    98  ASP98       0.1709
     90  C         16.6930   27.0240    9.0110 C.2    98  ASP98       0.2293
     91  O         17.1950   27.1360   10.1440 O.2    98  ASP98      -0.2864
     92  CB        15.8390   24.7740    9.5030 C.3    98  ASP98       0.1436
     93  CG        16.8300   23.9460    8.6440 C.2    98  ASP98       0.3671
     94  OD1       16.9000   23.9660    7.3410 O.co2  98  ASP98      -0.2456
     95  OD2       17.3780   22.9880    9.2640 O.co2  98  ASP98      -0.2456
@<TRIPOS>BOND
     1    56    54   am
     2    47    46    1
     3    54    53    1
     4    54    55    2
     5    53    52    1
     6    46    45    2
     7    45    44    1
     8    52    49    1
     9    44    43    1
    10    43    40    1
    11    49    48    1
    12    49    50    1
    13    42    41    2
    14    48    41   am
    15    41    40    1
    16    40    39    1
    17    51    50    2
    18    39    35   am
    19    57    58    1
    20    58    59    1
    21    11     9    1
    22     3     4    2
    23     3     2    1
    24    60    59    2
    25    59    61   am
    26    35    36    2
    27    35    34    1
    28     1     2    1
    29     9    10    1
    30     9     8    2
    31     2     5    1
    32    37    34    1
    33    37    38    1
    34     8     7    1
    35     5     6    1
    36    61    62    1
    37    34    33    1
    38    62    63    1
    39    62    65    1
    40     6     7    1
    41    63    67   am
    42    63    64    2
    43    65    66    1
    44    33    27   am
    45    28    27    2
    46    67    68    1
    47    27    26    1
    48    71    68    1
    49    71    72    1
    50    31    29    1
    51    68    69    1
    52    73    72    1
    53    72    74    1
    54    29    26    1
    55    29    30    1
    56    26    25    1
    57    15    14    2
    58    69    70    2
    59    69    75   am
    60    25    21   am
    61    13    14    1
    62    13    12    1
    63    13    16    1
    64    75    76    1
    65    14    19   am
    66    30    32    1
    67    22    21    2
    68    21    20    1
    69    12    18    1
    70    16    17    1
    71    19    20    1
    72    17    18    1
    73    20    23    1
    74    76    77    1
    75    76    79    1
    76    82    80   am
    77    77    78    2
    78    79    80    1
    79    80    81    2
    80    83    84    1
    81    23    24    1
    82    87    84    1
    83    84    85    1
    84    85    86    2
    85    85    88   am
    86    94    93   ar
    87    88    89    1
    88    93    95   ar
    89    93    92    1
    90    89    90    1
    91    89    92    1
    92    90    91    2
