@<TRIPOS>MOLECULE
tmp/3valA00.pdb
 181 175 0 0 0
SMALL
GASTEIGER

@<TRIPOS>ATOM
      1  N          1.6190   -2.2330  -19.8890 N.3     5  SER5       -0.1217
      2  CA         0.8410   -1.5760  -20.9260 C.3     5  SER5        0.1889
      3  C          0.4970   -0.1250  -20.6010 C.2     5  SER5        0.2288
      4  O         -0.5520    0.3770  -21.0080 O.2     5  SER5       -0.2866
      5  CB        -0.4490   -2.3650  -21.1650 C.3     5  SER5        0.2089
      6  OG        -0.1740   -3.6790  -21.6150 O.3     5  SER5       -0.2183
      7  N          1.6830    2.2560  -24.0860 N.3     8  ARG8       -0.1245
      8  CA         1.2670    1.7990  -25.3960 C.3     8  ARG8        0.1563
      9  C         -0.1970    2.1150  -25.6770 C.2     8  ARG8        0.2260
     10  O         -1.0000    2.2250  -24.7600 O.2     8  ARG8       -0.2867
     11  CB         1.4850    0.2830  -25.5000 C.3     8  ARG8        0.0307
     12  CG         2.9430   -0.1510  -25.5020 C.3     8  ARG8        0.0489
     13  CD         3.0710   -1.6290  -25.1500 C.3     8  ARG8        0.2205
     14  NE         2.6310   -2.5080  -26.2260 N.pl3   8  ARG8       -0.0865
     15  CZ         3.3300   -2.7060  -27.3380 C.cat   8  ARG8        0.5346
     16  NH1        4.4930   -2.0860  -27.5020 N.pl3   8  ARG8        0.1354
     17  NH2        2.8790   -3.5200  -28.2800 N.pl3   8  ARG8        0.1354
     18  N         -3.5380    1.3190  -28.6430 N.3    10  TYR10      -0.1241
     19  CA        -4.0030    0.5760  -29.7920 C.3    10  TYR10       0.1605
     20  C         -4.5160    1.6090  -30.7890 C.2    10  TYR10       0.2264
     21  O         -5.1910    2.5740  -30.4110 O.2    10  TYR10      -0.2867
     22  CB        -5.1340   -0.3860  -29.3990 C.3    10  TYR10       0.0534
     23  CG        -5.8900   -0.9710  -30.5890 C.ar   10  TYR10      -0.0201
     24  CD1       -7.0750   -0.3930  -31.0470 C.ar   10  TYR10      -0.0009
     25  CD2       -5.4010   -2.0880  -31.2620 C.ar   10  TYR10      -0.0009
     26  CE1       -7.7470   -0.9100  -32.1350 C.ar   10  TYR10       0.0417
     27  CE2       -6.0640   -2.6160  -32.3570 C.ar   10  TYR10       0.0417
     28  CZ        -7.2330   -2.0270  -32.7910 C.ar   10  TYR10       0.1957
     29  OH        -7.8740   -2.5600  -33.8830 O.3    10  TYR10      -0.2866
     30  N         -6.6400    1.6290  -34.2620 N.3    12  GLY12      -0.1210
     31  CA        -7.4030    0.9000  -35.2590 C.3    12  GLY12       0.1956
     32  C         -7.7540    1.7450  -36.4810 C.2    12  GLY12       0.2611
     33  O         -7.5510    2.9690  -36.4970 O.2    12  GLY12      -0.2717
     34  N         -8.2780    1.0790  -37.5080 N.am   13  ASN13      -0.1974
     35  CA        -8.6830    1.7210  -38.7550 C.3    13  ASN13       0.1688
     36  C         -7.5980    2.5960  -39.3740 C.2    13  ASN13       0.2292
     37  O         -7.8950    3.6170  -39.9850 O.2    13  ASN13      -0.2864
     38  CB        -9.9660    2.5370  -38.5330 C.3    13  ASN13       0.1181
     39  CG       -10.5580    3.0870  -39.8360 C.2    13  ASN13       0.2629
     40  OD1      -10.5280    2.4300  -40.8800 O.2    13  ASN13      -0.2716
     41  ND2      -11.1120    4.2890  -39.7680 N.am   13  ASN13      -0.0877
     42  N         -4.7890    2.4300  -45.1870 N.3    16  PHE16      -0.1241
     43  CA        -4.2580    1.2540  -45.8800 C.3    16  PHE16       0.1605
     44  C         -2.9440    1.6250  -46.5690 C.2    16  PHE16       0.2264
     45  O         -2.8720    2.6110  -47.3040 O.2    16  PHE16      -0.2867
     46  CB        -5.2630    0.7170  -46.9190 C.3    16  PHE16       0.0534
     47  CG        -6.6000    0.3080  -46.3340 C.ar   16  PHE16      -0.0203
     48  CD1       -6.6820   -0.6980  -45.3700 C.ar   16  PHE16      -0.0042
     49  CD2       -7.7750    0.9530  -46.7270 C.ar   16  PHE16      -0.0042
     50  CE1       -7.9100   -1.0510  -44.8030 C.ar   16  PHE16      -0.0003
     51  CE2       -9.0150    0.6060  -46.1650 C.ar   16  PHE16      -0.0003
     52  CZ        -9.0790   -0.3940  -45.2030 C.ar   16  PHE16      -0.0000
     53  N          4.2560   -0.1800  -34.1370 N.3    48  GLN48      -0.1245
     54  CA         4.1990   -1.5660  -34.5800 C.3    48  GLN48       0.1566
     55  C          2.8910   -1.7580  -35.3330 C.2    48  GLN48       0.2260
     56  O          1.8330   -1.8740  -34.7200 O.2    48  GLN48      -0.2867
     57  CB         4.1940   -2.5340  -33.3910 C.3    48  GLN48       0.0367
     58  CG         5.4240   -2.5480  -32.4760 C.3    48  GLN48       0.0905
     59  CD         5.3540   -3.6870  -31.4400 C.2    48  GLN48       0.2608
     60  OE1        4.4600   -3.7250  -30.5860 O.2    48  GLN48      -0.2717
     61  NE2        6.2950   -4.6220  -31.5290 N.am   48  GLN48      -0.0878
     62  N          0.2720   -3.8820  -37.8500 N.3    50  ASN50      -0.1240
     63  CA        -0.0990   -5.2450  -38.2140 C.3    50  ASN50       0.1653
     64  C         -0.8520   -5.1390  -39.5540 C.2    50  ASN50       0.2266
     65  O         -2.0090   -4.7280  -39.6120 O.2    50  ASN50      -0.2867
     66  CB        -1.0000   -5.8540  -37.1300 C.3    50  ASN50       0.1155
     67  CG        -1.3230   -7.3270  -37.3790 C.2    50  ASN50       0.2627
     68  OD1       -1.8120   -7.7040  -38.4450 O.2    50  ASN50      -0.2716
     69  ND2       -1.0620   -8.1620  -36.3810 N.am   50  ASN50      -0.0877
     70  N         -2.0030   -7.5140  -41.9920 N.3    52  ASP52      -0.1225
     71  CA        -3.1830   -8.3520  -42.1600 C.3    52  ASP52       0.1805
     72  C         -4.4270   -7.8990  -41.4120 C.2    52  ASP52       0.2598
     73  O         -5.5140   -7.8830  -41.9910 O.2    52  ASP52      -0.2718
     74  CB        -2.8630   -9.8020  -41.7820 C.3    52  ASP52       0.1424
     75  CG        -1.6470  -10.3430  -42.5240 C.2    52  ASP52       0.3668
     76  OD1       -1.4890  -10.0220  -43.7210 O.co2  52  ASP52      -0.2456
     77  OD2       -0.8540  -11.0980  -41.9160 O.co2  52  ASP52      -0.2456
     78  N         -4.2910   -7.5400  -40.1360 N.am   53  LYS53      -0.1966
     79  CA        -5.4600   -7.1040  -39.3720 C.3    53  LYS53       0.1728
     80  C         -5.6580   -5.6030  -39.3800 C.2    53  LYS53       0.2616
     81  O         -6.5220   -5.0790  -38.6780 O.2    53  LYS53      -0.2715
     82  CB        -5.3920   -7.5910  -37.9310 C.3    53  LYS53       0.0311
     83  CG        -5.5600   -9.0820  -37.7760 C.3    53  LYS53       0.0038
     84  CD        -5.8590   -9.3870  -36.3340 C.3    53  LYS53       0.0206
     85  CE        -5.9660  -10.8600  -36.0730 C.3    53  LYS53       0.1093
     86  NZ        -6.2410  -11.0830  -34.6320 N.3    53  LYS53      -0.1314
     87  N         -4.8440   -4.9170  -40.1730 N.am   54  ASN54      -0.1958
     88  CA        -4.9280   -3.4670  -40.3070 C.3    54  ASN54       0.1819
     89  C         -5.0340   -2.7000  -38.9990 C.2    54  ASN54       0.2621
     90  O         -6.0040   -1.9890  -38.7840 O.2    54  ASN54      -0.2715
     91  CB        -6.1180   -3.1050  -41.2050 C.3    54  ASN54       0.1195
     92  CG        -6.2450   -1.6160  -41.4420 C.2    54  ASN54       0.2630
     93  OD1       -7.1160   -0.9560  -40.8640 O.2    54  ASN54      -0.2716
     94  ND2       -5.3780   -1.0740  -42.2990 N.am   54  ASN54      -0.0877
     95  N         -4.0470   -2.8520  -38.1210 N.am   55  PHE55      -0.1974
     96  CA        -4.0520   -2.1220  -36.8620 C.3    55  PHE55       0.1639
     97  C         -2.6330   -1.8780  -36.3930 C.2    55  PHE55       0.2290
     98  O         -1.6840   -2.4740  -36.9040 O.2    55  PHE55      -0.2864
     99  CB        -4.8480   -2.8620  -35.7940 C.3    55  PHE55       0.0560
    100  CG        -4.1030   -3.9780  -35.1370 C.ar   55  PHE55      -0.0200
    101  CD1       -3.3100   -3.7360  -34.0220 C.ar   55  PHE55      -0.0042
    102  CD2       -4.2310   -5.2860  -35.6070 C.ar   55  PHE55      -0.0042
    103  CE1       -2.6610   -4.7780  -33.3810 C.ar   55  PHE55      -0.0003
    104  CE2       -3.5860   -6.3360  -34.9750 C.ar   55  PHE55      -0.0003
    105  CZ        -2.7980   -6.0860  -33.8570 C.ar   55  PHE55      -0.0000
    106  N          0.1580   -0.3300  -32.9650 N.3    57  PHE57      -0.1241
    107  CA         0.4410   -0.0430  -31.5670 C.3    57  PHE57       0.1605
    108  C          1.5250    1.0370  -31.5100 C.2    57  PHE57       0.2264
    109  O          2.5170    0.9720  -32.2270 O.2    57  PHE57      -0.2867
    110  CB         0.9080   -1.3080  -30.8430 C.3    57  PHE57       0.0534
    111  CG        -0.1720   -1.9790  -30.0460 C.ar   57  PHE57      -0.0203
    112  CD1       -0.5910   -1.4410  -28.8270 C.ar   57  PHE57      -0.0042
    113  CD2       -0.7900   -3.1340  -30.5180 C.ar   57  PHE57      -0.0042
    114  CE1       -1.6160   -2.0480  -28.0830 C.ar   57  PHE57      -0.0003
    115  CE2       -1.8130   -3.7500  -29.7910 C.ar   57  PHE57      -0.0003
    116  CZ        -2.2300   -3.2080  -28.5690 C.ar   57  PHE57      -0.0000
    117  N          4.2730    3.2630  -29.1300 N.3    59  GLU59      -0.1245
    118  CA         5.0740    3.0940  -27.9170 C.3    59  GLU59       0.1567
    119  C          5.5470    4.4790  -27.4890 C.2    59  GLU59       0.2260
    120  O          6.3410    5.1180  -28.1830 O.2    59  GLU59      -0.2867
    121  CB         6.2770    2.1730  -28.1830 C.3    59  GLU59       0.0388
    122  CG         7.4020    2.2420  -27.1370 C.3    59  GLU59       0.1160
    123  CD         7.1610    1.3820  -25.9020 C.2    59  GLU59       0.3649
    124  OE1        7.5960    0.2050  -25.8870 O.co2  59  GLU59      -0.2457
    125  OE2        6.5360    1.8840  -24.9450 O.co2  59  GLU59      -0.2457
    126  N         -9.0510    5.0450  -34.5310 N.3    83  LYS83      -0.1245
    127  CA        -9.6820    4.5230  -33.3200 C.3    83  LYS83       0.1561
    128  C         -8.5640    4.3320  -32.2960 C.2    83  LYS83       0.2260
    129  O         -7.7660    3.4030  -32.4040 O.2    83  LYS83      -0.2867
    130  CB       -10.3630    3.1820  -33.5840 C.3    83  LYS83       0.0271
    131  CG       -11.0760    2.6210  -32.3690 C.3    83  LYS83       0.0035
    132  CD       -11.7620    1.3160  -32.6990 C.3    83  LYS83       0.0206
    133  CE       -12.6720    0.8710  -31.5590 C.3    83  LYS83       0.1093
    134  NZ       -13.4600   -0.3430  -31.9290 N.3    83  LYS83      -0.1314
    135  N         -7.3500    3.3960  -28.6200 N.3    85  ARG85      -0.1231
    136  CA        -7.7520    2.7360  -27.3800 C.3    85  ARG85       0.1694
    137  C         -6.5670    2.2390  -26.5270 C.2    85  ARG85       0.2592
    138  O         -5.4260    2.1620  -27.0000 O.2    85  ARG85      -0.2718
    139  CB        -8.6900    1.5670  -27.7010 C.3    85  ARG85       0.0321
    140  CG        -9.9520    1.9500  -28.4790 C.3    85  ARG85       0.0489
    141  CD       -11.0520    2.4930  -27.5790 C.3    85  ARG85       0.2205
    142  NE       -12.3260    2.6390  -28.2860 N.pl3  85  ARG85      -0.0865
    143  CZ       -12.6230    3.6220  -29.1350 C.cat  85  ARG85       0.5346
    144  NH1      -11.7410    4.5800  -29.4040 N.pl3  85  ARG85       0.1354
    145  NH2      -13.8160    3.6550  -29.7130 N.pl3  85  ARG85       0.1354
    146  N         -6.8550    1.9350  -25.2610 N.am   86  ARG86      -0.1966
    147  CA        -5.8610    1.4150  -24.3240 C.3    86  ARG86       0.1714
    148  C         -5.5680   -0.0300  -24.6970 C.2    86  ARG86       0.2458
    149  O         -6.4140   -0.7000  -25.2860 O.2    86  ARG86      -0.2730
    150  CB        -6.4060    1.4450  -22.9030 C.3    86  ARG86       0.0347
    151  CG        -6.4040    2.7980  -22.2420 C.3    86  ARG86       0.0492
    152  CD        -5.0130    3.1530  -21.7470 C.3    86  ARG86       0.2205
    153  NE        -5.0180    4.4340  -21.0490 N.pl3  86  ARG86      -0.0865
    154  CZ        -3.9400    5.0190  -20.5390 C.cat  86  ARG86       0.5346
    155  NH1       -2.7580    4.4330  -20.6480 N.pl3  86  ARG86       0.1354
    156  NH2       -4.0500    6.1940  -19.9290 N.pl3  86  ARG86       0.1354
    157  N         -4.3610   -0.5280  -24.3780 N.am   87  PRO87      -0.2716
    158  CA        -4.0370   -1.9230  -24.7120 C.3    87  PRO87       0.1536
    159  C         -4.9700   -2.8050  -23.8910 C.2    87  PRO87       0.2599
    160  O         -5.2920   -2.4610  -22.7620 O.2    87  PRO87      -0.2715
    161  CB        -2.5870   -2.0630  -24.2610 C.3    87  PRO87       0.0310
    162  CG        -2.0620   -0.6490  -24.2980 C.3    87  PRO87       0.0237
    163  CD        -3.2090    0.1560  -23.7690 C.3    87  PRO87       0.0939
    164  N         -5.4220   -3.9270  -24.4320 N.am   88  HIS88      -0.1960
    165  CA        -6.3260   -4.7720  -23.6590 C.3    88  HIS88       0.1787
    166  C         -5.7320   -5.2550  -22.3300 C.2    88  HIS88       0.2620
    167  O         -6.4570   -5.4200  -21.3560 O.2    88  HIS88      -0.2715
    168  CB        -6.8010   -5.9740  -24.4880 C.3    88  HIS88       0.0785
    169  CG        -7.9210   -5.6540  -25.4350 C.ar   88  HIS88       0.0821
    170  ND1       -8.9760   -4.8340  -25.0910 N.ar   88  HIS88      -0.2267
    171  CD2       -8.1640   -6.0660  -26.7030 C.ar   88  HIS88       0.1154
    172  CE1       -9.8180   -4.7540  -26.1070 C.ar   88  HIS88       0.1986
    173  NE2       -9.3470   -5.4920  -27.0980 N.ar   88  HIS88      -0.2212
    174  N         -4.4230   -5.4780  -22.2830 N.am   89  ASP89      -0.1971
    175  CA        -3.7880   -5.9290  -21.0480 C.3    89  ASP89       0.1709
    176  C         -3.6260   -4.8050  -20.0500 C.2    89  ASP89       0.2293
    177  O         -2.9700   -4.9470  -19.0280 O.2    89  ASP89      -0.2864
    178  CB        -2.4340   -6.5550  -21.3390 C.3    89  ASP89       0.1436
    179  CG        -2.5700   -7.8750  -22.0220 C.2    89  ASP89       0.3671
    180  OD1       -3.5060   -8.6170  -21.6540 O.co2  89  ASP89      -0.2456
    181  OD2       -1.7590   -8.1850  -22.9140 O.co2  89  ASP89      -0.2456
@<TRIPOS>BOND
     1    45    44    2
     2    46    47    1
     3    46    43    1
     4    49    47   ar
     5    49    51   ar
     6    44    43    1
     7    47    48   ar
     8    51    52   ar
     9    43    42    1
    10    48    50   ar
    11    52    50   ar
    12    76    75   ar
    13    75    77   ar
    14    75    74    1
    15    94    92   am
    16    71    70    1
    17    71    74    1
    18    71    72    1
    19    73    72    2
    20    92    91    1
    21    92    93    2
    22    72    78   am
    23    91    88    1
    24    40    39    2
    25    88    87    1
    26    88    89    1
    27    87    80   am
    28    78    79    1
    29    37    36    2
    30    39    41   am
    31    39    38    1
    32    65    64    2
    33    64    63    1
    34    80    79    1
    35    80    81    2
    36    36    35    1
    37    79    82    1
    38    89    90    2
    39    89    95   am
    40    35    38    1
    41    35    34    1
    42    68    67    2
    43    63    62    1
    44    63    66    1
    45    95    96    1
    46    82    83    1
    47    83    84    1
    48    34    32   am
    49    67    66    1
    50    67    69   am
    51    98    97    2
    52    96    97    1
    53    96    99    1
    54    33    32    2
    55    32    31    1
    56    84    85    1
    57    85    86    1
    58    99   100    1
    59   102   100   ar
    60   102   104   ar
    61    55    56    2
    62    55    54    1
    63    31    30    1
    64   100   101   ar
    65   104   105   ar
    66    54    53    1
    67    54    57    1
    68   126   127    1
    69   101   103   ar
    70    29    28    1
    71   105   103   ar
    72   130   127    1
    73   130   131    1
    74    57    58    1
    75   127   128    1
    76   106   107    1
    77    28    27   ar
    78    28    26   ar
    79   132   131    1
    80   132   133    1
    81    58    59    1
    82   129   128    2
    83    27    25   ar
    84   109   108    2
    85    26    24   ar
    86   134   133    1
    87   107   108    1
    88   107   110    1
    89    61    59   am
    90    59    60    2
    91    25    23   ar
    92    24    23   ar
    93   110   111    1
    94    20    21    2
    95    20    19    1
    96    23    22    1
    97   113   111   ar
    98   113   115   ar
    99   111   112   ar
   100    19    22    1
   101    19    18    1
   102   115   116   ar
   103   145   143    1
   104   144   143    1
   105   143   142    2
   106   117   118    1
   107   112   114   ar
   108   135   136    1
   109   116   114   ar
   110   140   139    1
   111   140   141    1
   112   142   141    1
   113    17    15    1
   114   120   119    2
   115   121   118    1
   116   121   122    1
   117   118   119    1
   118   139   136    1
   119    16    15    1
   120   136   137    1
   121    15    14    2
   122   122   123    1
   123   173   171   ar
   124   173   172   ar
   125   138   137    2
   126   171   169   ar
   127   137   146   am
   128    14    13    1
   129   172   170   ar
   130   123   124   ar
   131   123   125   ar
   132     9     8    1
   133     9    10    2
   134    12    11    1
   135    12    13    1
   136    11     8    1
   137   169   170   ar
   138   169   168    1
   139     8     7    1
   140   149   148    2
   141   146   147    1
   142   158   157    1
   143   158   161    1
   144   158   159    1
   145   148   157   am
   146   148   147    1
   147   168   165    1
   148   164   159   am
   149   164   165    1
   150   157   163    1
   151   147   150    1
   152   162   161    1
   153   162   163    1
   154   159   160    2
   155   165   166    1
   156   181   179   ar
   157   150   151    1
   158   166   174   am
   159   166   167    2
   160   174   175    1
   161   151   152    1
   162   179   180   ar
   163   179   178    1
   164   152   153    1
   165     6     5    1
   166   178   175    1
   167     5     2    1
   168   153   154    2
   169   175   176    1
   170     4     3    2
   171     2     3    1
   172     2     1    1
   173   155   154    1
   174   154   156    1
   175   176   177    2
