@<TRIPOS>MOLECULE
tmp/3valB00.pdb
 115 108 0 0 0
SMALL
GASTEIGER

@<TRIPOS>ATOM
      1  N        -11.8390   -2.5140  -50.1800 N.3    97  LYS97      -0.1245
      2  CA       -11.7150   -3.5270  -49.1390 C.3    97  LYS97       0.1561
      3  C        -13.0900   -3.6830  -48.5080 C.2    97  LYS97       0.2260
      4  O        -13.6710   -2.7070  -48.0320 O.2    97  LYS97      -0.2867
      5  CB       -10.7200   -3.0780  -48.0700 C.3    97  LYS97       0.0271
      6  CG       -10.5980   -4.0340  -46.8950 C.3    97  LYS97       0.0035
      7  CD        -9.7810   -3.3980  -45.7800 C.3    97  LYS97       0.0206
      8  CE        -9.4680   -4.3620  -44.6500 C.3    97  LYS97       0.1093
      9  NZ        -8.4960   -5.4010  -45.0660 N.3    97  LYS97      -0.1314
     10  N        -16.1080   -5.3830  -45.8680 N.3    99  PHE99      -0.1241
     11  CA       -16.3320   -5.7460  -44.4880 C.3    99  PHE99       0.1605
     12  C        -17.5450   -6.6710  -44.4400 C.2    99  PHE99       0.2264
     13  O        -18.6370   -6.3030  -44.8740 O.2    99  PHE99      -0.2867
     14  CB       -16.6170   -4.5120  -43.6430 C.3    99  PHE99       0.0534
     15  CG       -17.0690   -4.8410  -42.2520 C.ar   99  PHE99      -0.0203
     16  CD1      -16.1800   -5.3730  -41.3290 C.ar   99  PHE99      -0.0042
     17  CD2      -18.3910   -4.6390  -41.8720 C.ar   99  PHE99      -0.0042
     18  CE1      -16.5940   -5.6960  -40.0510 C.ar   99  PHE99      -0.0003
     19  CE2      -18.8170   -4.9600  -40.5910 C.ar   99  PHE99      -0.0003
     20  CZ       -17.9140   -5.4900  -39.6780 C.ar   99  PHE99      -0.0000
     21  N         -9.3350  -12.3890  -44.4790 N.3   126  ASN126     -0.1240
     22  CA        -8.9670  -12.7540  -43.1220 C.3   126  ASN126      0.1653
     23  C        -10.2120  -12.6880  -42.2440 C.2   126  ASN126      0.2266
     24  O        -11.0000  -11.7600  -42.3500 O.2   126  ASN126     -0.2867
     25  CB        -7.8800  -11.8100  -42.6000 C.3   126  ASN126      0.1155
     26  CG        -8.4250  -10.4610  -42.1770 C.2   126  ASN126      0.2627
     27  OD1       -8.7790  -10.2600  -41.0170 O.2   126  ASN126     -0.2716
     28  ND2       -8.5070   -9.5320  -43.1200 N.am  126  ASN126     -0.0877
     29  N        -11.5530  -12.4570  -38.4690 N.3   128  VAL128     -0.1231
     30  CA       -11.0860  -12.0710  -37.1480 C.3   128  VAL128      0.1692
     31  C        -11.4600  -13.0900  -36.0800 C.2   128  VAL128      0.2591
     32  O        -12.6270  -13.4270  -35.9000 O.2   128  VAL128     -0.2718
     33  CB       -11.6260  -10.6670  -36.7790 C.3   128  VAL128      0.0266
     34  CG1      -11.1450  -10.2570  -35.3950 C.3   128  VAL128      0.0020
     35  CG2      -11.1580   -9.6530  -37.8240 C.3   128  VAL128      0.0020
     36  N        -10.4510  -13.5860  -35.3730 N.am  129  LYS129     -0.1980
     37  CA       -10.6680  -14.5780  -34.3200 C.3   129  LYS129      0.1596
     38  C        -10.1700  -14.0190  -32.9920 C.2   129  LYS129      0.2287
     39  O         -9.3960  -13.0660  -32.9700 O.2   129  LYS129     -0.2864
     40  CB        -9.9110  -15.8730  -34.6530 C.3   129  LYS129      0.0298
     41  CG        -9.8990  -16.2140  -36.1440 C.3   129  LYS129      0.0038
     42  CD        -9.2760  -17.5760  -36.4180 C.3   129  LYS129      0.0206
     43  CE        -9.0810  -17.8260  -37.9160 C.3   129  LYS129      0.1093
     44  NZ        -7.9570  -17.0250  -38.4990 N.3   129  LYS129     -0.1314
     45  N         -7.7910  -13.7460  -30.2160 N.3   131  SER131     -0.1217
     46  CA        -6.3970  -14.0930  -29.9800 C.3   131  SER131      0.1889
     47  C         -6.2710  -15.1870  -28.9270 C.2   131  SER131      0.2288
     48  O         -5.3930  -16.0420  -29.0060 O.2   131  SER131     -0.2866
     49  CB        -5.6330  -12.8510  -29.5220 C.3   131  SER131      0.2089
     50  OG        -5.9870  -11.7290  -30.3120 O.3   131  SER131     -0.2183
     51  N        -14.9290  -14.0950  -34.3430 N.3   137  LYS137     -0.1245
     52  CA       -15.6920  -13.0110  -33.7430 C.3   137  LYS137      0.1561
     53  C        -16.9180  -12.6170  -34.5580 C.2   137  LYS137      0.2260
     54  O        -17.5990  -11.6430  -34.2300 O.2   137  LYS137     -0.2867
     55  CB       -14.8030  -11.7870  -33.5280 C.3   137  LYS137      0.0271
     56  CG       -13.5990  -12.0560  -32.6480 C.3   137  LYS137      0.0035
     57  CD       -12.9910  -10.7630  -32.1530 C.3   137  LYS137      0.0206
     58  CE       -11.6820  -11.0060  -31.4500 C.3   137  LYS137      0.1093
     59  NZ       -11.1850   -9.7480  -30.8480 N.3   137  LYS137     -0.1314
     60  N        -17.0100  -11.5700  -37.8120 N.3   139  TYR139     -0.1241
     61  CA       -16.7880  -10.5660  -38.8510 C.3   139  TYR139      0.1605
     62  C        -15.4580  -10.7950  -39.5380 C.2   139  TYR139      0.2264
     63  O        -14.5110  -11.2700  -38.9160 O.2   139  TYR139     -0.2867
     64  CB       -16.8770   -9.1400  -38.2840 C.3   139  TYR139      0.0534
     65  CG       -15.8980   -8.7840  -37.1850 C.ar  139  TYR139     -0.0201
     66  CD1      -14.6230   -8.3020  -37.4840 C.ar  139  TYR139     -0.0009
     67  CD2      -16.2630   -8.8910  -35.8420 C.ar  139  TYR139     -0.0009
     68  CE1      -13.7460   -7.9340  -36.4780 C.ar  139  TYR139      0.0417
     69  CE2      -15.3900   -8.5250  -34.8280 C.ar  139  TYR139      0.0417
     70  CZ       -14.1350   -8.0500  -35.1520 C.ar  139  TYR139      0.1957
     71  OH       -13.2570   -7.7120  -34.1480 O.3   139  TYR139     -0.2866
     72  N        -12.8870   -9.6480  -43.4010 N.3   141  PHE141     -0.1241
     73  CA       -12.4780   -8.6160  -44.3480 C.3   141  PHE141      0.1605
     74  C        -11.9000   -9.3130  -45.5650 C.2   141  PHE141      0.2264
     75  O        -11.2730  -10.3600  -45.4410 O.2   141  PHE141     -0.2867
     76  CB       -11.3920   -7.7040  -43.7480 C.3   141  PHE141      0.0534
     77  CG       -11.8590   -6.8860  -42.5830 C.ar  141  PHE141     -0.0203
     78  CD1      -12.4480   -5.6470  -42.7830 C.ar  141  PHE141     -0.0042
     79  CD2      -11.7760   -7.3890  -41.2890 C.ar  141  PHE141     -0.0042
     80  CE1      -12.9530   -4.9220  -41.7200 C.ar  141  PHE141     -0.0003
     81  CE2      -12.2810   -6.6730  -40.2150 C.ar  141  PHE141     -0.0003
     82  CZ       -12.8720   -5.4380  -40.4280 C.ar  141  PHE141     -0.0000
     83  N        -24.0370   -8.3530  -42.9960 N.3   168  LEU168     -0.1245
     84  CA       -23.8460   -6.9610  -43.3660 C.3   168  LEU168      0.1561
     85  C        -22.5830   -6.9540  -44.2080 C.2   168  LEU168      0.2260
     86  O        -21.5200   -7.3630  -43.7340 O.2   168  LEU168     -0.2867
     87  CB       -23.6340   -6.0740  -42.1300 C.3   168  LEU168      0.0270
     88  CG       -23.2050   -4.6250  -42.4380 C.3   168  LEU168      0.0019
     89  CD1      -24.2880   -3.9100  -43.2410 C.3   168  LEU168      0.0001
     90  CD2      -22.9270   -3.8730  -41.1420 C.3   168  LEU168      0.0001
     91  N        -20.3260   -4.4570  -46.8440 N.3   170  GLN170     -0.1231
     92  CA       -20.1080   -3.1230  -47.3790 C.3   170  GLN170      0.1698
     93  C        -18.6180   -2.9220  -47.5320 C.2   170  GLN170      0.2592
     94  O        -17.8420   -3.8540  -47.3670 O.2   170  GLN170     -0.2718
     95  CB       -20.6500   -2.0930  -46.4030 C.3   170  GLN170      0.0381
     96  CG       -20.1980   -2.3700  -44.9910 C.3   170  GLN170      0.0905
     97  CD       -20.8720   -1.4860  -43.9690 C.2   170  GLN170      0.2608
     98  OE1      -22.0380   -1.1050  -44.1350 O.2   170  GLN170     -0.2717
     99  NE2      -20.1560   -1.1710  -42.8910 N.am  170  GLN170     -0.0878
    100  N        -18.2090   -1.7060  -47.8530 N.am  171  ARG171     -0.1966
    101  CA       -16.7970   -1.4350  -47.9870 C.3   171  ARG171      0.1729
    102  C        -16.2590   -1.1600  -46.5880 C.2   171  ARG171      0.2616
    103  O        -16.8680   -0.4190  -45.8150 O.2   171  ARG171     -0.2715
    104  CB       -16.5750   -0.2400  -48.9050 C.3   171  ARG171      0.0348
    105  CG       -16.7090   -0.5950  -50.3800 C.3   171  ARG171      0.0492
    106  CD       -16.5440    0.6100  -51.3010 C.3   171  ARG171      0.2205
    107  NE       -16.3570    0.1780  -52.6820 N.pl3 171  ARG171     -0.0865
    108  CZ       -17.3020   -0.3730  -53.4380 C.cat 171  ARG171      0.5346
    109  NH1      -18.5260   -0.5550  -52.9620 N.pl3 171  ARG171      0.1354
    110  NH2      -17.0040   -0.7810  -54.6610 N.pl3 171  ARG171      0.1354
    111  N        -15.1400   -1.8000  -46.2590 N.am  172  ALA172     -0.1977
    112  CA       -14.5070   -1.6320  -44.9610 C.3   172  ALA172      0.1597
    113  C        -14.2370   -0.1520  -44.7510 C.2   172  ALA172      0.2287
    114  O        -14.4220    0.3700  -43.6570 O.2   172  ALA172     -0.2864
    115  CB       -13.1950   -2.4240  -44.9080 C.3   172  ALA172      0.0319
@<TRIPOS>BOND
     1   110   108    1
     2   108   109    1
     3   108   107    2
     4   107   106    1
     5   106   105    1
     6   105   104    1
     7     1     2    1
     8     2     3    1
     9     2     5    1
    10   104   101    1
    11     3     4    2
    12     5     6    1
    13   101   100    1
    14   101   102    1
    15   100    93   am
    16    93    92    1
    17    93    94    2
    18    92    91    1
    19    92    95    1
    20     6     7    1
    21   102   111   am
    22   102   103    2
    23    95    96    1
    24   111   112    1
    25    10    11    1
    26     7     8    1
    27    74    75    2
    28    74    73    1
    29     9     8    1
    30    96    97    1
    31   112   115    1
    32   112   113    1
    33    13    12    2
    34   113   114    2
    35    11    12    1
    36    11    14    1
    37    21    22    1
    38    73    76    1
    39    73    72    1
    40    85    86    2
    41    85    84    1
    42    98    97    2
    43    97    99   am
    44    76    77    1
    45    14    15    1
    46    84    83    1
    47    84    87    1
    48    89    88    1
    49    22    25    1
    50    22    23    1
    51    28    26   am
    52    78    77   ar
    53    78    80   ar
    54    25    26    1
    55    77    79   ar
    56    88    87    1
    57    88    90    1
    58    24    23    2
    59    15    17   ar
    60    15    16   ar
    61    26    27    2
    62    17    19   ar
    63    80    82   ar
    64    16    18   ar
    65    79    81   ar
    66    19    20   ar
    67    82    81   ar
    68    18    20   ar
    69    62    63    2
    70    62    61    1
    71    61    64    1
    72    61    60    1
    73    44    43    1
    74    29    30    1
    75    64    65    1
    76    43    42    1
    77    35    33    1
    78    66    65   ar
    79    66    68   ar
    80    65    67   ar
    81    30    33    1
    82    30    31    1
    83    33    34    1
    84    68    70   ar
    85    42    41    1
    86    41    40    1
    87    31    32    2
    88    31    36   am
    89    67    69   ar
    90    36    37    1
    91    70    69   ar
    92    70    71    1
    93    40    37    1
    94    53    54    2
    95    53    52    1
    96    51    52    1
    97    37    38    1
    98    52    55    1
    99    55    56    1
   100    38    39    2
   101    56    57    1
   102    57    58    1
   103    58    59    1
   104    50    49    1
   105    45    46    1
   106    46    49    1
   107    46    47    1
   108    48    47    2
