@<TRIPOS>MOLECULE
tmp/3vapA00.pdb
 228 219 0 0 0
SMALL
GASTEIGER

@<TRIPOS>ATOM
      1  N         -4.9640   28.7700    3.9470 N.3    11  ARG11      -0.1197
      2  CA        -4.2600   28.6000    2.6610 C.3    11  ARG11       0.1779
      3  C         -2.8010   28.1460    2.8540 C.2    11  ARG11       0.2305
      4  O         -2.2400   28.3210    3.9440 O.2    11  ARG11      -0.2863
      5  CB        -4.3420   29.8630    1.7580 C.2    11  ARG11      -0.0007
      6  CG        -3.5920   31.0740    2.2630 C.2    11  ARG11       0.0176
      7  CD        -3.6050   32.2770    1.3280 C.3    11  ARG11       0.2464
      8  NE        -2.6460   33.2610    1.8380 N.pl3  11  ARG11      -0.0815
      9  CZ        -1.3380   33.3050    1.5600 C.cat  11  ARG11       0.5349
     10  NH1       -0.8050   32.4690    0.6660 N.pl3  11  ARG11       0.1354
     11  NH2       -0.5590   34.2120    2.1440 N.pl3  11  ARG11       0.1354
     12  N          0.9510   28.6720    2.7200 N.3    13  LEU13      -0.1231
     13  CA         1.7360   29.8990    2.6490 C.3    13  LEU13       0.1693
     14  C          2.9070   29.6640    1.7450 C.2    13  LEU13       0.2592
     15  O          3.1980   30.5070    0.9100 O.2    13  LEU13      -0.2718
     16  CB         2.1390   30.3770    4.0510 C.3    13  LEU13       0.0284
     17  CG         0.9130   30.6830    4.9690 C.3    13  LEU13       0.0019
     18  CD1        1.3410   31.2350    6.3180 C.3    13  LEU13       0.0001
     19  CD2       -0.0290   31.6950    4.3100 C.3    13  LEU13       0.0001
     20  N          3.5710   28.5110    1.8900 N.am   14  GLY14      -0.1957
     21  CA         4.7040   28.1740    1.0390 C.3    14  GLY14       0.1869
     22  C          5.1260   26.7240    1.1780 C.2    14  GLY14       0.2309
     23  O          4.9350   26.1320    2.2300 O.2    14  GLY14      -0.2863
     24  N          8.2680   24.0260    1.0840 N.3    16  GLY16      -0.1210
     25  CA         9.7080   23.9430    1.3530 C.3    16  GLY16       0.1956
     26  C         10.2760   22.5770    0.9230 C.2    16  GLY16       0.2612
     27  O          9.5560   21.7270    0.3830 O.2    16  GLY16      -0.2717
     28  N         11.5680   22.3710    1.1810 N.am   17  LYS17      -0.1965
     29  CA        12.2620   21.1390    0.7920 C.3    17  LYS17       0.1728
     30  C         11.7790   19.8150    1.4440 C.2    17  LYS17       0.2616
     31  O         12.0270   18.7520    0.8710 O.2    17  LYS17      -0.2715
     32  CB        13.7860   21.2960    0.9410 C.3    17  LYS17       0.0311
     33  CG        14.3110   21.6440    2.3370 C.3    17  LYS17       0.0038
     34  CD        15.8350   21.4480    2.3970 C.3    17  LYS17       0.0206
     35  CE        16.4970   22.2540    3.4900 C.3    17  LYS17       0.1093
     36  NZ        17.9660   22.0430    3.5210 N.3    17  LYS17      -0.1314
     37  N         11.0680   19.8870    2.5950 N.am   18  PHE18      -0.1960
     38  CA        10.5470   18.7360    3.3550 C.3    18  PHE18       0.1771
     39  C          9.0090   18.6900    3.4780 C.2    18  PHE18       0.2620
     40  O          8.4830   17.7000    3.9710 O.2    18  PHE18      -0.2715
     41  CB        11.1510   18.7160    4.7730 C.3    18  PHE18       0.0574
     42  CG        12.6640   18.7130    4.8140 C.ar   18  PHE18      -0.0200
     43  CD1       13.3880   17.6950    4.2090 C.ar   18  PHE18      -0.0042
     44  CD2       13.3610   19.6850    5.5240 C.ar   18  PHE18      -0.0042
     45  CE1       14.7780   17.6980    4.2380 C.ar   18  PHE18      -0.0003
     46  CE2       14.7550   19.6770    5.5670 C.ar   18  PHE18      -0.0003
     47  CZ        15.4550   18.6960    4.9080 C.ar   18  PHE18      -0.0000
     48  N          8.2950   19.7320    3.0510 N.am   19  GLY19      -0.1940
     49  CA         6.8380   19.7790    3.1430 C.3    19  GLY19       0.2014
     50  C          6.4000   21.2200    2.9710 C.2    19  GLY19       0.2639
     51  O          7.1990   22.0370    2.5070 O.2    19  GLY19      -0.2714
     52  N          5.1460   21.5430    3.3340 N.am   20  ASN20      -0.1958
     53  CA         4.6220   22.9130    3.1990 C.3    20  ASN20       0.1819
     54  C          4.2330   23.5130    4.5430 C.2    20  ASN20       0.2621
     55  O          4.0560   22.7880    5.5210 O.2    20  ASN20      -0.2715
     56  CB         3.4340   22.9800    2.2320 C.3    20  ASN20       0.1195
     57  CG         3.3560   21.8560    1.2260 C.2    20  ASN20       0.2630
     58  OD1        4.3730   21.3780    0.7130 O.2    20  ASN20      -0.2716
     59  ND2        2.1370   21.4290    0.8930 N.am   20  ASN20      -0.0877
     60  N          4.1020   24.8530    4.5790 N.am   21  VAL21      -0.1977
     61  CA         3.7050   25.6070    5.7760 C.3    21  VAL21       0.1596
     62  C          2.3720   26.3260    5.4870 C.2    21  VAL21       0.2287
     63  O          2.2660   27.0690    4.5130 O.2    21  VAL21      -0.2864
     64  CB         4.8460   26.4860    6.3980 C.3    21  VAL21       0.0276
     65  CG1        5.6310   27.2740    5.3690 C.3    21  VAL21       0.0022
     66  CG2        4.3200   27.4060    7.4770 C.3    21  VAL21       0.0022
     67  N          1.3910   29.8250   11.9670 N.3    34  ALA34      -0.1245
     68  CA         1.9570   29.0970   10.8300 C.3    34  ALA34       0.1562
     69  C          2.1270   27.6170   11.2150 C.2    34  ALA34       0.2260
     70  O          2.6910   27.3100   12.2770 O.2    34  ALA34      -0.2867
     71  CB         3.3060   29.7020   10.4320 C.3    34  ALA34       0.0290
     72  N          3.9000   24.3770   10.0680 N.3    36  LYS36      -0.1245
     73  CA         4.8940   23.7430    9.2160 C.3    36  LYS36       0.1561
     74  C          4.5920   22.2470    9.2840 C.2    36  LYS36       0.2260
     75  O          4.7440   21.6330   10.3420 O.2    36  LYS36      -0.2867
     76  CB         6.3260   24.0700    9.6880 C.3    36  LYS36       0.0271
     77  CG         7.3450   24.1290    8.5660 C.3    36  LYS36       0.0035
     78  CD         8.7310   23.7550    9.0280 C.3    36  LYS36       0.0206
     79  CE         9.4150   24.7830    9.8790 C.3    36  LYS36       0.1093
     80  NZ        10.8330   24.4020   10.1630 N.3    36  LYS36      -0.1314
     81  N          5.6130   18.8730    7.8690 N.3    38  LEU38      -0.1245
     82  CA         6.7300   18.1940    7.2110 C.3    38  LEU38       0.1561
     83  C          6.5010   16.7000    7.2150 C.2    38  LEU38       0.2260
     84  O          5.9760   16.1590    8.1870 O.2    38  LEU38      -0.2867
     85  CB         8.0490   18.5110    7.9170 C.3    38  LEU38       0.0270
     86  CG         8.3640   19.9790    8.1450 C.3    38  LEU38       0.0019
     87  CD1        9.7760   20.1280    8.6600 C.3    38  LEU38       0.0001
     88  CD2        8.1710   20.7960    6.8750 C.3    38  LEU38       0.0001
     89  N         11.3950   34.2630   14.9250 N.3    68  LEU68      -0.1245
     90  CA        10.1150   33.5730   14.7740 C.3    68  LEU68       0.1561
     91  C          9.9400   32.6150   15.9390 C.2    68  LEU68       0.2260
     92  O         10.7000   31.6730   16.0890 O.2    68  LEU68      -0.2867
     93  CB        10.0530   32.8020   13.4410 C.3    68  LEU68       0.0270
     94  CG         8.6820   32.5110   12.8490 C.3    68  LEU68       0.0019
     95  CD1        7.9990   33.7870   12.4110 C.3    68  LEU68       0.0001
     96  CD2        8.8210   31.6280   11.6550 C.3    68  LEU68       0.0001
     97  N          4.2320   27.4370   14.6520 N.3    84  LEU84      -0.1231
     98  CA         5.0710   28.6320   14.6240 C.3    84  LEU84       0.1693
     99  C          4.3170   29.9390   14.5300 C.2    84  LEU84       0.2592
    100  O          3.1570   29.9850   14.1100 O.2    84  LEU84      -0.2718
    101  CB         5.9690   28.5240   13.3970 C.3    84  LEU84       0.0284
    102  CG         7.0990   27.5040   13.5590 C.3    84  LEU84       0.0019
    103  CD1        7.2580   26.6420   12.3190 C.3    84  LEU84       0.0001
    104  CD2        8.3700   28.1840   13.9300 C.3    84  LEU84       0.0001
    105  N          5.0440   31.0190   14.8440 N.am   85  GLU85      -0.1966
    106  CA         4.5910   32.4000   14.7260 C.3    85  GLU85       0.1733
    107  C          4.4270   32.6850   13.2580 C.2    85  GLU85       0.2616
    108  O          5.2120   32.2000   12.4310 O.2    85  GLU85      -0.2715
    109  CB         5.6200   33.3550   15.3500 C.3    85  GLU85       0.0429
    110  CG         5.3500   34.8250   15.1460 C.3    85  GLU85       0.1163
    111  CD         6.3710   35.7350   15.8020 C.2    85  GLU85       0.3649
    112  OE1        7.2630   35.2470   16.5390 O.co2  85  GLU85      -0.2457
    113  OE2        6.2650   36.9610   15.5750 O.co2  85  GLU85      -0.2457
    114  N          3.3690   33.4340   12.9390 N.am   86  TYR86      -0.1960
    115  CA         2.9960   33.8220   11.5750 C.3    86  TYR86       0.1771
    116  C          3.4760   35.2500   11.3170 C.2    86  TYR86       0.2619
    117  O          3.2160   36.1570   12.1010 O.2    86  TYR86      -0.2715
    118  CB         1.4770   33.6920   11.3850 C.3    86  TYR86       0.0574
    119  CG         0.9130   34.4440   10.2060 C.ar   86  TYR86      -0.0198
    120  CD1        1.1260   34.0020    8.9090 C.ar   86  TYR86      -0.0009
    121  CD2        0.0550   35.5200   10.3900 C.ar   86  TYR86      -0.0009
    122  CE1        0.5940   34.6780    7.8200 C.ar   86  TYR86       0.0417
    123  CE2       -0.5030   36.1960    9.3070 C.ar   86  TYR86       0.0417
    124  CZ        -0.2450   35.7610    8.0180 C.ar   86  TYR86       0.1957
    125  OH        -0.7450   36.4270    6.9110 O.3    86  TYR86      -0.2866
    126  N          4.2090   35.4100   10.2340 N.am   87  ALA87      -0.1964
    127  CA         4.8250   36.6330    9.7410 C.3    87  ALA87       0.1713
    128  C          3.8920   37.2250    8.7120 C.2    87  ALA87       0.2458
    129  O          3.9340   36.8050    7.5620 O.2    87  ALA87      -0.2730
    130  CB         6.1640   36.2850    9.1020 C.3    87  ALA87       0.0333
    131  N          3.0120   38.1540    9.1160 N.am   88  PRO88      -0.2716
    132  CA         2.0140   38.7080    8.1930 C.3    88  PRO88       0.1536
    133  C          2.5040   39.2230    6.8830 C.2    88  PRO88       0.2598
    134  O          1.7750   39.0860    5.9000 O.2    88  PRO88      -0.2715
    135  CB         1.3550   39.8290    9.0040 C.3    88  PRO88       0.0310
    136  CG         1.6360   39.5320   10.3660 C.3    88  PRO88       0.0237
    137  CD         3.0260   38.9650   10.3480 C.3    88  PRO88       0.0939
    138  N          3.7190   39.8230    6.8460 N.am   89  LEU89      -0.1964
    139  CA         4.2630   40.3740    5.5980 C.3    89  LEU89       0.1728
    140  C          5.1460   39.3980    4.7790 C.2    89  LEU89       0.2617
    141  O          5.7590   39.8180    3.8020 O.2    89  LEU89      -0.2715
    142  CB         4.9810   41.7020    5.8410 C.3    89  LEU89       0.0311
    143  CG         4.3050   42.7700    6.6820 C.3    89  LEU89       0.0022
    144  CD1        4.9350   44.1020    6.4270 C.3    89  LEU89       0.0001
    145  CD2        2.8300   42.8530    6.4580 C.3    89  LEU89       0.0001
    146  N          5.1400   38.1050    5.0900 N.am   90  GLY90      -0.1940
    147  CA         5.8210   37.0930    4.2750 C.3    90  GLY90       0.2014
    148  C          7.3270   37.0540    4.3790 C.2    90  GLY90       0.2639
    149  O          7.8860   37.5710    5.3390 O.2    90  GLY90      -0.2714
    150  N          7.9700   36.3430    3.4170 N.am   91  THR91      -0.1950
    151  CA         9.4260   36.1670    3.3800 C.3    91  THR91       0.1897
    152  C         10.1530   37.3500    2.7670 C.2    91  THR91       0.2313
    153  O          9.6370   38.0220    1.8760 O.2    91  THR91      -0.2863
    154  CB         9.8540   34.8990    2.5960 C.3    91  THR91       0.1794
    155  OG1        9.5280   35.0420    1.2030 O.3    91  THR91      -0.2208
    156  CG2        9.2900   33.6040    3.1750 C.3    91  THR91       0.0378
    157  N         10.7300   36.7040   -1.0850 N.3    94  ARG94      -0.1245
    158  CA         9.6310   37.1640   -1.9310 C.3    94  ARG94       0.1563
    159  C          9.6270   38.6490   -2.0670 C.2    94  ARG94       0.2260
    160  O          9.2980   39.1340   -3.1490 O.2    94  ARG94      -0.2867
    161  CB         8.2610   36.7270   -1.3920 C.3    94  ARG94       0.0307
    162  CG         7.9170   35.2850   -1.7480 C.3    94  ARG94       0.0489
    163  CD         6.6510   34.7880   -1.0680 C.3    94  ARG94       0.2205
    164  NE         6.5780   33.3260   -1.1020 N.pl3  94  ARG94      -0.0865
    165  CZ         5.6180   32.5930   -0.5430 C.cat  94  ARG94       0.5346
    166  NH1        4.6140   33.1780    0.1080 N.pl3  94  ARG94       0.1354
    167  NH2        5.6520   31.2690   -0.6310 N.pl3  94  ARG94       0.1354
    168  N         10.0280   40.8870   -5.5840 N.3    98  LYS98      -0.1245
    169  CA         9.1300   41.9780   -5.9390 C.3    98  LYS98       0.1561
    170  C          9.8870   43.2840   -6.1860 C.2    98  LYS98       0.2260
    171  O          9.8400   43.8170   -7.2930 O.2    98  LYS98      -0.2867
    172  CB         8.0430   42.1750   -4.8560 C.3    98  LYS98       0.0271
    173  CG         7.0490   41.0390   -4.8070 C.3    98  LYS98       0.0035
    174  CD         5.8320   41.3600   -3.9250 C.3    98  LYS98       0.0206
    175  CE         5.1120   40.1160   -3.4050 C.3    98  LYS98       0.1093
    176  NZ         5.5510   39.7290   -2.0270 N.3    98  LYS98      -0.1314
    177  N         15.1970   33.1650    2.4340 N.3   134  GLU134     -0.1231
    178  CA        14.1050   32.2070    2.5770 C.3   134  GLU134      0.1699
    179  C         13.7220   31.9610    4.0420 C.2   134  GLU134      0.2592
    180  O         12.5330   31.7480    4.3410 O.2   134  GLU134     -0.2718
    181  CB        14.4770   30.8860    1.8950 C.3   134  GLU134      0.0402
    182  CG        14.5780   30.9590    0.3730 C.3   134  GLU134      0.1161
    183  CD        15.9120   31.2750   -0.2940 C.2   134  GLU134      0.3649
    184  OE1       16.8540   31.7470    0.3880 O.co2 134  GLU134     -0.2457
    185  OE2       15.9820   31.1130   -1.5340 O.co2 134  GLU134     -0.2457
    186  N         14.7330   32.0030    4.9520 N.am  135  ASN135     -0.1974
    187  CA        14.5460   31.8720    6.4100 C.3   135  ASN135      0.1688
    188  C         14.3920   33.2300    7.1220 C.2   135  ASN135      0.2292
    189  O         14.4770   33.2700    8.3540 O.2   135  ASN135     -0.2864
    190  CB        15.7380   31.1850    7.0320 C.3   135  ASN135      0.1181
    191  CG        15.9760   29.7910    6.5420 C.2   135  ASN135      0.2629
    192  OD1       15.0320   29.0340    6.2180 O.2   135  ASN135     -0.2716
    193  ND2       17.2480   29.4050    6.5590 N.am  135  ASN135     -0.0877
    194  N         11.8450   36.4120    7.6560 N.3   137  LEU137     -0.1245
    195  CA        10.4490   36.7620    7.5140 C.3   137  LEU137      0.1561
    196  C         10.1240   38.0970    8.0900 C.2   137  LEU137      0.2260
    197  O         11.0010   38.7190    8.6700 O.2   137  LEU137     -0.2867
    198  CB         9.6250   35.6480    8.1420 C.3   137  LEU137      0.0270
    199  CG         9.6820   34.3570    7.3170 C.3   137  LEU137      0.0019
    200  CD1       10.2020   33.2150    8.1580 C.3   137  LEU137      0.0001
    201  CD2        8.3430   34.0780    6.6670 C.3   137  LEU137      0.0001
    202  N         13.9190   32.3700   11.1410 N.3   147  ALA147     -0.1231
    203  CA        13.3100   31.0530   11.3460 C.3   147  ALA147      0.1694
    204  C         14.3250   29.9410   11.0950 C.2   147  ALA147      0.2592
    205  O         15.4140   30.2150   10.5990 O.2   147  ALA147     -0.2718
    206  CB        12.1490   30.8820   10.3870 C.3   147  ALA147      0.0304
    207  N         13.9430   28.6820   11.4000 N.am  148  ASP148     -0.1974
    208  CA        14.7510   27.4750   11.1640 C.3   148  ASP148      0.1709
    209  C         16.2040   27.4630   11.7550 C.2   148  ASP148      0.2293
    210  O         17.1840   27.5490   11.0130 O.2   148  ASP148     -0.2864
    211  CB        14.7700   27.1580    9.6580 C.3   148  ASP148      0.1436
    212  CG        13.4170   26.9000    9.0190 C.2   148  ASP148      0.3671
    213  OD1       13.3250   26.9680    7.7710 O.co2 148  ASP148     -0.2456
    214  OD2       12.4490   26.6450    9.7560 O.co2 148  ASP148     -0.2456
    215  N         19.9190   23.9610   12.0320 N.3   151  TRP151     -0.1241
    216  CA        21.1860   23.7830   11.3220 C.3   151  TRP151      0.1605
    217  C         22.2630   24.7310   11.8720 C.2   151  TRP151      0.2264
    218  O         22.3360   24.9570   13.0820 O.2   151  TRP151     -0.2867
    219  CB        20.9470   24.0330    9.8160 C.3   151  TRP151      0.0550
    220  CG        20.0600   22.9990    9.1710 C.ar  151  TRP151      0.0003
    221  CD1       20.4640   21.9980    8.3400 C.ar  151  TRP151      0.0946
    222  CD2       18.6460   22.7870    9.3990 C.ar  151  TRP151      0.0152
    223  NE1       19.3880   21.2080    7.9890 N.ar  151  TRP151     -0.2442
    224  CE2       18.2680   21.6530    8.6470 C.ar  151  TRP151      0.0810
    225  CE3       17.6500   23.4830   10.1080 C.ar  151  TRP151      0.0012
    226  CZ2       16.9530   21.1690    8.6280 C.ar  151  TRP151      0.0191
    227  CZ3       16.3540   22.9940   10.1000 C.ar  151  TRP151      0.0001
    228  CH2       16.0150   21.8550    9.3610 C.ar  151  TRP151      0.0015
@<TRIPOS>BOND
     1   171   170    2
     2   170   169    1
     3   169   168    1
     4   169   172    1
     5   172   173    1
     6   173   174    1
     7   174   175    1
     8   175   176    1
     9   160   159    2
    10   159   158    1
    11   158   161    1
    12   158   157    1
    13   162   161    1
    14   162   163    1
    15   185   183   ar
    16   164   163    1
    17   164   165    2
    18   167   165    1
    19   165   166    1
    20   183   182    1
    21   183   184   ar
    22   182   181    1
    23    27    26    2
    24    10     9    1
    25    58    57    2
    26    29    32    1
    27    29    28    1
    28    29    30    1
    29    31    30    2
    30    59    57   am
    31    15    14    2
    32    26    28   am
    33    26    25    1
    34    32    33    1
    35    21    22    1
    36    21    20    1
    37    24    25    1
    38    22    23    2
    39   155   154    1
    40    57    56    1
    41     7     8    1
    42     7     6    1
    43    30    37   am
    44     9     8    2
    45     9    11    1
    46    14    20   am
    47    14    13    1
    48     5     6    2
    49     5     2    1
    50   153   152    2
    51   181   178    1
    52    56    53    1
    53    33    34    1
    54    34    35    1
    55   177   178    1
    56    51    50    2
    57   178   179    1
    58    37    38    1
    59   154   156    1
    60   154   151    1
    61    13    12    1
    62    13    16    1
    63     2     3    1
    64     2     1    1
    65   152   151    1
    66     3     4    2
    67    50    49    1
    68    50    52   am
    69    48    49    1
    70    48    39   am
    71    53    52    1
    72    53    54    1
    73    38    39    1
    74    38    41    1
    75   151   150    1
    76   150   148   am
    77    39    40    2
    78    35    36    1
    79   141   140    2
    80   179   180    2
    81   179   186   am
    82    16    17    1
    83    43    45   ar
    84    43    42   ar
    85    45    47   ar
    86   147   148    1
    87   147   146    1
    88    19    17    1
    89   148   149    2
    90    63    62    2
    91    54    60   am
    92    54    55    2
    93    60    61    1
    94    41    42    1
    95   140   146   am
    96   140   139    1
    97    42    44   ar
    98    47    46   ar
    99   186   187    1
   100    17    18    1
   101    65    64    1
   102    62    61    1
   103    44    46   ar
   104   139   142    1
   105   139   138    1
   106    61    64    1
   107   142   143    1
   108   134   133    2
   109   192   191    2
   110    64    66    1
   111   187   190    1
   112   187   188    1
   113   144   143    1
   114   145   143    1
   115   191   193   am
   116   191   190    1
   117   201   199    1
   118   138   133   am
   119    88    86    1
   120   133   132    1
   121   125   124    1
   122   188   189    2
   123    82    83    1
   124    82    81    1
   125    82    85    1
   126    83    84    2
   127   199   198    1
   128   199   200    1
   129   195   194    1
   130   195   196    1
   131   195   198    1
   132   129   128    2
   133   213   212   ar
   134   122   124   ar
   135   122   120   ar
   136    85    86    1
   137   223   221   ar
   138   223   224   ar
   139   124   123   ar
   140   196   197    2
   141    86    87    1
   142   132   135    1
   143   132   131    1
   144   221   220   ar
   145    77    78    1
   146    77    76    1
   147   226   224   ar
   148   226   228   ar
   149   224   222   ar
   150   128   131   am
   151   128   127    1
   152   120   119   ar
   153   135   136    1
   154   212   211    1
   155   212   214   ar
   156    78    79    1
   157   130   127    1
   158   131   137    1
   159   220   222   ar
   160   220   219    1
   161    73    74    1
   162    73    76    1
   163    73    72    1
   164    74    75    2
   165   123   121   ar
   166   228   227   ar
   167   222   225   ar
   168   211   208    1
   169   127   126    1
   170   219   216    1
   171    79    80    1
   172   227   225   ar
   173   119   121   ar
   174   119   118    1
   175   126   116   am
   176   137   136    1
   177   206   203    1
   178    71    68    1
   179   205   204    2
   180    68    69    1
   181    68    67    1
   182   210   209    2
   183   204   203    1
   184   204   207   am
   185   202   203    1
   186   208   207    1
   187   208   209    1
   188    69    70    2
   189   116   115    1
   190   116   117    2
   191   216   217    1
   192   216   215    1
   193   118   115    1
   194   115   114    1
   195    96    94    1
   196   217   218    2
   197   103   102    1
   198    95    94    1
   199   108   107    2
   200    94    93    1
   201   114   107   am
   202   107   106    1
   203   101   102    1
   204   101    98    1
   205    93    90    1
   206   102   104    1
   207   100    99    2
   208    99    98    1
   209    99   105   am
   210    98    97    1
   211   106   105    1
   212   106   109    1
   213    90    89    1
   214    90    91    1
   215   110   109    1
   216   110   111    1
   217   113   111   ar
   218   111   112   ar
   219    91    92    2
