@<TRIPOS>MOLECULE
tmp/3vaqA00.pdb
 177 162 0 0 0
SMALL
GASTEIGER

@<TRIPOS>ATOM
      1  N          6.4930  -12.8760    3.5980 N.3    12  ASN12      -0.1240
      2  CA         7.5430  -12.1300    2.9240 C.3    12  ASN12       0.1653
      3  C          8.5860  -13.0620    2.3220 C.2    12  ASN12       0.2266
      4  O          9.4290  -13.6000    3.0410 O.2    12  ASN12      -0.2867
      5  CB         8.2120  -11.1700    3.9090 C.3    12  ASN12       0.1155
      6  CG         7.2080  -10.3390    4.6820 C.2    12  ASN12       0.2627
      7  OD1        6.1420  -10.0010    4.1690 O.2    12  ASN12      -0.2716
      8  ND2        7.5420  -10.0090    5.9260 N.am   12  ASN12      -0.0877
      9  N         11.8600  -13.9520    0.9410 N.3    14  LEU14      -0.1245
     10  CA        13.1590  -13.3060    1.0690 C.3    14  LEU14       0.1561
     11  C         14.3010  -14.2210    0.6400 C.2    14  LEU14       0.2260
     12  O         14.1420  -15.4390    0.5500 O.2    14  LEU14      -0.2867
     13  CB        13.3780  -12.8510    2.5160 C.3    14  LEU14       0.0270
     14  CG        12.3220  -11.9110    3.1030 C.3    14  LEU14       0.0019
     15  CD1       12.5500  -11.7070    4.5890 C.3    14  LEU14       0.0001
     16  CD2       12.3180  -10.5750    2.3740 C.3    14  LEU14       0.0001
     17  N         18.0030  -15.4400    1.7710 N.3    16  ASP16      -0.1239
     18  CA        18.9840  -15.4740    2.8480 C.3    16  ASP16       0.1674
     19  C         20.4020  -15.4330    2.2960 C.2    16  ASP16       0.2266
     20  O         20.7570  -16.2040    1.4040 O.2    16  ASP16      -0.2867
     21  CB        18.7980  -16.7140    3.7260 C.3    16  ASP16       0.1410
     22  CG        17.5130  -16.6740    4.5270 C.2    16  ASP16       0.3668
     23  OD1       16.8840  -15.5960    4.5830 O.co2  16  ASP16      -0.2456
     24  OD2       17.1350  -17.7150    5.1070 O.co2  16  ASP16      -0.2456
     25  N         16.7080  -10.7500   15.3200 N.3    36  ILE36      -0.1245
     26  CA        16.5180  -10.2160   13.9800 C.3    36  ILE36       0.1561
     27  C         16.0650   -8.7610   14.0620 C.2    36  ILE36       0.2260
     28  O         15.2440   -8.3990   14.9060 O.2    36  ILE36      -0.2867
     29  CB        15.5230  -11.0800   13.1540 C.3    36  ILE36       0.0252
     30  CG1       15.4470  -10.6010   11.6970 C.3    36  ILE36       0.0019
     31  CG2       14.1510  -11.1190   13.8150 C.3    36  ILE36       0.0019
     32  CD1       14.3150   -9.6280   11.3980 C.3    36  ILE36       0.0001
     33  N         15.0290   -5.2080   11.4770 N.3    38  LEU38      -0.1245
     34  CA        14.7780   -4.6640   10.1530 C.3    38  LEU38       0.1561
     35  C         15.8400   -3.6180    9.8440 C.2    38  LEU38       0.2260
     36  O         16.2040   -2.8200   10.7060 O.2    38  LEU38      -0.2867
     37  CB        13.3780   -4.0570   10.0720 C.3    38  LEU38       0.0270
     38  CG        12.2300   -5.0230   10.3810 C.3    38  LEU38       0.0019
     39  CD1       10.8810   -4.3530   10.1620 C.3    38  LEU38       0.0001
     40  CD2       12.3480   -6.2890    9.5450 C.3    38  LEU38       0.0001
     41  N         14.5520  -17.7850    1.5740 N.3    61  GLY61      -0.1210
     42  CA        14.1410  -17.5690    2.9500 C.3    61  GLY61       0.1956
     43  C         12.7040  -17.1040    3.0770 C.2    61  GLY61       0.2612
     44  O         11.8740  -17.3780    2.2110 O.2    61  GLY61      -0.2717
     45  N         12.4150  -16.3890    4.1590 N.am   62  GLY62      -0.1942
     46  CA        11.0570  -15.9770    4.4660 C.3    62  GLY62       0.2014
     47  C         10.4350  -16.9400    5.4590 C.2    62  GLY62       0.2639
     48  O         10.2660  -18.1210    5.1590 O.2    62  GLY62      -0.2714
     49  N         10.1000  -16.4340    6.6430 N.am   63  ALA63      -0.1963
     50  CA         9.6020  -17.2700    7.7330 C.3    63  ALA63       0.1728
     51  C          8.3600  -18.0710    7.3500 C.2    63  ALA63       0.2616
     52  O          8.3190  -19.2890    7.5280 O.2    63  ALA63      -0.2715
     53  CB         9.3310  -16.4260    8.9720 C.3    63  ALA63       0.0334
     54  N          7.3530  -17.3820    6.8220 N.am   64  THR64      -0.1951
     55  CA         6.1080  -18.0340    6.4290 C.3    64  THR64       0.1897
     56  C          6.3360  -19.0070    5.2750 C.2    64  THR64       0.2313
     57  O          5.7890  -20.1100    5.2630 O.2    64  THR64      -0.2863
     58  CB         5.0310  -17.0080    6.0270 C.3    64  THR64       0.1794
     59  OG1        4.8160  -16.0890    7.1040 O.3    64  THR64      -0.2208
     60  CG2        3.7210  -17.7090    5.6990 C.3    64  THR64       0.0378
     61  N          9.1020  -20.6060    4.4920 N.3    66  ASN66      -0.1240
     62  CA         9.8140  -21.7750    5.0030 C.3    66  ASN66       0.1653
     63  C          8.8690  -22.8100    5.6060 C.2    66  ASN66       0.2266
     64  O          8.9660  -24.0010    5.3130 O.2    66  ASN66      -0.2867
     65  CB        10.8550  -21.3670    6.0490 C.3    66  ASN66       0.1155
     66  CG        12.0570  -20.6700    5.4430 C.2    66  ASN66       0.2627
     67  OD1       12.3170  -20.7760    4.2440 O.2    66  ASN66      -0.2716
     68  ND2       12.8090  -19.9630    6.2780 N.am   66  ASN66      -0.0877
     69  N         17.9030  -11.1890    3.4350 N.3   121  VAL121     -0.1245
     70  CA        18.2830  -11.2580    4.8380 C.3   121  VAL121      0.1561
     71  C         19.7740  -11.5380    4.9780 C.2   121  VAL121      0.2260
     72  O         20.2710  -12.5540    4.4960 O.2   121  VAL121     -0.2867
     73  CB        17.5030  -12.3560    5.5880 C.3   121  VAL121      0.0252
     74  CG1       17.9640  -12.4350    7.0340 C.3   121  VAL121      0.0019
     75  CG2       16.0110  -12.0880    5.5170 C.3   121  VAL121      0.0019
     76  N         24.8870  -15.4430   16.3880 N.3   130  ARG130     -0.1245
     77  CA        24.1850  -15.5260   15.1110 C.3   130  ARG130      0.1563
     78  C         23.1040  -14.4490   15.0670 C.2   130  ARG130      0.2260
     79  O         22.2680  -14.3640   15.9660 O.2   130  ARG130     -0.2867
     80  CB        23.5610  -16.9070   14.9090 C.3   130  ARG130      0.0307
     81  CG        22.8160  -17.0490   13.5880 C.3   130  ARG130      0.0489
     82  CD        22.1130  -18.3910   13.4750 C.3   130  ARG130      0.2205
     83  NE        21.0610  -18.5490   14.4760 N.pl3 130  ARG130     -0.0865
     84  CZ        19.8010  -18.1580   14.3060 C.cat 130  ARG130      0.5346
     85  NH1       19.4310  -17.5810   13.1700 N.pl3 130  ARG130      0.1354
     86  NH2       18.9120  -18.3430   15.2720 N.pl3 130  ARG130      0.1354
     87  N         20.5680  -11.6190   12.3870 N.3   132  MET132     -0.1245
     88  CA        19.9820  -11.3480   11.0770 C.3   132  MET132      0.1570
     89  C         19.6130   -9.8800   10.8890 C.2   132  MET132      0.2261
     90  O         19.0520   -9.2460   11.7850 O.2   132  MET132     -0.2867
     91  CB        18.7390  -12.2140   10.8570 C.3   132  MET132      0.0387
     92  CG        19.0330  -13.6820   10.6080 C.3   132  MET132      0.0595
     93  SD        17.5320  -14.6250   10.2700 S.3   132  MET132     -0.1393
     94  CE        16.6820  -14.4880   11.8410 C.3   132  MET132      0.0692
     95  N         17.4470   -7.6870    8.1740 N.3   134  THR134     -0.1218
     96  CA        16.5000   -7.8950    7.0850 C.3   134  THR134      0.1862
     97  C         16.1630   -6.6260    6.3070 C.2   134  THR134      0.2287
     98  O         15.7790   -5.6090    6.8840 O.2   134  THR134     -0.2866
     99  CB        15.1890   -8.5200    7.6050 C.3   134  THR134      0.1770
    100  OG1       15.4760   -9.7740    8.2340 O.3   134  THR134     -0.2211
    101  CG2       14.2090   -8.7460    6.4660 C.3   134  THR134      0.0375
    102  N         13.4630   -5.7330    3.7280 N.3   136  LEU136     -0.1245
    103  CA        12.2170   -6.2870    3.2030 C.3   136  LEU136      0.1561
    104  C         12.0410   -6.0820    1.7030 C.2   136  LEU136      0.2260
    105  O         11.5730   -6.9790    1.0030 O.2   136  LEU136     -0.2867
    106  CB        11.0160   -5.7210    3.9650 C.3   136  LEU136      0.0270
    107  CG        10.8730   -6.2070    5.4090 C.3   136  LEU136      0.0019
    108  CD1        9.7200   -5.5030    6.1060 C.3   136  LEU136      0.0001
    109  CD2       10.6800   -7.7120    5.4400 C.3   136  LEU136      0.0001
    110  N          5.7390  -11.5300   11.1380 N.3   167  PHE167     -0.1227
    111  CA         6.5670  -10.6940   10.2740 C.3   167  PHE167      0.1736
    112  C          5.7520   -9.9670    9.2090 C.2   167  PHE167      0.2595
    113  O          6.1500   -8.9070    8.7290 O.2   167  PHE167     -0.2718
    114  CB         7.6340  -11.5480    9.5910 C.3   167  PHE167      0.0547
    115  CG         8.7940  -11.8990   10.4750 C.ar  167  PHE167     -0.0202
    116  CD1        9.4400  -10.9220   11.2170 C.ar  167  PHE167     -0.0042
    117  CD2        9.2430  -13.2080   10.5630 C.ar  167  PHE167     -0.0042
    118  CE1       10.5140  -11.2450   12.0300 C.ar  167  PHE167     -0.0003
    119  CE2       10.3130  -13.5380   11.3750 C.ar  167  PHE167     -0.0003
    120  CZ        10.9500  -12.5550   12.1090 C.ar  167  PHE167     -0.0000
    121  N          4.6120  -10.5420    8.8440 N.am  168  VAL168     -0.1980
    122  CA         3.7670   -9.9890    7.7890 C.3   168  VAL168      0.1595
    123  C          3.0880   -8.6870    8.2340 C.2   168  VAL168      0.2287
    124  O          2.5820   -7.9220    7.4100 O.2   168  VAL168     -0.2864
    125  CB         2.7250  -11.0310    7.3220 C.3   168  VAL168      0.0276
    126  CG1        2.0350  -10.5850    6.0410 C.3   168  VAL168      0.0022
    127  CG2        3.4030  -12.3690    7.1030 C.3   168  VAL168      0.0022
    128  N          4.5310   -6.0660    9.2490 N.3   170  ASN170     -0.1240
    129  CA         5.2940   -4.9450    8.7060 C.3   170  ASN170      0.1653
    130  C          5.0600   -4.7000    7.2150 C.2   170  ASN170      0.2266
    131  O          5.3710   -3.6250    6.7060 O.2   170  ASN170     -0.2867
    132  CB         6.7930   -5.1390    8.9580 C.3   170  ASN170      0.1155
    133  CG         7.1280   -5.2720   10.4320 C.2   170  ASN170      0.2627
    134  OD1        7.8230   -6.2040   10.8400 O.2   170  ASN170     -0.2716
    135  ND2        6.6350   -4.3390   11.2400 N.am  170  ASN170     -0.0877
    136  N         10.6830   -7.7640   18.6650 N.3   198  PHE198     -0.1241
    137  CA        10.3630   -6.3760   18.3280 C.3   198  PHE198      0.1605
    138  C          8.9010   -6.1900   17.9190 C.2   198  PHE198      0.2264
    139  O          8.3540   -5.0920   18.0280 O.2   198  PHE198     -0.2867
    140  CB        11.3190   -5.8160   17.2600 C.3   198  PHE198      0.0534
    141  CG        11.0880   -6.3590   15.8730 C.ar  198  PHE198     -0.0203
    142  CD1       10.2010   -5.7360   15.0050 C.ar  198  PHE198     -0.0042
    143  CD2       11.7810   -7.4720   15.4250 C.ar  198  PHE198     -0.0042
    144  CE1        9.9930   -6.2280   13.7280 C.ar  198  PHE198     -0.0003
    145  CE2       11.5800   -7.9660   14.1460 C.ar  198  PHE198     -0.0003
    146  CZ        10.6840   -7.3450   13.2980 C.ar  198  PHE198     -0.0000
    147  N         19.3260  -21.7660   12.3280 N.3   296  ASN296     -0.1225
    148  CA        18.5240  -20.7890   11.6050 C.3   296  ASN296      0.1785
    149  C         17.3430  -21.4450   10.8970 C.2   296  ASN296      0.2597
    150  O         17.5250  -22.2610    9.9940 O.2   296  ASN296     -0.2718
    151  CB        19.3920  -20.0280   10.5970 C.3   296  ASN296      0.1169
    152  CG        18.6310  -18.9250    9.8840 C.2   296  ASN296      0.2627
    153  OD1       18.4830  -17.8190   10.4060 O.2   296  ASN296     -0.2716
    154  ND2       18.1510  -19.2180    8.6800 N.am  296  ASN296     -0.0877
    155  N         16.1330  -21.0910   11.3190 N.am  297  GLY297     -0.1957
    156  CA        14.9300  -21.6260   10.7110 C.3   297  GLY297      0.1869
    157  C         14.3510  -22.8210   11.4470 C.2   297  GLY297      0.2309
    158  O         13.4030  -23.4500   10.9740 O.2   297  GLY297     -0.2863
    159  N         10.7380  -22.1260   12.3330 N.3   300  ASP300     -0.1239
    160  CA         9.8740  -22.2120   11.1590 C.3   300  ASP300      0.1674
    161  C          9.5660  -23.6700   10.8390 C.2   300  ASP300      0.2266
    162  O          8.4400  -24.0140   10.4780 O.2   300  ASP300     -0.2867
    163  CB        10.5340  -21.5440    9.9530 C.3   300  ASP300      0.1410
    164  CG        10.8470  -20.0790   10.1940 C.2   300  ASP300      0.3668
    165  OD1       10.1290  -19.4360   10.9900 O.co2 300  ASP300     -0.2456
    166  OD2       11.8120  -19.5700    9.5850 O.co2 300  ASP300     -0.2456
    167  N         17.7860  -23.0440    5.5220 N.3   336  PHE336     -0.1241
    168  CA        16.5420  -23.7940    5.4310 C.3   336  PHE336      0.1605
    169  C         16.5150  -24.6030    4.1380 C.2   336  PHE336      0.2264
    170  O         15.8180  -24.2500    3.1850 O.2   336  PHE336     -0.2867
    171  CB        15.3360  -22.8560    5.5040 C.3   336  PHE336      0.0534
    172  CG        14.0710  -23.5340    5.9440 C.ar  336  PHE336     -0.0203
    173  CD1       13.7580  -23.6370    7.2910 C.ar  336  PHE336     -0.0042
    174  CD2       13.1980  -24.0750    5.0140 C.ar  336  PHE336     -0.0042
    175  CE1       12.5960  -24.2640    7.7020 C.ar  336  PHE336     -0.0003
    176  CE2       12.0350  -24.7040    5.4190 C.ar  336  PHE336     -0.0003
    177  CZ        11.7330  -24.7980    6.7650 C.ar  336  PHE336     -0.0000
@<TRIPOS>BOND
     1    12    11    2
     2    11    10    1
     3     9    10    1
     4   105   104    2
     5    10    13    1
     6    20    19    2
     7    41    42    1
     8   104   103    1
     9    17    18    1
    10    44    43    2
    11    19    18    1
    12     3     2    1
    13     3     4    2
    14    16    14    1
    15    13    14    1
    16    18    21    1
    17     2     1    1
    18     2     5    1
    19    42    43    1
    20    43    45   am
    21    14    15    1
    22   170   169    2
    23   103   102    1
    24   103   106    1
    25    69    70    1
    26    21    22    1
    27     5     6    1
    28   106   107    1
    29   169   168    1
    30    45    46    1
    31     7     6    2
    32    67    66    2
    33    46    47    1
    34    61    62    1
    35    72    71    2
    36    22    23   ar
    37    22    24   ar
    38     6     8   am
    39    70    71    1
    40    70    73    1
    41    62    63    1
    42    62    65    1
    43   174   176   ar
    44   174   172   ar
    45    48    47    2
    46    57    56    2
    47    56    55    1
    48    64    63    2
    49   107   109    1
    50   107   108    1
    51   176   177   ar
    52   168   171    1
    53   168   167    1
    54    66    65    1
    55    66    68   am
    56    47    49   am
    57   171   172    1
    58    75    73    1
    59    73    74    1
    60    60    58    1
    61   172   173   ar
    62    58    55    1
    63    58    59    1
    64   126   125    1
    65    97    98    2
    66    97    96    1
    67    55    54    1
    68   101    99    1
    69    49    50    1
    70   131   130    2
    71   177   175   ar
    72    54    51   am
    73    96    99    1
    74    96    95    1
    75   127   125    1
    76   130   129    1
    77   173   175   ar
    78   125   122    1
    79    51    52    2
    80    51    50    1
    81   124   123    2
    82    99   100    1
    83    50    53    1
    84   122   123    1
    85   122   121    1
    86   154   152   am
    87   129   132    1
    88   129   128    1
    89   113   112    2
    90   121   112   am
    91   132   133    1
    92   112   111    1
    93    40    38    1
    94   166   164   ar
    95   114   111    1
    96   114   115    1
    97    35    34    1
    98    35    36    2
    99   152   153    2
   100   152   151    1
   101   163   164    1
   102   163   160    1
   103   150   149    2
   104    37    34    1
   105    37    38    1
   106    34    33    1
   107    39    38    1
   108   164   165   ar
   109    93    92    1
   110    93    94    1
   111   111   110    1
   112   133   134    2
   113   133   135   am
   114   115   117   ar
   115   115   116   ar
   116   162   161    2
   117   117   119   ar
   118   151   148    1
   119    92    91    1
   120   156   155    1
   121   156   157    1
   122   161   160    1
   123    91    88    1
   124    89    88    1
   125    89    90    2
   126   149   155   am
   127   149   148    1
   128   158   157    2
   129    88    87    1
   130   160   159    1
   131   116   118   ar
   132   119   120   ar
   133    32    30    1
   134   148   147    1
   135    30    29    1
   136   118   120   ar
   137    29    31    1
   138    29    26    1
   139    85    84    1
   140   146   144   ar
   141   146   145   ar
   142    82    81    1
   143    82    83    1
   144    81    80    1
   145   144   142   ar
   146    26    27    1
   147    26    25    1
   148    27    28    2
   149   145   143   ar
   150    84    83    2
   151    84    86    1
   152    80    77    1
   153   142   141   ar
   154    78    77    1
   155    78    79    2
   156    77    76    1
   157   143   141   ar
   158   141   140    1
   159   140   137    1
   160   138   139    2
   161   138   137    1
   162   137   136    1
