@<TRIPOS>MOLECULE
tmp/3vaxB00.pdb
 126 116 0 0 0
SMALL
GASTEIGER

@<TRIPOS>ATOM
      1  N         18.8840    3.4030   16.3660 N.3    66  SER66      -0.1202
      2  CA        17.6290    4.1180   16.2200 C.3    66  SER66       0.2020
      3  C         17.8510    5.5880   15.8720 C.2    66  SER66       0.2619
      4  O         16.9010    6.3690   15.8220 O.2    66  SER66      -0.2717
      5  CB        16.7590    3.9650   17.4800 C.3    66  SER66       0.2103
      6  OG        17.3370    4.6380   18.5860 O.3    66  SER66      -0.2182
      7  N         19.1040    5.9520   15.6070 N.am   67  GLY67      -0.1942
      8  CA        19.4620    7.3300   15.2930 C.3    67  GLY67       0.2014
      9  C         20.9000    7.6470   15.6530 C.2    67  GLY67       0.2639
     10  O         21.5700    6.8460   16.3070 O.2    67  GLY67      -0.2714
     11  N         21.3790    8.8150   15.2180 N.am   68  ALA68      -0.1963
     12  CA        22.7110    9.2900   15.6020 C.3    68  ALA68       0.1728
     13  C         22.8300    9.5380   17.1190 C.2    68  ALA68       0.2616
     14  O         23.9170    9.3980   17.6860 O.2    68  ALA68      -0.2715
     15  CB        23.0990   10.5380   14.8040 C.3    68  ALA68       0.0334
     16  N         21.7140    9.8680   17.7760 N.am   69  THR69      -0.1951
     17  CA        21.6960   10.0330   19.2360 C.3    69  THR69       0.1897
     18  C         22.1420    8.7360   19.9070 C.2    69  THR69       0.2313
     19  O         23.0470    8.7310   20.7440 O.2    69  THR69      -0.2863
     20  CB        20.2880   10.4600   19.7540 C.3    69  THR69       0.1794
     21  OG1       19.9390   11.7310   19.1950 O.3    69  THR69      -0.2208
     22  CG2       20.2460   10.5540   21.2800 C.3    69  THR69       0.0378
     23  N         25.7730    7.9370   19.0490 N.3    72  ASN72      -0.1240
     24  CA        26.7100    8.7080   19.8820 C.3    72  ASN72       0.1653
     25  C         26.8690    8.1350   21.2820 C.2    72  ASN72       0.2266
     26  O         27.9770    8.1100   21.7990 O.2    72  ASN72      -0.2867
     27  CB        26.3350   10.1910   19.9670 C.3    72  ASN72       0.1155
     28  CG        26.5510   10.9390   18.6580 C.2    72  ASN72       0.2627
     29  OD1       25.8940   11.9520   18.3940 O.2    72  ASN72      -0.2716
     30  ND2       27.4640   10.4480   17.8340 N.am   72  ASN72      -0.0877
     31  N         26.6880   18.7760   19.0780 N.3    98  HIS98      -0.1241
     32  CA        25.2830   18.5180   19.3470 C.3    98  HIS98       0.1621
     33  C         25.1690   17.9490   20.7580 C.2    98  HIS98       0.2264
     34  O         26.1010   17.3110   21.2450 O.2    98  HIS98      -0.2867
     35  CB        24.7830   17.5070   18.3140 C.3    98  HIS98       0.0745
     36  CG        23.3490   17.1170   18.4670 C.ar   98  HIS98       0.0817
     37  ND1       22.3320   17.7250   17.7650 N.ar   98  HIS98      -0.2268
     38  CD2       22.7660   16.1450   19.2040 C.ar   98  HIS98       0.1154
     39  CE1       21.1820   17.1640   18.0820 C.ar   98  HIS98       0.1986
     40  NE2       21.4190   16.1970   18.9490 N.ar   98  HIS98      -0.2212
     41  N         23.8370   15.3640   21.8100 N.3   100  ALA100     -0.1245
     42  CA        24.0080   13.9010   21.8630 C.3   100  ALA100      0.1562
     43  C         25.4660   13.4570   22.0000 C.2   100  ALA100      0.2260
     44  O         25.7460   12.2720   22.2090 O.2   100  ALA100     -0.2867
     45  CB        23.3740   13.2450   20.6730 C.3   100  ALA100      0.0290
     46  N         32.4830   16.5100   15.8580 N.3   145  MET145     -0.1245
     47  CA        31.4770   16.4260   14.8180 C.3   145  MET145      0.1570
     48  C         32.1230   16.6640   13.4340 C.2   145  MET145      0.2261
     49  O         33.1700   17.3160   13.3230 O.2   145  MET145     -0.2867
     50  CB        30.3510   17.4110   15.1050 C.3   145  MET145      0.0387
     51  CG        30.7430   18.8660   14.9310 C.3   145  MET145      0.0595
     52  SD        29.7010   19.9680   15.8920 S.3   145  MET145     -0.1393
     53  CE        28.0870   19.1730   15.7610 C.3   145  MET145      0.0692
     54  N         30.3710   18.0490   10.6530 N.3   147  VAL147     -0.1245
     55  CA        29.8310   19.3140   10.1940 C.3   147  VAL147      0.1561
     56  C         28.9210   19.8260   11.3020 C.2   147  VAL147      0.2260
     57  O         28.0390   19.0990   11.7650 O.2   147  VAL147     -0.2867
     58  CB        29.0380   19.1330    8.8650 C.3   147  VAL147      0.0252
     59  CG1       28.2630   20.4020    8.4960 C.3   147  VAL147      0.0019
     60  CG2       29.9710   18.7120    7.7250 C.3   147  VAL147      0.0019
     61  N         25.9190   21.3320   13.0130 N.3   149  ASN149     -0.1240
     62  CA        24.5190   21.3700   12.5880 C.3   149  ASN149      0.1653
     63  C         23.9320   22.7780   12.5190 C.2   149  ASN149      0.2266
     64  O         23.0430   23.0580   11.7190 O.2   149  ASN149     -0.2867
     65  CB        23.6650   20.4880   13.5020 C.3   149  ASN149      0.1155
     66  CG        23.9170   20.7570   14.9900 C.2   149  ASN149      0.2627
     67  OD1       25.0730   20.8480   15.4420 O.2   149  ASN149     -0.2716
     68  ND2       22.8280   20.8750   15.7630 N.am  149  ASN149     -0.0877
     69  N         30.8680   12.5060   14.9400 N.3   174  ASP174     -0.1239
     70  CA        29.4260   12.6550   14.7800 C.3   174  ASP174      0.1674
     71  C         29.2130   13.2250   13.3800 C.2   174  ASP174      0.2266
     72  O         29.3550   14.4260   13.1740 O.2   174  ASP174     -0.2867
     73  CB        28.8510   13.5930   15.8540 C.3   174  ASP174      0.1410
     74  CG        27.3260   13.7480   15.7660 C.2   174  ASP174      0.3668
     75  OD1       26.7260   14.3910   16.6560 O.co2 174  ASP174     -0.2456
     76  OD2       26.7190   13.2220   14.8160 O.co2 174  ASP174     -0.2456
     77  N         26.4280   13.1440   11.5560 N.3   176  ALA176     -0.1231
     78  CA        25.0090   13.2720   11.2670 C.3   176  ALA176      0.1694
     79  C         24.7590   14.2710   10.1450 C.2   176  ALA176      0.2591
     80  O         23.9770   13.9920    9.2350 O.2   176  ALA176     -0.2718
     81  CB        24.2230   13.6610   12.5210 C.3   176  ALA176      0.0304
     82  N         25.4390   15.4130   10.1930 N.am  177  GLN177     -0.1979
     83  CA        25.2860   16.4340    9.1490 C.3   177  GLN177      0.1601
     84  C         26.3180   16.3660    8.0240 C.2   177  GLN177      0.2287
     85  O         26.1850   17.0500    7.0080 O.2   177  GLN177     -0.2864
     86  CB        25.2290   17.8380    9.7560 C.3   177  GLN177      0.0394
     87  CG        23.8330   18.2390   10.2000 C.3   177  GLN177      0.0908
     88  CD        22.9120   18.6480    9.0430 C.2   177  GLN177      0.2608
     89  OE1       23.1950   18.3990    7.8600 O.2   177  GLN177     -0.2717
     90  NE2       21.8050   19.2920    9.3910 N.am  177  GLN177     -0.0878
     91  N         23.0360    9.6280   10.9470 N.3   196  SER196     -0.1217
     92  CA        21.6110    9.8350   11.1480 C.3   196  SER196      0.1889
     93  C         20.8260    9.6980    9.8440 C.2   196  SER196      0.2288
     94  O         21.0990   10.3950    8.8510 O.2   196  SER196     -0.2866
     95  CB        21.3830   11.2310   11.6810 C.3   196  SER196      0.2089
     96  OG        20.0030   11.4940   11.7450 O.3   196  SER196     -0.2183
     97  N         17.5580   10.5950    9.0850 N.3   198  HIS198     -0.1226
     98  CA        16.6670   11.6630    8.6180 C.3   198  HIS198      0.1752
     99  C         17.4160   12.8860    8.1140 C.2   198  HIS198      0.2595
    100  O         16.8750   13.7140    7.3720 O.2   198  HIS198     -0.2718
    101  CB        15.6070   12.0280    9.6600 C.3   198  HIS198      0.0759
    102  CG        16.1620   12.6400   10.9010 C.ar  198  HIS198      0.0818
    103  ND1       16.3340   13.9990   11.0440 N.ar  198  HIS198     -0.2268
    104  CD2       16.5750   12.0820   12.0640 C.ar  198  HIS198      0.1154
    105  CE1       16.8360   14.2520   12.2410 C.ar  198  HIS198      0.1986
    106  NE2       16.9830   13.1070   12.8830 N.ar  198  HIS198     -0.2212
    107  N         18.6790   12.9710    8.4960 N.am  199  LYS199     -0.1980
    108  CA        19.5440   14.0250    8.0450 C.3   199  LYS199      0.1596
    109  C         19.8960   13.8890    6.5620 C.2   199  LYS199      0.2287
    110  O         20.2420   14.8800    5.9160 O.2   199  LYS199     -0.2864
    111  CB        20.7960   14.0340    8.9050 C.3   199  LYS199      0.0298
    112  CG        21.0630   15.3750    9.5340 C.3   199  LYS199      0.0038
    113  CD        20.1100   15.6460   10.6560 C.3   199  LYS199      0.0206
    114  CE        20.7550   15.2550   11.9470 C.3   199  LYS199      0.1093
    115  NZ        19.8110   15.3320   13.1010 N.3   199  LYS199     -0.1314
    116  N         14.1300    7.8300   12.9970 N.3   205  GLY205     -0.1210
    117  CA        14.1030    6.6340   13.8240 C.3   205  GLY205      0.1956
    118  C         15.1090    5.5710   13.4360 C.2   205  GLY205      0.2611
    119  O         15.0010    4.4300   13.8690 O.2   205  GLY205     -0.2717
    120  N         16.0950    5.9450   12.6250 N.am  206  VAL206     -0.1979
    121  CA        17.1300    5.0190   12.2250 C.3   206  VAL206      0.1595
    122  C         18.4570    5.7440   12.0040 C.2   206  VAL206      0.2287
    123  O         18.5020    6.8760   11.5000 O.2   206  VAL206     -0.2864
    124  CB        16.7060    4.1970   10.9760 C.3   206  VAL206      0.0276
    125  CG1       16.6630    5.0730    9.7100 C.3   206  VAL206      0.0022
    126  CG2       17.6080    2.9800   10.8000 C.3   206  VAL206      0.0022
@<TRIPOS>BOND
     1   110   109    2
     2   109   108    1
     3    85    84    2
     4   100    99    2
     5    60    58    1
     6    89    88    2
     7    84    83    1
     8   108   107    1
     9   108   111    1
    10    99   107   am
    11    99    98    1
    12    59    58    1
    13    98    97    1
    14    98   101    1
    15    94    93    2
    16    58    55    1
    17   111   112    1
    18    88    90   am
    19    88    87    1
    20    83    86    1
    21    83    82    1
    22    80    79    2
    23   112   113    1
    24   101   102    1
    25   125   124    1
    26    86    87    1
    27    93    92    1
    28    79    82   am
    29    79    78    1
    30    55    54    1
    31    55    56    1
    32   113   114    1
    33   126   124    1
    34   102   103   ar
    35   102   104   ar
    36    91    92    1
    37   124   121    1
    38   103   105   ar
    39    92    95    1
    40    78    77    1
    41    78    81    1
    42    56    57    2
    43   123   122    2
    44    95    96    1
    45    64    63    2
    46   114   115    1
    47   122   121    1
    48   104   106   ar
    49   121   120    1
    50   105   106   ar
    51    63    62    1
    52    62    61    1
    53    62    65    1
    54   120   118   am
    55   116   117    1
    56    72    71    2
    57    49    48    2
    58    71    70    1
    59    48    47    1
    60   118   117    1
    61   118   119    2
    62    65    66    1
    63    70    69    1
    64    70    73    1
    65    15    12    1
    66    76    74   ar
    67    47    50    1
    68    47    46    1
    69    51    50    1
    70    51    52    1
    71    66    67    2
    72    66    68   am
    73    11    12    1
    74    11     9   am
    75     8     7    1
    76     8     9    1
    77    12    13    1
    78     7     3   am
    79     9    10    2
    80    53    52    1
    81    74    73    1
    82    74    75   ar
    83     4     3    2
    84     3     2    1
    85     2     1    1
    86     2     5    1
    87    13    14    2
    88    13    16   am
    89     5     6    1
    90    37    39   ar
    91    37    36   ar
    92    16    17    1
    93    30    28   am
    94    39    40   ar
    95    35    36    1
    96    35    32    1
    97    29    28    2
    98    36    38   ar
    99    28    27    1
   100    40    38   ar
   101    23    24    1
   102    31    32    1
   103    21    20    1
   104    17    20    1
   105    17    18    1
   106    32    33    1
   107    20    22    1
   108    24    27    1
   109    24    25    1
   110    18    19    2
   111    45    42    1
   112    33    34    2
   113    25    26    2
   114    41    42    1
   115    42    43    1
   116    43    44    2
