@<TRIPOS>MOLECULE
tmp/3vb0B00.pdb
 93 88 0 0 0
SMALL
GASTEIGER

@<TRIPOS>ATOM
      1  N         -3.6630   44.9370   24.3870 N.3    19  GLN19      -0.1245
      2  CA        -3.1240   43.7020   24.9610 C.3    19  GLN19       0.1566
      3  C         -1.6000   43.7170   25.0320 C.2    19  GLN19       0.2260
      4  O         -1.0130   43.2080   25.9870 O.2    19  GLN19      -0.2867
      5  CB        -3.6000   42.4730   24.1490 C.3    19  GLN19       0.0367
      6  CG        -5.1620   42.4040   24.0170 C.3    19  GLN19       0.0905
      7  CD        -5.6850   41.4600   22.9280 C.2    19  GLN19       0.2608
      8  OE1       -4.9180   40.8090   22.2120 O.2    19  GLN19      -0.2717
      9  NE2       -7.0090   41.3850   22.8080 N.am   19  GLN19      -0.0878
     10  N         -0.2840   45.4640   28.0380 N.3    22  VAL22      -0.1231
     11  CA        -0.2360   44.5340   29.1660 C.3    22  VAL22       0.1692
     12  C          1.0960   43.7470   29.1840 C.2    22  VAL22       0.2591
     13  O          1.7810   43.7130   30.1890 O.2    22  VAL22      -0.2718
     14  CB        -1.4200   43.5450   29.1590 C.3    22  VAL22       0.0266
     15  CG1       -1.2860   42.5320   30.3150 C.3    22  VAL22       0.0020
     16  CG2       -2.7650   44.2890   29.2530 C.3    22  VAL22       0.0020
     17  N          1.4630   43.1370   28.0630 N.am   23  VAL23      -0.1980
     18  CA         2.7310   42.4090   27.9760 C.3    23  VAL23       0.1595
     19  C          3.8900   43.2800   28.4850 C.2    23  VAL23       0.2287
     20  O          4.6190   42.8820   29.4120 O.2    23  VAL23      -0.2864
     21  CB         2.9960   41.9130   26.5460 C.3    23  VAL23       0.0276
     22  CG1        4.3850   41.3030   26.4000 C.3    23  VAL23       0.0022
     23  CG2        1.9390   40.8980   26.1400 C.3    23  VAL23       0.0022
     24  N          3.7030   42.5150   32.4950 N.3    27  ILE27      -0.1245
     25  CA         4.5390   41.3390   32.5850 C.3    27  ILE27       0.1561
     26  C          6.0350   41.7110   32.5810 C.2    27  ILE27       0.2260
     27  O          6.7580   41.3990   33.5370 O.2    27  ILE27      -0.2867
     28  CB         4.1710   40.3310   31.4850 C.3    27  ILE27       0.0252
     29  CG1        2.7090   39.8780   31.6970 C.3    27  ILE27       0.0019
     30  CG2        5.1390   39.1560   31.5230 C.3    27  ILE27       0.0019
     31  CD1        2.0880   39.1580   30.5460 C.3    27  ILE27       0.0001
     32  N          2.8790   35.9420   34.0930 N.3   226  VAL226     -0.1245
     33  CA         2.2220   35.2880   32.9540 C.3   226  VAL226      0.1561
     34  C          1.1890   34.2740   33.4720 C.2   226  VAL226      0.2260
     35  O          0.0320   34.3020   33.0730 O.2   226  VAL226     -0.2867
     36  CB         3.2510   34.5970   31.9710 C.3   226  VAL226      0.0252
     37  CG1        2.5530   33.8630   30.8200 C.3   226  VAL226      0.0019
     38  CG2        4.2260   35.6040   31.4110 C.3   226  VAL226      0.0019
     39  N         -1.6980   35.9350   35.7870 N.3   229  LEU229     -0.1231
     40  CA        -2.6330   36.7300   35.0040 C.3   229  LEU229      0.1693
     41  C         -3.4050   35.8340   34.0550 C.2   229  LEU229      0.2593
     42  O         -4.1670   36.3030   33.1990 O.2   229  LEU229     -0.2718
     43  CB        -1.9120   37.8630   34.2560 C.3   229  LEU229      0.0284
     44  CG        -1.3200   38.9690   35.1430 C.3   229  LEU229      0.0019
     45  CD1       -0.5890   40.0190   34.3030 C.3   229  LEU229      0.0001
     46  CD2       -2.3800   39.6300   36.0340 C.3   229  LEU229      0.0001
     47  N         -3.2040   34.5310   34.2280 N.am  230  GLY230     -0.1942
     48  CA        -3.9940   33.5230   33.5290 C.3   230  GLY230      0.2014
     49  C         -3.5710   33.2340   32.1050 C.2   230  GLY230      0.2639
     50  O         -4.2940   32.5580   31.3790 O.2   230  GLY230     -0.2714
     51  N         -2.4110   33.7410   31.6970 N.am  231  TYR231     -0.1959
     52  CA        -1.9090   33.4920   30.3420 C.3   231  TYR231      0.1771
     53  C         -1.1430   32.1750   30.2150 C.2   231  TYR231      0.2619
     54  O         -0.9480   31.4460   31.2020 O.2   231  TYR231     -0.2715
     55  CB        -1.0220   34.6360   29.8660 C.3   231  TYR231      0.0574
     56  CG        -1.7210   35.9690   29.8130 C.ar  231  TYR231     -0.0198
     57  CD1       -2.7430   36.2120   28.8900 C.ar  231  TYR231     -0.0009
     58  CD2       -1.3550   36.9980   30.6850 C.ar  231  TYR231     -0.0009
     59  CE1       -3.3790   37.4470   28.8420 C.ar  231  TYR231      0.0417
     60  CE2       -1.9800   38.2360   30.6400 C.ar  231  TYR231      0.0417
     61  CZ        -2.9880   38.4570   29.7240 C.ar  231  TYR231      0.1957
     62  OH        -3.6060   39.6890   29.6990 O.3   231  TYR231     -0.2866
     63  N         -0.7050   31.8860   28.9920 N.am  232  ASP232     -0.1971
     64  CA         0.0190   30.6540   28.7080 C.3   232  ASP232      0.1709
     65  C          1.4970   30.9240   28.4360 C.2   232  ASP232      0.2293
     66  O          1.8760   31.9790   27.9470 O.2   232  ASP232     -0.2864
     67  CB        -0.6140   29.9010   27.5290 C.3   232  ASP232      0.1436
     68  CG        -2.0000   29.3480   27.8530 C.2   232  ASP232      0.3671
     69  OD1       -2.6680   28.8380   26.9190 O.co2 232  ASP232     -0.2456
     70  OD2       -2.4330   29.4290   29.0280 O.co2 232  ASP232     -0.2456
     71  N          6.9250   33.8240   25.9650 N.3   250  MET250     -0.1230
     72  CA         5.4720   33.8480   25.9050 C.3   250  MET250      0.1702
     73  C          5.0410   34.2000   24.4870 C.2   250  MET250      0.2592
     74  O          5.7600   34.8850   23.7630 O.2   250  MET250     -0.2718
     75  CB         4.9100   34.8430   26.9070 C.3   250  MET250      0.0401
     76  CG         5.3510   36.2770   26.6540 C.3   250  MET250      0.0596
     77  SD         4.8410   37.3870   27.9850 S.3   250  MET250     -0.1393
     78  CE         3.1840   37.6230   27.4190 C.3   250  MET250      0.0692
     79  N          3.8810   33.7030   24.0800 N.am  251  MET251     -0.1979
     80  CA         3.3260   34.0590   22.7880 C.3   251  MET251      0.1605
     81  C          2.5230   35.3450   22.9780 C.2   251  MET251      0.2287
     82  O          1.5930   35.3760   23.7710 O.2   251  MET251     -0.2864
     83  CB         2.4520   32.9390   22.2170 C.3   251  MET251      0.0413
     84  CG         2.0180   33.1610   20.7640 C.3   251  MET251      0.0598
     85  SD         3.3980   33.2570   19.6120 S.3   251  MET251     -0.1393
     86  CE         3.9820   31.5740   19.6780 C.3   251  MET251      0.0692
     87  N          0.0240   38.5050   21.7240 N.3   253  PRO253     -0.2116
     88  CA        -1.1290   38.6140   20.8200 C.3   253  PRO253      0.1372
     89  C         -0.8360   39.2330   19.4500 C.2   253  PRO253      0.2244
     90  O         -1.6320   39.0710   18.5180 O.2   253  PRO253     -0.2868
     91  CB        -2.1270   39.4590   21.6080 C.3   253  PRO253      0.0268
     92  CG        -1.3810   40.0980   22.6660 C.3   253  PRO253      0.0207
     93  CD        -0.1740   39.2680   22.9670 C.3   253  PRO253      0.0892
@<TRIPOS>BOND
     1    90    89    2
     2    89    88    1
     3    85    86    1
     4    85    84    1
     5    84    83    1
     6    88    91    1
     7    88    87    1
     8    91    92    1
     9    87    93    1
    10     8     7    2
    11    83    80    1
    12    92    93    1
    13    80    81    1
    14    80    79    1
    15     9     7   am
    16     7     6    1
    17    81    82    2
    18    74    73    2
    19     6     5    1
    20    79    73   am
    21     5     2    1
    22     1     2    1
    23    73    72    1
    24     2     3    1
    25     3     4    2
    26    72    71    1
    27    72    75    1
    28    23    21    1
    29    22    21    1
    30    21    18    1
    31    76    75    1
    32    76    77    1
    33    69    68   ar
    34    78    77    1
    35    67    68    1
    36    67    64    1
    37    68    70   ar
    38    66    65    2
    39    18    17    1
    40    18    19    1
    41    10    11    1
    42    17    12   am
    43    65    64    1
    44    19    20    2
    45    64    63    1
    46    59    57   ar
    47    59    61   ar
    48    57    56   ar
    49    63    53   am
    50    14    11    1
    51    14    16    1
    52    14    15    1
    53    11    12    1
    54    12    13    2
    55    62    61    1
    56    61    60   ar
    57    56    55    1
    58    56    58   ar
    59    55    52    1
    60    53    52    1
    61    53    54    2
    62    52    51    1
    63    31    29    1
    64    60    58   ar
    65    37    36    1
    66    50    49    2
    67    38    36    1
    68    28    30    1
    69    28    29    1
    70    28    25    1
    71    51    49   am
    72    36    33    1
    73    49    48    1
    74    24    25    1
    75    26    25    1
    76    26    27    2
    77    33    34    1
    78    33    32    1
    79    35    34    2
    80    42    41    2
    81    48    47    1
    82    41    47   am
    83    41    40    1
    84    43    40    1
    85    43    44    1
    86    45    44    1
    87    40    39    1
    88    44    46    1
