@<TRIPOS>MOLECULE
tmp/3vb4B00.pdb
 192 191 0 0 0
SMALL
GASTEIGER

@<TRIPOS>ATOM
      1  N         15.0260   21.3900   12.6610 N.3    27  LEU27      -0.1245
      2  CA        15.3900   20.0680   13.1510 C.3    27  LEU27       0.1561
      3  C         15.5110   20.0480   14.6720 C.2    27  LEU27       0.2260
      4  O         15.1910   21.0370   15.3260 O.2    27  LEU27      -0.2867
      5  CB        16.6470   19.5450   12.4630 C.3    27  LEU27       0.0270
      6  CG        17.8680   20.4430   12.3530 C.3    27  LEU27       0.0019
      7  CD1       18.4630   20.7080   13.7340 C.3    27  LEU27       0.0001
      8  CD2       18.9010   19.8290   11.3930 C.3    27  LEU27       0.0001
      9  N         24.2330   20.8980    9.7470 N.3    41  HIS41      -0.1241
     10  CA        23.5170   21.1260    8.4900 C.3    41  HIS41       0.1621
     11  C         22.1710   21.8360    8.6510 C.2    41  HIS41       0.2264
     12  O         21.4750   22.0710    7.6600 O.2    41  HIS41      -0.2867
     13  CB        23.3800   19.8390    7.6590 C.3    41  HIS41       0.0745
     14  CG        22.3080   18.8960    8.1310 C.ar   41  HIS41       0.0817
     15  ND1       22.5840   17.6120    8.5580 N.ar   41  HIS41      -0.2268
     16  CD2       20.9610   19.0300    8.1940 C.ar   41  HIS41       0.1154
     17  CE1       21.4540   17.0020    8.8780 C.ar   41  HIS41       0.1986
     18  NE2       20.4550   17.8400    8.6660 N.ar   41  HIS41      -0.2212
     19  N         23.1740   22.1210    0.5970 N.3    49  MET49      -0.1245
     20  CA        23.6160   20.8190    1.0880 C.3    49  MET49       0.1570
     21  C         24.5120   20.0160    0.1320 C.2    49  MET49       0.2261
     22  O         25.1080   19.0170    0.5380 O.2    49  MET49      -0.2867
     23  CB        22.3940   19.9960    1.5190 C.3    49  MET49       0.0387
     24  CG        21.5660   20.6580    2.6330 C.3    49  MET49       0.0595
     25  SD        19.9540   19.8840    2.9250 S.3    49  MET49      -0.1393
     26  CE        19.3140   20.8720    4.2810 C.3    49  MET49       0.0692
     27  N         30.7300   24.6120    5.5060 N.3    54  TYR54      -0.1241
     28  CA        30.1720   24.9180    6.8210 C.3    54  TYR54       0.1605
     29  C         30.9430   26.0120    7.5620 C.2    54  TYR54       0.2264
     30  O         30.3410   26.9300    8.1220 O.2    54  TYR54      -0.2867
     31  CB        30.0680   23.6490    7.6750 C.3    54  TYR54       0.0534
     32  CG        29.0590   22.6360    7.1610 C.ar   54  TYR54      -0.0201
     33  CD1       29.4680   21.4220    6.6110 C.ar   54  TYR54      -0.0009
     34  CD2       27.6970   22.8970    7.2260 C.ar   54  TYR54      -0.0009
     35  CE1       28.5390   20.4970    6.1500 C.ar   54  TYR54       0.0417
     36  CE2       26.7640   21.9830    6.7640 C.ar   54  TYR54       0.0417
     37  CZ        27.1870   20.7850    6.2310 C.ar   54  TYR54       0.1957
     38  OH        26.2460   19.8870    5.7710 O.3    54  TYR54      -0.2866
     39  N         13.1900    6.8040   10.3750 N.3   140  PHE140     -0.1227
     40  CA        13.2270    8.2550   10.4740 C.3   140  PHE140      0.1736
     41  C         12.5230    8.9050    9.2690 C.2   140  PHE140      0.2595
     42  O         12.6940    8.4740    8.1260 O.2   140  PHE140     -0.2718
     43  CB        14.6780    8.7500   10.5020 C.3   140  PHE140      0.0547
     44  CG        15.4580    8.3570   11.7380 C.ar  140  PHE140     -0.0202
     45  CD1       16.5790    7.5380   11.6350 C.ar  140  PHE140     -0.0042
     46  CD2       15.1000    8.8310   12.9880 C.ar  140  PHE140     -0.0042
     47  CE1       17.3320    7.1960   12.7650 C.ar  140  PHE140     -0.0003
     48  CE2       15.8370    8.4880   14.1190 C.ar  140  PHE140     -0.0003
     49  CZ        16.9680    7.6700   14.0010 C.ar  140  PHE140     -0.0000
     50  N         11.7480    9.9540    9.5210 N.am  141  LEU141     -0.1966
     51  CA        11.1410   10.7160    8.4390 C.3   141  LEU141      0.1728
     52  C         11.8610   12.0510    8.2950 C.2   141  LEU141      0.2616
     53  O         12.8710   12.2980    8.9680 O.2   141  LEU141     -0.2715
     54  CB         9.6430   10.9220    8.6910 C.3   141  LEU141      0.0311
     55  CG         8.8500    9.6110    8.8380 C.3   141  LEU141      0.0022
     56  CD1        7.3700    9.8350    9.1500 C.3   141  LEU141      0.0001
     57  CD2        9.0080    8.7460    7.5760 C.3   141  LEU141      0.0001
     58  N         11.3640   12.9020    7.4000 N.am  142  ASN142     -0.1958
     59  CA        11.9140   14.2480    7.2580 C.3   142  ASN142      0.1819
     60  C         11.7710   14.9950    8.5780 C.2   142  ASN142      0.2622
     61  O         10.7190   14.9290    9.2160 O.2   142  ASN142     -0.2715
     62  CB        11.1810   15.0240    6.1580 C.3   142  ASN142      0.1195
     63  CG        11.3150   14.3800    4.7800 C.2   142  ASN142      0.2630
     64  OD1       12.3510   13.7870    4.4360 O.2   142  ASN142     -0.2716
     65  ND2       10.2580   14.4990    3.9800 N.am  142  ASN142     -0.0877
     66  N         12.8160   15.7070    8.9830 N.am  143  GLY143     -0.1940
     67  CA        12.7790   16.4920   10.2060 C.3   143  GLY143      0.2014
     68  C         13.2450   15.7540   11.4580 C.2   143  GLY143      0.2640
     69  O         13.1370   16.2820   12.5690 O.2   143  GLY143     -0.2714
     70  N         13.7680   14.5410   11.2840 N.am  144  SER144     -0.1935
     71  CA        14.1900   13.7120   12.4180 C.3   144  SER144      0.2055
     72  C         15.6520   13.9360   12.8330 C.2   144  SER144      0.2643
     73  O         16.0810   13.4940   13.9050 O.2   144  SER144     -0.2714
     74  CB        13.9340   12.2180   12.1340 C.3   144  SER144      0.2130
     75  OG        14.7170   11.7320   11.0440 O.3   144  SER144     -0.2179
     76  N         16.4130   14.6230   11.9890 N.am  145  CYS145     -0.1967
     77  CA        17.8360   14.9260   12.3070 C.3   145  CYS145      0.1712
     78  C         17.9240   15.6360   13.6180 C.2   145  CYS145      0.2296
     79  O         17.0580   16.4790   13.9330 O.2   145  CYS145     -0.2864
     80  CB        18.4780   15.7400   11.1870 C.3   145  CYS145      0.0983
     81  SG        18.7130   14.6590    9.8190 S.3   145  CYS145     -0.0798
     82  N         21.4990   11.8450   14.9720 N.3   163  HIS163     -0.1226
     83  CA        21.1390   11.4400   13.6420 C.3   163  HIS163      0.1752
     84  C         21.3550   12.5660   12.6360 C.2   163  HIS163      0.2596
     85  O         20.9760   13.7090   12.8890 O.2   163  HIS163     -0.2718
     86  CB        19.6790   11.0080   13.6420 C.3   163  HIS163      0.0759
     87  CG        19.1960   10.5650   12.3050 C.ar  163  HIS163      0.0818
     88  ND1       19.8350    9.5860   11.5750 N.ar  163  HIS163     -0.2268
     89  CD2       18.1470   10.9730   11.5560 C.ar  163  HIS163      0.1154
     90  CE1       19.1950    9.4060   10.4360 C.ar  163  HIS163      0.1986
     91  NE2       18.1690   10.2360   10.3990 N.ar  163  HIS163     -0.2212
     92  N         21.9500   12.2310   11.4930 N.am  164  HIS164     -0.1961
     93  CA        22.2690   13.2240   10.4620 C.3   164  HIS164      0.1787
     94  C         21.6610   12.9000    9.0990 C.2   164  HIS164      0.2620
     95  O         21.2130   13.8010    8.3900 O.2   164  HIS164     -0.2715
     96  CB        23.7810   13.3750   10.2860 C.3   164  HIS164      0.0785
     97  CG        24.4660   14.1050   11.3990 C.ar  164  HIS164      0.0821
     98  ND1       24.9080   15.4030   11.2720 N.ar  164  HIS164     -0.2267
     99  CD2       24.8190   13.7090   12.6460 C.ar  164  HIS164      0.1154
    100  CE1       25.4940   15.7810   12.3940 C.ar  164  HIS164      0.1986
    101  NE2       25.4570   14.7700   13.2440 N.ar  164  HIS164     -0.2212
    102  N         21.6660   11.6310    8.7010 N.am  165  MET165     -0.1963
    103  CA        21.2330   11.3490    7.3380 C.3   165  MET165      0.1736
    104  C         20.7110    9.9540    7.0250 C.2   165  MET165      0.2616
    105  O         20.9250    8.9950    7.7780 O.2   165  MET165     -0.2715
    106  CB        22.3330   11.7300    6.3480 C.3   165  MET165      0.0427
    107  CG        23.5990   10.9430    6.4880 C.3   165  MET165      0.0599
    108  SD        24.8080   11.4190    5.2110 S.3   165  MET165     -0.1393
    109  CE        26.1020   10.2420    5.5710 C.3   165  MET165      0.0692
    110  N         20.0040    9.8670    5.8990 N.am  166  GLU166     -0.1963
    111  CA        19.5240    8.5950    5.3890 C.3   166  GLU166      0.1733
    112  C         20.2760    8.2470    4.1010 C.2   166  GLU166      0.2616
    113  O         20.3870    9.0600    3.1930 O.2   166  GLU166     -0.2715
    114  CB        18.0060    8.6220    5.1650 C.3   166  GLU166      0.0429
    115  CG        17.4250    7.2650    4.7580 C.3   166  GLU166      0.1163
    116  CD        15.9120    7.2680    4.7140 C.2   166  GLU166      0.3649
    117  OE1       15.2720    7.2220    5.7950 O.co2 166  GLU166     -0.2457
    118  OE2       15.3560    7.3030    3.6030 O.co2 166  GLU166     -0.2457
    119  N         20.8130    7.0380    4.0470 N.am  167  LEU167     -0.1964
    120  CA        21.5580    6.5860    2.8850 C.3   167  LEU167      0.1713
    121  C         20.6180    6.0120    1.8320 C.2   167  LEU167      0.2458
    122  O         19.4770    5.6580    2.1350 O.2   167  LEU167     -0.2730
    123  CB        22.6040    5.5600    3.3080 C.3   167  LEU167      0.0310
    124  CG        23.6360    6.2340    4.2070 C.3   167  LEU167      0.0022
    125  CD1       24.5870    5.2270    4.8470 C.3   167  LEU167      0.0001
    126  CD2       24.3950    7.3060    3.4250 C.3   167  LEU167      0.0001
    127  N         21.0910    5.9310    0.5750 N.am  168  PRO168     -0.2727
    128  CA        20.2590    5.4080   -0.5130 C.3   168  PRO168      0.1402
    129  C         19.5530    4.0890   -0.1840 C.2   168  PRO168      0.2269
    130  O         18.4220    3.9080   -0.6470 O.2   168  PRO168     -0.2865
    131  CB        21.2620    5.2230   -1.6520 C.3   168  PRO168      0.0296
    132  CG        22.2560    6.3260   -1.4260 C.3   168  PRO168      0.0237
    133  CD        22.3910    6.4240    0.0820 C.3   168  PRO168      0.0939
    134  N         20.6740    4.4330    8.0380 N.3   172  HIS172     -0.1241
    135  CA        20.9400    5.7520    8.6030 C.3   172  HIS172      0.1621
    136  C         22.3390    5.9420    9.1230 C.2   172  HIS172      0.2264
    137  O         22.9890    4.9910    9.5570 O.2   172  HIS172     -0.2867
    138  CB        19.9150    6.0520    9.6930 C.3   172  HIS172      0.0745
    139  CG        18.5100    5.8800    9.2190 C.ar  172  HIS172      0.0817
    140  ND1       17.7800    4.7390    9.4660 N.ar  172  HIS172     -0.2268
    141  CD2       17.7340    6.6630    8.4350 C.ar  172  HIS172      0.1154
    142  CE1       16.5950    4.8460    8.8950 C.ar  172  HIS172      0.1986
    143  NE2       16.5420    6.0040    8.2610 N.ar  172  HIS172     -0.2212
    144  N         28.5830   14.7430    5.8970 N.3   187  ASP187     -0.1225
    145  CA        27.2790   15.3930    5.8330 C.3   187  ASP187      0.1805
    146  C         27.1280   16.3350    4.6330 C.2   187  ASP187      0.2598
    147  O         27.2040   17.5600    4.7640 O.2   187  ASP187     -0.2718
    148  CB        26.9350   16.0920    7.1550 C.3   187  ASP187      0.1424
    149  CG        28.0520   16.9890    7.6540 C.2   187  ASP187      0.3668
    150  OD1       27.7580   17.8740    8.4800 O.co2 187  ASP187     -0.2456
    151  OD2       29.2190   16.8120    7.2280 O.co2 187  ASP187     -0.2456
    152  N         26.9110   15.7270    3.4710 N.am  188  ARG188     -0.1966
    153  CA        26.5580   16.4280    2.2390 C.3   188  ARG188      0.1729
    154  C         25.5870   15.5420    1.4560 C.2   188  ARG188      0.2616
    155  O         25.6780   14.3100    1.5260 O.2   188  ARG188     -0.2715
    156  CB        27.8010   16.6660    1.3780 C.3   188  ARG188      0.0348
    157  CG        29.0980   16.9190    2.1440 C.3   188  ARG188      0.0492
    158  CD        30.2870   16.8610    1.1880 C.3   188  ARG188      0.2205
    159  NE        31.5580   16.6160    1.8720 N.pl3 188  ARG188     -0.0865
    160  CZ        32.6840   16.2450    1.2600 C.cat 188  ARG188      0.5346
    161  NH1       32.7090   16.0680   -0.0600 N.pl3 188  ARG188      0.1354
    162  NH2       33.7910   16.0470    1.9670 N.pl3 188  ARG188      0.1354
    163  N         24.6660   16.1510    0.7080 N.am  189  GLN189     -0.1963
    164  CA        23.7520   15.3740   -0.1340 C.3   189  GLN189      0.1733
    165  C         24.4070   14.8980   -1.4410 C.2   189  GLN189      0.2617
    166  O         23.8370   15.0340   -2.5270 O.2   189  GLN189     -0.2715
    167  CB        22.4510   16.1320   -0.4160 C.3   189  GLN189      0.0408
    168  CG        21.5860   16.3340    0.8290 C.3   189  GLN189      0.0908
    169  CD        20.0920   16.2240    0.5520 C.2   189  GLN189      0.2608
    170  OE1       19.2720   16.3590    1.4660 O.2   189  GLN189     -0.2717
    171  NE2       19.7310   15.9720   -0.7080 N.am  189  GLN189     -0.0878
    172  N         25.6090   14.3440   -1.3130 N.am  190  THR190     -0.1937
    173  CA        26.2900   13.6910   -2.4180 C.3   190  THR190      0.2028
    174  C         25.9680   12.2060   -2.3630 C.2   190  THR190      0.2642
    175  O         25.2400   11.7550   -1.4780 O.2   190  THR190     -0.2714
    176  CB        27.8090   13.8430   -2.3090 C.3   190  THR190      0.1808
    177  OG1       28.2910   13.0210   -1.2370 O.3   190  THR190     -0.2208
    178  CG2       28.1820   15.2970   -2.0490 C.3   190  THR190      0.0379
    179  N         26.5180   11.4500   -3.3050 N.am  191  ALA191     -0.1963
    180  CA        26.2780   10.0190   -3.3580 C.3   191  ALA191      0.1728
    181  C         27.2120    9.2920   -2.3980 C.2   191  ALA191      0.2616
    182  O         28.4380    9.3460   -2.5380 O.2   191  ALA191     -0.2715
    183  CB        26.4560    9.4980   -4.7880 C.3   191  ALA191      0.0334
    184  N         26.6260    8.6260   -1.4110 N.am  192  GLN192     -0.1977
    185  CA        27.3880    7.8160   -0.4690 C.3   192  GLN192      0.1601
    186  C         26.6390    6.5190   -0.2950 C.2   192  GLN192      0.2287
    187  O         25.4120    6.5010   -0.3490 O.2   192  GLN192     -0.2864
    188  CB        27.5130    8.5190    0.8830 C.3   192  GLN192      0.0394
    189  CG        28.2380    9.8330    0.8240 C.3   192  GLN192      0.0908
    190  CD        28.2200   10.5660    2.1420 C.2   192  GLN192      0.2608
    191  OE1       28.8200   10.1220    3.1230 O.2   192  GLN192     -0.2717
    192  NE2       27.5290   11.6990    2.1760 N.am  192  GLN192     -0.0878
@<TRIPOS>BOND
     1   183   180    1
     2   180   179    1
     3   180   181    1
     4   179   174   am
     5   182   181    2
     6   166   165    2
     7   173   174    1
     8   173   176    1
     9   173   172    1
    10   181   184   am
    11   174   175    2
    12   176   178    1
    13   176   177    1
    14   131   132    1
    15   131   128    1
    16   165   172   am
    17   165   164    1
    18   132   133    1
    19   184   185    1
    20   171   169   am
    21   130   129    2
    22   128   129    1
    23   128   127    1
    24   185   186    1
    25   185   188    1
    26   167   164    1
    27   167   168    1
    28   187   186    2
    29   164   163    1
    30   161   160    1
    31   133   127    1
    32    21    22    2
    33    21    20    1
    34   169   168    1
    35   169   170    2
    36   127   121   am
    37    19    20    1
    38   163   154   am
    39   189   188    1
    40   189   190    1
    41    20    23    1
    42   158   159    1
    43   158   157    1
    44   160   159    2
    45   160   162    1
    46   156   157    1
    47   156   153    1
    48   154   155    2
    49   154   153    1
    50    23    24    1
    51   121   122    2
    52   121   120    1
    53   190   192   am
    54   190   191    2
    55   153   152    1
    56    24    25    1
    57   120   123    1
    58   120   119    1
    59    25    26    1
    60   113   112    2
    61   123   124    1
    62   126   124    1
    63   152   146   am
    64   118   116   ar
    65    65    63   am
    66   119   112   am
    67   112   111    1
    68   124   125    1
    69    64    63    2
    70   146   147    2
    71   146   145    1
    72   116   115    1
    73   116   117   ar
    74   115   114    1
    75    63    62    1
    76   114   111    1
    77   108   109    1
    78   108   107    1
    79   111   110    1
    80    27    28    1
    81    38    37    1
    82   145   144    1
    83   145   148    1
    84   110   104   am
    85    35    37   ar
    86    35    33   ar
    87    62    59    1
    88    37    36   ar
    89   106   107    1
    90   106   103    1
    91    33    32   ar
    92    36    34   ar
    93    28    29    1
    94    28    31    1
    95   104   103    1
    96   104   105    2
    97   148   149    1
    98    32    34   ar
    99    32    31    1
   100   151   149   ar
   101    59    58    1
   102    59    60    1
   103   103   102    1
   104    58    52   am
   105    29    30    2
   106    57    55    1
   107   149   150   ar
   108    13    14    1
   109    13    10    1
   110    12    11    2
   111   134   135    1
   112    42    41    2
   113    14    16   ar
   114    14    15   ar
   115    16    18   ar
   116   143   141   ar
   117   143   142   ar
   118    52    51    1
   119    52    53    2
   120    95    94    2
   121   141   139   ar
   122    51    54    1
   123    51    50    1
   124    10    11    1
   125    10     9    1
   126    15    17   ar
   127    60    66   am
   128    60    61    2
   129   135   136    1
   130   135   138    1
   131    18    17   ar
   132    54    55    1
   133   102    94   am
   134    55    56    1
   135   142   140   ar
   136    66    67    1
   137    94    93    1
   138   136   137    2
   139   139   140   ar
   140   139   138    1
   141    41    50   am
   142    41    40    1
   143    81    80    1
   144    67    68    1
   145    96    93    1
   146    96    97    1
   147    39    40    1
   148    91    90   ar
   149    91    89   ar
   150    90    88   ar
   151    93    92    1
   152    40    43    1
   153    43    44    1
   154    75    74    1
   155    80    77    1
   156    98    97   ar
   157    98   100   ar
   158    70    68   am
   159    70    71    1
   160     8     6    1
   161    97    99   ar
   162    68    69    2
   163    92    84   am
   164    89    87   ar
   165    88    87   ar
   166    45    44   ar
   167    45    47   ar
   168    44    46   ar
   169    76    77    1
   170    76    72   am
   171    74    71    1
   172    87    86    1
   173    77    78    1
   174     6     5    1
   175     6     7    1
   176   100   101   ar
   177    71    72    1
   178     5     2    1
   179    84    85    2
   180    84    83    1
   181    99   101   ar
   182     1     2    1
   183    47    49   ar
   184    72    73    2
   185    46    48   ar
   186     2     3    1
   187    78    79    2
   188    83    86    1
   189    83    82    1
   190    49    48   ar
   191     3     4    2
