@<TRIPOS>MOLECULE
tmp/3vb5B00.pdb
 192 189 0 0 0
SMALL
GASTEIGER

@<TRIPOS>ATOM
      1  N         14.7760   21.3370   12.7770 N.3    27  LEU27      -0.1245
      2  CA        15.0710   19.9600   13.1610 C.3    27  LEU27       0.1561
      3  C         15.2410   19.9370   14.6750 C.2    27  LEU27       0.2260
      4  O         14.9230   20.9350   15.3390 O.2    27  LEU27      -0.2867
      5  CB        16.2950   19.4140   12.4170 C.3    27  LEU27       0.0270
      6  CG        17.4980   20.3450   12.2740 C.3    27  LEU27       0.0019
      7  CD1       18.1260   20.6380   13.6340 C.3    27  LEU27       0.0001
      8  CD2       18.5520   19.7910   11.3070 C.3    27  LEU27       0.0001
      9  N         24.0200   20.9840    9.7280 N.3    41  HIS41      -0.1241
     10  CA        23.3780   21.2620    8.4400 C.3    41  HIS41       0.1621
     11  C         22.0340   21.9460    8.6310 C.2    41  HIS41       0.2264
     12  O         21.2630   22.1190    7.6840 O.2    41  HIS41      -0.2867
     13  CB        23.2310   20.0000    7.5860 C.3    41  HIS41       0.0745
     14  CG        22.1630   19.0660    8.0520 C.ar   41  HIS41       0.0817
     15  ND1       22.4420   17.8650    8.6940 N.ar   41  HIS41      -0.2268
     16  CD2       20.8130   19.1140    7.9640 C.ar   41  HIS41       0.1154
     17  CE1       21.3260   17.2450    8.9790 C.ar   41  HIS41       0.1986
     18  NE2       20.3070   17.9810    8.5390 N.ar   41  HIS41      -0.2212
     19  N         21.5730   25.2880    6.7910 N.3    44  CYS44      -0.1235
     20  CA        21.4030   25.1940    5.3490 C.3    44  CYS44       0.1677
     21  C         20.0510   25.7200    4.8850 C.2    44  CYS44       0.2270
     22  O         19.2510   26.2270    5.6760 O.2    44  CYS44      -0.2867
     23  CB        21.5920   23.7470    4.8780 C.3    44  CYS44       0.0956
     24  SG        23.3300   23.2620    4.8170 S.3    44  CYS44      -0.0801
     25  N         22.7700   22.2330    0.5220 N.3    49  MET49      -0.1245
     26  CA        22.9100   20.8250    0.8640 C.3    49  MET49       0.1570
     27  C         23.9920   20.1040    0.0500 C.2    49  MET49       0.2261
     28  O         24.8070   19.3800    0.6150 O.2    49  MET49      -0.2867
     29  CB        21.5640   20.1100    0.7020 C.3    49  MET49       0.0387
     30  CG        20.3900   20.7810    1.4180 C.3    49  MET49       0.0595
     31  SD        20.0470   20.4060    3.1500 S.3    49  MET49      -0.1393
     32  CE        18.4580   21.2290    3.2580 C.3    49  MET49       0.0692
     33  N         30.7560   24.8320    5.5240 N.3    54  TYR54      -0.1241
     34  CA        30.1830   25.0560    6.8450 C.3    54  TYR54       0.1605
     35  C         30.8900   26.1750    7.5800 C.2    54  TYR54       0.2264
     36  O         30.2510   27.0540    8.1540 O.2    54  TYR54      -0.2867
     37  CB        30.2070   23.7730    7.6770 C.3    54  TYR54       0.0534
     38  CG        29.1790   22.7610    7.2400 C.ar   54  TYR54      -0.0201
     39  CD1       27.8200   22.9770    7.4660 C.ar   54  TYR54      -0.0009
     40  CD2       29.5600   21.5850    6.6030 C.ar   54  TYR54      -0.0009
     41  CE1       26.8740   22.0500    7.0640 C.ar   54  TYR54       0.0417
     42  CE2       28.6180   20.6570    6.2080 C.ar   54  TYR54       0.0417
     43  CZ        27.2790   20.8970    6.4390 C.ar   54  TYR54       0.1957
     44  OH        26.3300   19.9820    6.0480 O.3    54  TYR54      -0.2866
     45  N         12.7950    6.7630   10.3290 N.3   140  PHE140     -0.1227
     46  CA        12.9520    8.2140   10.3770 C.3   140  PHE140      0.1736
     47  C         12.3090    8.8820    9.1690 C.2   140  PHE140      0.2595
     48  O         12.3910    8.3610    8.0580 O.2   140  PHE140     -0.2718
     49  CB        14.4340    8.5880   10.3680 C.3   140  PHE140      0.0547
     50  CG        15.1450    8.3520   11.6670 C.ar  140  PHE140     -0.0202
     51  CD1       16.1840    7.4490   11.7300 C.ar  140  PHE140     -0.0042
     52  CD2       14.7940    9.0480   12.8140 C.ar  140  PHE140     -0.0042
     53  CE1       16.8640    7.2310   12.9030 C.ar  140  PHE140     -0.0003
     54  CE2       15.4690    8.8360   14.0020 C.ar  140  PHE140     -0.0003
     55  CZ        16.5190    7.9150   14.0390 C.ar  140  PHE140     -0.0000
     56  N         11.6890   10.0400    9.3830 N.am  141  LEU141     -0.1966
     57  CA        11.1140   10.8080    8.2850 C.3   141  LEU141      0.1728
     58  C         11.7550   12.1940    8.2380 C.2   141  LEU141      0.2616
     59  O         12.6380   12.5030    9.0390 O.2   141  LEU141     -0.2715
     60  CB         9.5960   10.9220    8.4530 C.3   141  LEU141      0.0311
     61  CG         8.8400    9.6180    8.7130 C.3   141  LEU141      0.0022
     62  CD1        7.3650    9.9230    8.9300 C.3   141  LEU141      0.0001
     63  CD2        9.0110    8.6420    7.5620 C.3   141  LEU141      0.0001
     64  N         11.3340   13.0220    7.2880 N.am  142  ASN142     -0.1958
     65  CA        11.8210   14.3960    7.2310 C.3   142  ASN142      0.1819
     66  C         11.6370   15.0870    8.5770 C.2   142  ASN142      0.2622
     67  O         10.6150   14.9170    9.2410 O.2   142  ASN142     -0.2715
     68  CB        11.0820   15.1790    6.1520 C.3   142  ASN142      0.1195
     69  CG        11.4430   14.7200    4.7480 C.2   142  ASN142      0.2630
     70  OD1       12.6060   14.4290    4.4530 O.2   142  ASN142     -0.2716
     71  ND2       10.4460   14.6640    3.8720 N.am  142  ASN142     -0.0877
     72  N         12.6370   15.8590    8.9780 N.am  143  GLY143     -0.1940
     73  CA        12.5560   16.6380   10.1970 C.3   143  GLY143      0.2014
     74  C         12.9860   15.8650   11.4280 C.2   143  GLY143      0.2640
     75  O         12.9100   16.3860   12.5360 O.2   143  GLY143     -0.2714
     76  N         13.4410   14.6280   11.2500 N.am  144  SER144     -0.1935
     77  CA        13.8880   13.8220   12.3880 C.3   144  SER144      0.2055
     78  C         15.3560   14.0340   12.7940 C.2   144  SER144      0.2643
     79  O         15.8030   13.5020   13.8130 O.2   144  SER144     -0.2714
     80  CB        13.6450   12.3330   12.1320 C.3   144  SER144      0.2130
     81  OG        14.4670   11.8590   11.0760 O.3   144  SER144     -0.2179
     82  N         16.1080   14.7890   11.9980 N.am  145  CYS145     -0.1967
     83  CA        17.5500   15.0190   12.3030 C.3   145  CYS145      0.1712
     84  C         17.6770   15.6820   13.6410 C.2   145  CYS145      0.2296
     85  O         16.7960   16.4890   13.9960 O.2   145  CYS145     -0.2864
     86  CB        18.1700   15.9120   11.2420 C.3   145  CYS145      0.0983
     87  SG        18.4420   14.9170    9.8200 S.3   145  CYS145     -0.0798
     88  N         21.0690   11.8580   14.9880 N.3   163  HIS163     -0.1226
     89  CA        20.7010   11.5100   13.6180 C.3   163  HIS163      0.1752
     90  C         21.0330   12.6120   12.6170 C.2   163  HIS163      0.2596
     91  O         20.7720   13.7810   12.8740 O.2   163  HIS163     -0.2718
     92  CB        19.2150   11.1740   13.5130 C.3   163  HIS163      0.0759
     93  CG        18.8220   10.6450   12.1760 C.ar  163  HIS163      0.0818
     94  ND1       19.5070    9.5930   11.5720 N.ar  163  HIS163     -0.2268
     95  CD2       17.8650   11.0030   11.3010 C.ar  163  HIS163      0.1154
     96  CE1       18.9710    9.3400   10.4080 C.ar  163  HIS163      0.1986
     97  NE2       17.9600   10.1780   10.2030 N.ar  163  HIS163     -0.2212
     98  N         21.5840   12.2350   11.4630 N.am  164  HIS164     -0.1961
     99  CA        21.9510   13.2230   10.4560 C.3   164  HIS164      0.1787
    100  C         21.3120   12.9980    9.0730 C.2   164  HIS164      0.2620
    101  O         20.9430   13.9510    8.3940 O.2   164  HIS164     -0.2715
    102  CB        23.4690   13.2710   10.2920 C.3   164  HIS164      0.0785
    103  CG        24.1750   14.1110   11.3210 C.ar  164  HIS164      0.0821
    104  ND1       24.7310   15.3290   10.9980 N.ar  164  HIS164     -0.2267
    105  CD2       24.4560   13.8800   12.6130 C.ar  164  HIS164      0.1154
    106  CE1       25.3220   15.8220   12.0750 C.ar  164  HIS164      0.1986
    107  NE2       25.1710   14.9730   13.0710 N.ar  164  HIS164     -0.2212
    108  N         21.2210   11.7490    8.6340 N.am  165  MET165     -0.1963
    109  CA        20.7960   11.5030    7.2640 C.3   165  MET165      0.1736
    110  C         20.4290   10.0600    6.9940 C.2   165  MET165      0.2616
    111  O         20.7320    9.1470    7.7730 O.2   165  MET165     -0.2715
    112  CB        21.8810   11.9610    6.2890 C.3   165  MET165      0.0427
    113  CG        23.1220   11.1010    6.3420 C.3   165  MET165      0.0599
    114  SD        24.5520   11.8310    5.5000 S.3   165  MET165     -0.1393
    115  CE        25.6080   10.3960    5.3680 C.3   165  MET165      0.0692
    116  N         19.7650    9.8950    5.8590 N.am  166  GLU166     -0.1963
    117  CA        19.2640    8.6200    5.4040 C.3   166  GLU166      0.1733
    118  C         19.9330    8.2770    4.0900 C.2   166  GLU166      0.2616
    119  O         19.9680    9.0970    3.1690 O.2   166  GLU166     -0.2715
    120  CB        17.7600    8.7000    5.1960 C.3   166  GLU166      0.0429
    121  CG        17.1800    7.4500    4.5760 C.3   166  GLU166      0.1163
    122  CD        15.6630    7.4510    4.5680 C.2   166  GLU166      0.3649
    123  OE1       15.0540    7.0960    5.6010 O.co2 166  GLU166     -0.2457
    124  OE2       15.0760    7.8070    3.5280 O.co2 166  GLU166     -0.2457
    125  N         20.4650    7.0630    4.0010 N.am  167  LEU167     -0.1964
    126  CA        21.2020    6.6430    2.8110 C.3   167  LEU167      0.1713
    127  C         20.2140    5.9850    1.8580 C.2   167  LEU167      0.2458
    128  O         19.0800    5.7180    2.2560 O.2   167  LEU167     -0.2730
    129  CB        22.3370    5.6990    3.2050 C.3   167  LEU167      0.0310
    130  CG        23.3740    6.3720    4.1090 C.3   167  LEU167      0.0022
    131  CD1       24.3040    5.3450    4.6900 C.3   167  LEU167      0.0001
    132  CD2       24.1350    7.4180    3.3100 C.3   167  LEU167      0.0001
    133  N         20.6320    5.7270    0.6010 N.am  168  PRO168     -0.2727
    134  CA        19.7040    5.2750   -0.4480 C.3   168  PRO168      0.1402
    135  C         18.9980    3.9330   -0.1930 C.2   168  PRO168      0.2269
    136  O         17.9560    3.6610   -0.8050 O.2   168  PRO168     -0.2865
    137  CB        20.5970    5.1860   -1.6930 C.3   168  PRO168      0.0296
    138  CG        21.8470    5.9990   -1.3660 C.3   168  PRO168      0.0237
    139  CD        22.0240    5.7840    0.1140 C.3   168  PRO168      0.0939
    140  N         17.6810    3.2950    2.5310 N.3   170  GLY170     -0.1225
    141  CA        16.7420    3.6230    3.5870 C.3   170  GLY170      0.1811
    142  C         17.2520    3.2470    4.9680 C.2   170  GLY170      0.2280
    143  O         16.4640    3.0090    5.8790 O.2   170  GLY170     -0.2866
    144  N         28.2320   14.9240    6.0460 N.3   187  ASP187     -0.1225
    145  CA        26.9220   15.5810    6.0490 C.3   187  ASP187      0.1805
    146  C         26.6900   16.4970    4.8370 C.2   187  ASP187      0.2598
    147  O         26.5270   17.7070    4.9840 O.2   187  ASP187     -0.2718
    148  CB        26.7090   16.3530    7.3550 C.3   187  ASP187      0.1424
    149  CG        27.8710   17.2700    7.6920 C.2   187  ASP187      0.3668
    150  OD1       28.9360   17.1760    7.0440 O.co2 187  ASP187     -0.2456
    151  OD2       27.7250   18.0930    8.6200 O.co2 187  ASP187     -0.2456
    152  N         26.7020   15.9110    3.6430 N.am  188  ARG188     -0.1966
    153  CA        26.2630   16.5990    2.4350 C.3   188  ARG188      0.1729
    154  C         25.4390   15.6550    1.5700 C.2   188  ARG188      0.2616
    155  O         25.6370   14.4390    1.5930 O.2   188  ARG188     -0.2715
    156  CB        27.4540   17.1590    1.6550 C.3   188  ARG188      0.0348
    157  CG        28.6850   16.2730    1.7300 C.3   188  ARG188      0.0492
    158  CD        29.8720   16.9100    1.0370 C.3   188  ARG188      0.2205
    159  NE        31.1110   16.1510    1.2140 N.pl3 188  ARG188     -0.0865
    160  CZ        32.0050   15.9290    0.2510 C.cat 188  ARG188      0.5346
    161  NH1       33.1020   15.2320    0.5150 N.pl3 188  ARG188      0.1354
    162  NH2       31.8060   16.4020   -0.9740 N.pl3 188  ARG188      0.1354
    163  N         24.5030   16.2240    0.8170 N.am  189  GLN189     -0.1963
    164  CA        23.6860   15.4400   -0.1030 C.3   189  GLN189      0.1733
    165  C         24.4910   15.0170   -1.3380 C.2   189  GLN189      0.2617
    166  O         24.0490   15.1980   -2.4700 O.2   189  GLN189     -0.2715
    167  CB        22.4070   16.1890   -0.5090 C.3   189  GLN189      0.0408
    168  CG        21.4840   16.5390    0.6680 C.3   189  GLN189      0.0908
    169  CD        20.0100   16.6330    0.2780 C.2   189  GLN189      0.2608
    170  OE1       19.1300   16.3810    1.0970 O.2   189  GLN189     -0.2717
    171  NE2       19.7390   17.0070   -0.9720 N.am  189  GLN189     -0.0878
    172  N         25.6780   14.4550   -1.1110 N.am  190  THR190     -0.1937
    173  CA        26.4310   13.7850   -2.1710 C.3   190  THR190      0.2028
    174  C         26.0320   12.3170   -2.2840 C.2   190  THR190      0.2642
    175  O         25.3420   11.7660   -1.4170 O.2   190  THR190     -0.2714
    176  CB        27.9440   13.8160   -1.9290 C.3   190  THR190      0.1808
    177  OG1       28.2920   12.8510   -0.9280 O.3   190  THR190     -0.2208
    178  CG2       28.3980   15.1920   -1.4830 C.3   190  THR190      0.0379
    179  N         26.4910   11.6870   -3.3560 N.am  191  ALA191     -0.1963
    180  CA        26.2650   10.2720   -3.5620 C.3   191  ALA191      0.1728
    181  C         27.1240    9.4880   -2.5780 C.2   191  ALA191      0.2616
    182  O         28.3480    9.4890   -2.6770 O.2   191  ALA191     -0.2715
    183  CB        26.6150    9.8940   -5.0020 C.3   191  ALA191      0.0334
    184  N         26.4760    8.8630   -1.6000 N.am  192  GLN192     -0.1977
    185  CA        27.1410    7.9280   -0.6950 C.3   192  GLN192      0.1601
    186  C         26.2230    6.7450   -0.5230 C.2   192  GLN192      0.2287
    187  O         25.0180    6.8540   -0.7400 O.2   192  GLN192     -0.2864
    188  CB        27.4040    8.5440    0.6800 C.3   192  GLN192      0.0394
    189  CG        27.8050    9.9900    0.6440 C.3   192  GLN192      0.0908
    190  CD        27.8290   10.6240    2.0180 C.2   192  GLN192      0.2608
    191  OE1       28.4410   10.1040    2.9550 O.2   192  GLN192     -0.2717
    192  NE2       27.1740   11.7700    2.1400 N.am  192  GLN192     -0.0878
@<TRIPOS>BOND
     1   183   180    1
     2   180   179    1
     3   180   181    1
     4   179   174   am
     5   182   181    2
     6   181   184   am
     7   166   165    2
     8   174   173    1
     9   174   175    2
    10   173   176    1
    11   173   172    1
    12   176   178    1
    13   176   177    1
    14   137   138    1
    15   137   134    1
    16   184   185    1
    17   138   139    1
    18   165   172   am
    19   165   164    1
    20   162   160    1
    21   171   169   am
    22   136   135    2
    23   187   186    2
    24   185   186    1
    25   185   188    1
    26   167   164    1
    27   167   168    1
    28   134   135    1
    29   134   133    1
    30   164   163    1
    31    27    28    2
    32    27    26    1
    33   139   133    1
    34   160   161    1
    35   160   159    2
    36   169   168    1
    37   169   170    2
    38    25    26    1
    39   133   127   am
    40   189   188    1
    41   189   190    1
    42    29    26    1
    43    29    30    1
    44   163   154   am
    45   158   159    1
    46   158   157    1
    47    30    31    1
    48   154   155    2
    49   154   153    1
    50   156   157    1
    51   156   153    1
    52   127   128    2
    53   127   126    1
    54   190   192   am
    55   190   191    2
    56   153   152    1
    57   140   141    1
    58   126   129    1
    59   126   125    1
    60    31    32    1
    61   119   118    2
    62   129   130    1
    63   132   130    1
    64   124   122   ar
    65   141   142    1
    66   152   146   am
    67    71    69   am
    68   125   118   am
    69   118   117    1
    70   130   131    1
    71    70    69    2
    72   122   121    1
    73   122   123   ar
    74   121   120    1
    75    69    68    1
    76    24    23    1
    77   146   147    2
    78   146   145    1
    79    23    20    1
    80    21    20    1
    81    21    22    2
    82   142   143    2
    83   120   117    1
    84    20    19    1
    85   115   114    1
    86   117   116    1
    87   114   113    1
    88    33    34    1
    89   116   110   am
    90   144   145    1
    91    44    43    1
    92   145   148    1
    93    68    65    1
    94    42    43   ar
    95    42    40   ar
    96   112   113    1
    97   112   109    1
    98    43    41   ar
    99    40    38   ar
   100    34    35    1
   101    34    37    1
   102   110   109    1
   103   110   111    2
   104   150   149   ar
   105    41    39   ar
   106    65    64    1
   107    65    66    1
   108    38    39   ar
   109    38    37    1
   110   109   108    1
   111    64    58   am
   112   148   149    1
   113    63    61    1
   114    35    36    2
   115    13    14    1
   116    13    10    1
   117    12    11    2
   118   149   151   ar
   119    16    14   ar
   120    16    18   ar
   121    14    15   ar
   122    48    47    2
   123    58    57    1
   124    58    59    2
   125    57    60    1
   126    57    56    1
   127   101   100    2
   128    10    11    1
   129    10     9    1
   130    60    61    1
   131    18    17   ar
   132    66    72   am
   133    66    67    2
   134   108   100   am
   135    15    17   ar
   136    61    62    1
   137    72    73    1
   138   100    99    1
   139    47    56   am
   140    47    46    1
   141    87    86    1
   142    73    74    1
   143    97    96   ar
   144    97    95   ar
   145   102    99    1
   146   102   103    1
   147    45    46    1
   148    49    46    1
   149    49    50    1
   150    96    94   ar
   151    99    98    1
   152   104   103   ar
   153   104   106   ar
   154    81    80    1
   155    86    83    1
   156    76    74   am
   157    76    77    1
   158    95    93   ar
   159     8     6    1
   160   103   105   ar
   161    74    75    2
   162    98    90   am
   163    94    93   ar
   164    50    51   ar
   165    50    52   ar
   166    51    53   ar
   167    82    83    1
   168    82    78   am
   169   106   107   ar
   170    80    77    1
   171    93    92    1
   172     6     5    1
   173     6     7    1
   174    83    84    1
   175    77    78    1
   176     5     2    1
   177   105   107   ar
   178    90    91    2
   179    90    89    1
   180     1     2    1
   181    78    79    2
   182    52    54   ar
   183    53    55   ar
   184     2     3    1
   185    92    89    1
   186    89    88    1
   187    84    85    2
   188    54    55   ar
   189     3     4    2
