@<TRIPOS>MOLECULE
tmp/3vb6B00.pdb
 199 198 0 0 0
SMALL
GASTEIGER

@<TRIPOS>ATOM
      1  N         13.8310   23.2770    9.9260 N.3    26  THR26      -0.1203
      2  CA        13.5540   22.8940   11.3030 C.3    26  THR26       0.1994
      3  C         14.0170   21.4760   11.5770 C.2    26  THR26       0.2617
      4  O         13.7230   20.5630   10.8120 O.2    26  THR26      -0.2717
      5  CB        12.0510   22.9740   11.6430 C.3    26  THR26       0.1784
      6  OG1       11.5980   24.3210   11.4850 O.3    26  THR26      -0.2211
      7  CG2       11.8140   22.5340   13.0770 C.3    26  THR26       0.0376
      8  N         14.7340   21.3010   12.6790 N.am   27  LEU27      -0.1979
      9  CA        15.0000   19.9650   13.1970 C.3    27  LEU27       0.1596
     10  C         15.0670   19.9750   14.7170 C.2    27  LEU27       0.2287
     11  O         14.7630   20.9830   15.3570 O.2    27  LEU27      -0.2864
     12  CB        16.2710   19.3740   12.5890 C.3    27  LEU27       0.0297
     13  CG        17.4480   20.3200   12.3820 C.3    27  LEU27       0.0022
     14  CD1       17.9390   20.8580   13.7330 C.3    27  LEU27       0.0001
     15  CD2       18.5570   19.6030   11.6170 C.3    27  LEU27       0.0001
     16  N         23.9520   20.8230    9.7590 N.3    41  HIS41      -0.1241
     17  CA        23.2210   21.0080    8.5030 C.3    41  HIS41       0.1621
     18  C         21.8750   21.7260    8.6700 C.2    41  HIS41       0.2264
     19  O         21.0770   21.8090    7.7350 O.2    41  HIS41      -0.2867
     20  CB        23.0840   19.6930    7.7110 C.3    41  HIS41       0.0745
     21  CG        21.8490   18.8950    8.0190 C.ar   41  HIS41       0.0817
     22  ND1       21.8950   17.6570    8.6310 N.ar   41  HIS41      -0.2268
     23  CD2       20.5410   19.1280    7.7480 C.ar   41  HIS41       0.1154
     24  CE1       20.6710   17.1770    8.7420 C.ar   41  HIS41       0.1986
     25  NE2       19.8310   18.0500    8.2180 N.ar   41  HIS41      -0.2212
     26  N         22.8010   22.0640    0.7940 N.3    49  MET49      -0.1245
     27  CA        23.1350   20.7200    1.2650 C.3    49  MET49       0.1570
     28  C         24.0640   19.8990    0.3570 C.2    49  MET49       0.2261
     29  O         24.9000   19.1460    0.8600 O.2    49  MET49      -0.2867
     30  CB        21.8550   19.9480    1.6140 C.3    49  MET49       0.0387
     31  CG        21.2640   20.3610    2.9730 C.3    49  MET49       0.0595
     32  SD        19.4610   20.2490    3.1240 S.3    49  MET49      -0.1393
     33  CE        19.2310   20.6790    4.8570 C.3    49  MET49       0.0692
     34  N         30.5430   24.6770    5.5160 N.3    54  TYR54      -0.1241
     35  CA        29.9780   24.9110    6.8330 C.3    54  TYR54       0.1605
     36  C         30.7650   26.0010    7.5600 C.2    54  TYR54       0.2264
     37  O         30.1800   26.9680    8.0370 O.2    54  TYR54      -0.2867
     38  CB        29.9130   23.6120    7.6420 C.3    54  TYR54       0.0534
     39  CG        28.8400   22.6460    7.1600 C.ar   54  TYR54      -0.0201
     40  CD1       27.4930   23.0020    7.1810 C.ar   54  TYR54      -0.0009
     41  CD2       29.1710   21.3720    6.7030 C.ar   54  TYR54      -0.0009
     42  CE1       26.5040   22.1240    6.7480 C.ar   54  TYR54       0.0417
     43  CE2       28.1880   20.4850    6.2700 C.ar   54  TYR54       0.0417
     44  CZ        26.8550   20.8670    6.2950 C.ar   54  TYR54       0.1957
     45  OH        25.8730   19.9920    5.8670 O.3    54  TYR54      -0.2866
     46  N         12.9610    6.7510   10.2830 N.3   140  PHE140     -0.1227
     47  CA        12.9970    8.2060   10.3210 C.3   140  PHE140      0.1736
     48  C         12.2080    8.8110    9.1640 C.2   140  PHE140      0.2595
     49  O         12.3250    8.3640    8.0220 O.2   140  PHE140     -0.2718
     50  CB        14.4500    8.7050   10.2770 C.3   140  PHE140      0.0547
     51  CG        15.2670    8.2800   11.4570 C.ar  140  PHE140     -0.0202
     52  CD1       16.1660    7.2310   11.3580 C.ar  140  PHE140     -0.0042
     53  CD2       15.1170    8.9110   12.6850 C.ar  140  PHE140     -0.0042
     54  CE1       16.9160    6.8390   12.4530 C.ar  140  PHE140     -0.0003
     55  CE2       15.8670    8.5190   13.7780 C.ar  140  PHE140     -0.0003
     56  CZ        16.7710    7.4870   13.6570 C.ar  140  PHE140     -0.0000
     57  N         11.3950    9.8190    9.4540 N.am  141  LEU141     -0.1966
     58  CA        10.7670   10.5940    8.3860 C.3   141  LEU141      0.1728
     59  C         11.4760   11.9270    8.2920 C.2   141  LEU141      0.2616
     60  O         12.4500   12.1650    9.0000 O.2   141  LEU141     -0.2715
     61  CB         9.2790   10.7960    8.6550 C.3   141  LEU141      0.0311
     62  CG         8.5340    9.4700    8.8040 C.3   141  LEU141      0.0022
     63  CD1        7.0660    9.6960    9.1680 C.3   141  LEU141      0.0001
     64  CD2        8.6730    8.6290    7.5290 C.3   141  LEU141      0.0001
     65  N         10.9990   12.8030    7.4210 N.am  142  ASN142     -0.1958
     66  CA        11.5950   14.1260    7.3230 C.3   142  ASN142      0.1819
     67  C         11.3190   14.9510    8.5730 C.2   142  ASN142      0.2622
     68  O         10.2040   14.9430    9.0980 O.2   142  ASN142     -0.2715
     69  CB        11.1420   14.8430    6.0480 C.3   142  ASN142      0.1195
     70  CG        12.0890   14.5940    4.8800 C.2   142  ASN142      0.2630
     71  OD1       11.9920   13.5760    4.1900 O.2   142  ASN142     -0.2716
     72  ND2       13.0260   15.5180    4.6660 N.am  142  ASN142     -0.0877
     73  N         12.3470   15.6470    9.0520 N.am  143  GLY143     -0.1940
     74  CA        12.2620   16.3770   10.3040 C.3   143  GLY143      0.2014
     75  C         12.8940   15.6450   11.4800 C.2   143  GLY143      0.2640
     76  O         13.0690   16.2260   12.5510 O.2   143  GLY143     -0.2714
     77  N         13.2430   14.3730   11.2830 N.am  144  SER144     -0.1935
     78  CA        13.7830   13.5390   12.3590 C.3   144  SER144      0.2055
     79  C         15.2270   13.8810   12.7730 C.2   144  SER144      0.2643
     80  O         15.6580   13.5240   13.8630 O.2   144  SER144     -0.2714
     81  CB        13.6600   12.0390   12.0120 C.3   144  SER144      0.2130
     82  OG        14.4330   11.6850   10.8690 O.3   144  SER144     -0.2179
     83  N         15.9690   14.5680   11.9120 N.am  145  CYS145     -0.1967
     84  CA        17.3740   14.9450   12.2420 C.3   145  CYS145      0.1712
     85  C         17.5230   15.5520   13.6140 C.2   145  CYS145      0.2296
     86  O         16.6810   16.3700   14.0500 O.2   145  CYS145     -0.2864
     87  CB        17.9110   15.9140   11.1960 C.3   145  CYS145      0.0983
     88  SG        18.1890   14.9990    9.7200 S.3   145  CYS145     -0.0798
     89  N         20.9000   11.6960   14.9380 N.3   163  HIS163     -0.1226
     90  CA        20.5580   11.4130   13.5510 C.3   163  HIS163      0.1752
     91  C         20.9340   12.5490   12.5810 C.2   163  HIS163      0.2596
     92  O         20.7040   13.7190   12.8570 O.2   163  HIS163     -0.2718
     93  CB        19.0720   11.0960   13.4310 C.3   163  HIS163      0.0759
     94  CG        18.6850   10.5660   12.0890 C.ar  163  HIS163      0.0818
     95  ND1       19.3740    9.5420   11.4720 N.ar  163  HIS163     -0.2268
     96  CD2       17.6970   10.9240   11.2370 C.ar  163  HIS163      0.1154
     97  CE1       18.8200    9.2900   10.2980 C.ar  163  HIS163      0.1986
     98  NE2       17.8030   10.1160   10.1310 N.ar  163  HIS163     -0.2212
     99  N         21.4990   12.1900   11.4370 N.am  164  HIS164     -0.1961
    100  CA        21.9130   13.1750   10.4410 C.3   164  HIS164      0.1787
    101  C         21.3000   12.8950    9.0820 C.2   164  HIS164      0.2620
    102  O         20.9040   13.8240    8.3810 O.2   164  HIS164     -0.2715
    103  CB        23.4420   13.2270   10.3000 C.3   164  HIS164      0.0785
    104  CG        24.1310   13.9650   11.4060 C.ar  164  HIS164      0.0821
    105  ND1       24.6400   15.2370   11.2430 N.ar  164  HIS164     -0.2267
    106  CD2       24.4070   13.6100   12.6850 C.ar  164  HIS164      0.1154
    107  CE1       25.2010   15.6330   12.3750 C.ar  164  HIS164      0.1986
    108  NE2       25.0670   14.6670   13.2680 N.ar  164  HIS164     -0.2212
    109  N         21.2310   11.6220    8.6980 N.am  165  MET165     -0.1963
    110  CA        20.7590   11.3140    7.3530 C.3   165  MET165      0.1736
    111  C         20.3180    9.8810    7.0560 C.2   165  MET165      0.2616
    112  O         20.5720    8.9450    7.8310 O.2   165  MET165     -0.2715
    113  CB        21.7990   11.7460    6.3160 C.3   165  MET165      0.0427
    114  CG        23.1630   11.1240    6.5050 C.3   165  MET165      0.0599
    115  SD        24.2900   11.5930    5.1700 S.3   165  MET165     -0.1393
    116  CE        25.8040   10.8530    5.7610 C.3   165  MET165      0.0692
    117  N         19.6440    9.7500    5.9120 N.am  166  GLU166     -0.1963
    118  CA        19.1880    8.4800    5.3720 C.3   166  GLU166      0.1733
    119  C         19.9580    8.1920    4.0910 C.2   166  GLU166      0.2616
    120  O         20.1840    9.0900    3.2960 O.2   166  GLU166     -0.2715
    121  CB        17.6950    8.5590    5.0720 C.3   166  GLU166      0.0429
    122  CG        17.1100    7.3110    4.4180 C.3   166  GLU166      0.1163
    123  CD        15.5900    7.2770    4.5020 C.2   166  GLU166      0.3649
    124  OE1       15.0670    6.9360    5.5860 O.co2 166  GLU166     -0.2457
    125  OE2       14.9180    7.6010    3.4950 O.co2 166  GLU166     -0.2457
    126  N         20.3660    6.9440    3.8920 N.am  167  LEU167     -0.1964
    127  CA        21.1460    6.5800    2.7110 C.3   167  LEU167      0.1713
    128  C         20.2680    5.9370    1.6440 C.2   167  LEU167      0.2458
    129  O         19.1190    5.5640    1.9110 O.2   167  LEU167     -0.2730
    130  CB        22.3180    5.6670    3.0890 C.3   167  LEU167      0.0310
    131  CG        23.3890    6.3870    3.9170 C.3   167  LEU167      0.0022
    132  CD1       24.3080    5.4280    4.6640 C.3   167  LEU167      0.0001
    133  CD2       24.1880    7.3480    3.0330 C.3   167  LEU167      0.0001
    134  N         20.7960    5.8320    0.4190 N.am  168  PRO168     -0.2727
    135  CA        20.0290    5.2380   -0.6760 C.3   168  PRO168      0.1402
    136  C         19.2170    3.9850   -0.2750 C.2   168  PRO168      0.2269
    137  O         18.0600    3.8640   -0.6990 O.2   168  PRO168     -0.2865
    138  CB        21.1190    4.9060   -1.7040 C.3   168  PRO168      0.0296
    139  CG        22.1340    6.0330   -1.5170 C.3   168  PRO168      0.0237
    140  CD        22.1030    6.3540   -0.0350 C.3   168  PRO168      0.0939
    141  N         20.2360    4.4590    7.9130 N.3   172  HIS172     -0.1241
    142  CA        20.4780    5.7370    8.5770 C.3   172  HIS172      0.1621
    143  C         21.8890    5.9180    9.1070 C.2   172  HIS172      0.2264
    144  O         22.5500    4.9660    9.5230 O.2   172  HIS172     -0.2867
    145  CB        19.4300    5.9270    9.6760 C.3   172  HIS172      0.0745
    146  CG        18.0350    5.7730    9.1690 C.ar  172  HIS172      0.0817
    147  ND1       17.2630    4.6650    9.4390 N.ar  172  HIS172     -0.2268
    148  CD2       17.3080    6.5430    8.3250 C.ar  172  HIS172      0.1154
    149  CE1       16.1010    4.7830    8.8210 C.ar  172  HIS172      0.1986
    150  NE2       16.1060    5.9100    8.1330 N.ar  172  HIS172     -0.2212
    151  N         28.2640   14.6740    5.9840 N.3   187  ASP187     -0.1225
    152  CA        26.9940   15.3850    5.9910 C.3   187  ASP187      0.1805
    153  C         26.8440   16.3190    4.7910 C.2   187  ASP187      0.2598
    154  O         26.8230   17.5480    4.9350 O.2   187  ASP187     -0.2718
    155  CB        26.8020   16.1460    7.2920 C.3   187  ASP187      0.1424
    156  CG        27.9510   17.0900    7.5940 C.2   187  ASP187      0.3668
    157  OD1       29.1170   16.8020    7.2150 O.co2 187  ASP187     -0.2456
    158  OD2       27.6750   18.1260    8.2300 O.co2 187  ASP187     -0.2456
    159  N         26.7590   15.7150    3.6080 N.am  188  ARG188     -0.1966
    160  CA        26.3570   16.4160    2.3990 C.3   188  ARG188      0.1729
    161  C         25.5860   15.4550    1.5060 C.2   188  ARG188      0.2616
    162  O         25.6570   14.2410    1.6820 O.2   188  ARG188     -0.2715
    163  CB        27.5580   17.0310    1.6690 C.3   188  ARG188      0.0348
    164  CG        28.7550   16.1280    1.5070 C.3   188  ARG188      0.0492
    165  CD        29.9850   16.9300    1.0920 C.3   188  ARG188      0.2205
    166  NE        31.1610   16.0830    0.8770 N.pl3 188  ARG188     -0.0865
    167  CZ        31.7150   15.8220   -0.3110 C.cat 188  ARG188      0.5346
    168  NH1       32.7810   15.0350   -0.3770 N.pl3 188  ARG188      0.1354
    169  NH2       31.2180   16.3480   -1.4290 N.pl3 188  ARG188      0.1354
    170  N         24.8260   16.0000    0.5660 N.am  189  GLN189     -0.1963
    171  CA        24.0230   15.1720   -0.3160 C.3   189  GLN189      0.1733
    172  C         24.8280   14.7320   -1.5370 C.2   189  GLN189      0.2617
    173  O         24.6820   15.2890   -2.6260 O.2   189  GLN189     -0.2715
    174  CB        22.7550   15.9090   -0.7370 C.3   189  GLN189      0.0408
    175  CG        21.9040   16.3640    0.4320 C.3   189  GLN189      0.0908
    176  CD        20.5730   16.9410   -0.0060 C.2   189  GLN189      0.2608
    177  OE1       19.6510   17.0710    0.7960 O.2   189  GLN189     -0.2717
    178  NE2       20.4650   17.2900   -1.2860 N.am  189  GLN189     -0.0878
    179  N         25.6870   13.7350   -1.3360 N.am  190  THR190     -0.1937
    180  CA        26.4300   13.1300   -2.4320 C.3   190  THR190      0.2028
    181  C         25.9370   11.7040   -2.6650 C.2   190  THR190      0.2642
    182  O         24.7610   11.4120   -2.4500 O.2   190  THR190     -0.2714
    183  CB        27.9480   13.1590   -2.1930 C.3   190  THR190      0.1808
    184  OG1       28.3310   12.0800   -1.3320 O.3   190  THR190     -0.2208
    185  CG2       28.3610   14.4910   -1.5840 C.3   190  THR190      0.0379
    186  N         26.8250   10.8150   -3.0950 N.am  191  ALA191     -0.1963
    187  CA        26.3880    9.5120   -3.5830 C.3   191  ALA191      0.1728
    188  C         26.8470    8.3510   -2.7110 C.2   191  ALA191      0.2616
    189  O         26.9070    7.2030   -3.1570 O.2   191  ALA191     -0.2715
    190  CB        26.8340    9.3060   -5.0310 C.3   191  ALA191      0.0334
    191  N         27.1550    8.6510   -1.4600 N.am  192  GLN192     -0.1977
    192  CA        27.5820    7.6270   -0.5240 C.3   192  GLN192      0.1601
    193  C         26.5470    6.5070   -0.4110 C.2   192  GLN192      0.2287
    194  O         25.3470    6.7210   -0.6300 O.2   192  GLN192     -0.2864
    195  CB        27.8490    8.2710    0.8310 C.3   192  GLN192      0.0394
    196  CG        26.8630    9.3660    1.1540 C.3   192  GLN192      0.0908
    197  CD        27.4280   10.3920    2.1050 C.2   192  GLN192      0.2608
    198  OE1       28.3960   10.1270    2.8300 O.2   192  GLN192     -0.2717
    199  NE2       26.8310   11.5800    2.1070 N.am  192  GLN192     -0.0878
@<TRIPOS>BOND
     1   190   187    1
     2   187   186    1
     3   187   188    1
     4   189   188    2
     5   186   181   am
     6   188   191   am
     7   181   182    2
     8   181   180    1
     9   173   172    2
    10   180   183    1
    11   180   179    1
    12   183   185    1
    13   183   184    1
    14   138   139    1
    15   138   135    1
    16   172   179   am
    17   172   171    1
    18   139   140    1
    19   191   192    1
    20   169   167    1
    21   178   176   am
    22   174   171    1
    23   174   175    1
    24   137   136    2
    25   135   136    1
    26   135   134    1
    27   194   193    2
    28   192   193    1
    29   192   195    1
    30   168   167    1
    31   171   170    1
    32   167   166    2
    33   140   134    1
    34   176   175    1
    35   176   177    2
    36    28    29    2
    37    28    27    1
    38   134   128   am
    39   170   161   am
    40    26    27    1
    41   195   196    1
    42   166   165    1
    43   165   164    1
    44   196   197    1
    45    27    30    1
    46   161   162    2
    47   161   160    1
    48   164   163    1
    49    30    31    1
    50   128   129    2
    51   128   127    1
    52   163   160    1
    53   197   199   am
    54   197   198    2
    55   160   159    1
    56   127   130    1
    57   127   126    1
    58    31    32    1
    59   133   131    1
    60   130   131    1
    61    32    33    1
    62   120   119    2
    63   125   123   ar
    64   159   153   am
    65   126   119   am
    66   131   132    1
    67   119   118    1
    68    71    70    2
    69   122   123    1
    70   122   121    1
    71   123   124   ar
    72    72    70   am
    73   153   154    2
    74   153   152    1
    75    70    69    1
    76   121   118    1
    77   115   116    1
    78   115   114    1
    79   118   117    1
    80    34    35    1
    81    45    44    1
    82   117   111   am
    83   151   152    1
    84   152   155    1
    85    69    66    1
    86    43    44   ar
    87    43    41   ar
    88    44    42   ar
    89   113   114    1
    90   113   110    1
    91    41    39   ar
    92    42    40   ar
    93    35    36    1
    94    35    38    1
    95   111   110    1
    96   111   112    2
    97    39    40   ar
    98    39    38    1
    99   157   156   ar
   100   155   156    1
   101    66    65    1
   102    66    67    1
   103   110   109    1
   104    65    59   am
   105    64    62    1
   106    36    37    2
   107   156   158   ar
   108    20    21    1
   109    20    17    1
   110    19    18    2
   111    23    21   ar
   112    23    25   ar
   113   141   142    1
   114    21    22   ar
   115    49    48    2
   116   150   148   ar
   117   150   149   ar
   118    25    24   ar
   119    59    58    1
   120    59    60    2
   121   148   146   ar
   122   102   101    2
   123    58    61    1
   124    58    57    1
   125    17    18    1
   126    17    16    1
   127    67    73   am
   128    67    68    2
   129   142   143    1
   130   142   145    1
   131    22    24   ar
   132    61    62    1
   133   109   101   am
   134    62    63    1
   135   149   147   ar
   136    73    74    1
   137   101   100    1
   138   143   144    2
   139    48    57   am
   140    48    47    1
   141   146   147   ar
   142   146   145    1
   143    88    87    1
   144     1     2    1
   145    98    97   ar
   146    98    96   ar
   147    50    47    1
   148    50    51    1
   149    46    47    1
   150    97    95   ar
   151   103   100    1
   152   103   104    1
   153    74    75    1
   154   100    99    1
   155     4     3    2
   156    82    81    1
   157    87    84    1
   158    96    94   ar
   159   105   104   ar
   160   105   107   ar
   161    77    75   am
   162    77    78    1
   163     2     3    1
   164     2     5    1
   165    52    51   ar
   166    52    54   ar
   167   104   106   ar
   168    99    91   am
   169    51    53   ar
   170    95    94   ar
   171    75    76    2
   172     6     5    1
   173     3     8   am
   174    15    13    1
   175     5     7    1
   176    83    84    1
   177    83    79   am
   178    81    78    1
   179    94    93    1
   180    84    85    1
   181    78    79    1
   182   107   108   ar
   183    13    12    1
   184    13    14    1
   185    54    56   ar
   186    91    92    2
   187    91    90    1
   188    12     9    1
   189     8     9    1
   190   106   108   ar
   191    53    55   ar
   192    79    80    2
   193     9    10    1
   194    93    90    1
   195    90    89    1
   196    85    86    2
   197    56    55   ar
   198    10    11    2
