@<TRIPOS>MOLECULE
tmp/3vbdA00.pdb
 82 79 0 0 0
SMALL
GASTEIGER

@<TRIPOS>ATOM
      1  N         -0.5610   -2.3690    6.1470 N.3    62  HIS62      -0.1241
      2  CA        -0.5970   -3.1640    7.3850 C.3    62  HIS62       0.1621
      3  C         -2.0040   -3.6980    7.6010 C.2    62  HIS62       0.2264
      4  O         -2.1340   -4.7350    8.2200 O.2    62  HIS62      -0.2867
      5  CB        -0.1080   -2.4110    8.5970 C.3    62  HIS62       0.0745
      6  CG        -0.4300   -0.9920    8.8540 C.ar   62  HIS62       0.0817
      7  ND1        0.2270    0.0610    8.2460 N.ar   62  HIS62      -0.2268
      8  CD2       -1.3570   -0.4780    9.6980 C.ar   62  HIS62       0.1154
      9  CE1       -0.3040    1.1810    8.7180 C.ar   62  HIS62       0.1986
     10  NE2       -1.2710    0.8840    9.5910 N.ar   62  HIS62      -0.2212
     11  N         -8.1940    0.3420    5.7590 N.3    65  ASN65      -0.1240
     12  CA        -9.0140    1.3280    6.4860 C.3    65  ASN65       0.1653
     13  C        -10.3780    1.6940    5.7810 C.2    65  ASN65       0.2266
     14  O        -10.3710    2.1220    4.5700 O.2    65  ASN65      -0.2867
     15  CB        -8.2910    2.6290    6.8230 C.3    65  ASN65       0.1155
     16  CG        -7.2670    2.4380    7.8680 C.2    65  ASN65       0.2627
     17  OD1       -7.1870    1.3660    8.4760 O.2    65  ASN65      -0.2716
     18  ND2       -6.4620    3.4770    8.1110 N.am   65  ASN65      -0.0877
     19  N        -13.9040    8.2090   12.6480 N.3    89  ILE89      -0.1231
     20  CA       -13.0200    8.6030   11.5260 C.3    89  ILE89       0.1692
     21  C        -12.7180    7.4170   10.6370 C.2    89  ILE89       0.2591
     22  O        -12.6130    7.6170    9.4210 O.2    89  ILE89      -0.2718
     23  CB       -11.7350    9.2990   12.0480 C.3    89  ILE89       0.0266
     24  CG1      -10.8480    9.7430   10.8650 C.3    89  ILE89       0.0019
     25  CG2      -10.9510    8.4980   13.0670 C.3    89  ILE89       0.0020
     26  CD1       -9.7100   10.6890   11.2860 C.3    89  ILE89       0.0001
     27  N        -12.5650    6.2130   11.1500 N.am   90  GLN90      -0.1979
     28  CA       -12.1950    5.0690   10.2750 C.3    90  GLN90       0.1601
     29  C        -12.4780    3.8000   11.0590 C.2    90  GLN90       0.2287
     30  O        -12.4970    3.7990   12.2820 O.2    90  GLN90      -0.2864
     31  CB       -10.7650    5.0900    9.7940 C.3    90  GLN90       0.0394
     32  CG        -9.7050    5.1940   10.8750 C.3    90  GLN90       0.0908
     33  CD        -8.9810    3.8910   11.1820 C.2    90  GLN90       0.2608
     34  OE1       -9.4700    2.7810   11.1240 O.2    90  GLN90      -0.2717
     35  NE2       -7.7150    4.0440   11.5910 N.am   90  GLN90      -0.0878
     36  N        -12.6040    3.5540   15.1440 N.3   119  VAL119     -0.1245
     37  CA       -11.7620    4.5800   15.7660 C.3   119  VAL119      0.1561
     38  C        -12.4710    5.9280   15.7530 C.2   119  VAL119      0.2260
     39  O        -12.9360    6.3860   14.7000 O.2   119  VAL119     -0.2867
     40  CB       -10.4400    4.6930   14.9800 C.3   119  VAL119      0.0252
     41  CG1       -9.5230    5.7470   15.6220 C.3   119  VAL119      0.0019
     42  CG2       -9.7170    3.3520   14.8610 C.3   119  VAL119      0.0019
     43  N         -8.6440   14.7640   14.6550 N.3   128  PHE128     -0.1241
     44  CA        -7.8960   13.6050   15.0690 C.3   128  PHE128      0.1605
     45  C         -6.4610   13.9730   15.4680 C.2   128  PHE128      0.2264
     46  O         -5.9210   13.4480   16.4490 O.2   128  PHE128     -0.2867
     47  CB        -7.9060   12.5910   13.9100 C.3   128  PHE128      0.0534
     48  CG        -7.1520   11.2960   14.2290 C.ar  128  PHE128     -0.0203
     49  CD1       -7.8030   10.2280   14.8160 C.ar  128  PHE128     -0.0042
     50  CD2       -5.7910   11.1680   13.9430 C.ar  128  PHE128     -0.0042
     51  CE1       -7.1370    9.0360   15.0850 C.ar  128  PHE128     -0.0003
     52  CE2       -5.1370    9.9910   14.2040 C.ar  128  PHE128     -0.0003
     53  CZ        -5.8000    8.9080   14.7870 C.ar  128  PHE128     -0.0000
     54  N         -3.1020    3.0490   20.9690 N.3   195  LEU195     -0.1245
     55  CA        -3.0520    2.5150   19.6270 C.3   195  LEU195      0.1561
     56  C         -2.3440    1.1650   19.6260 C.2   195  LEU195      0.2260
     57  O         -1.3290    1.0460   20.3450 O.2   195  LEU195     -0.2867
     58  CB        -2.2580    3.4580   18.7390 C.3   195  LEU195      0.0270
     59  CG        -2.8330    4.8600   18.6130 C.3   195  LEU195      0.0019
     60  CD1       -1.9260    5.7220   17.7410 C.3   195  LEU195      0.0001
     61  CD2       -4.2480    4.7840   18.0480 C.3   195  LEU195      0.0001
     62  N         -0.8850   -0.1100   16.8370 N.3   197  THR197     -0.1204
     63  CA         0.1710   -0.0430   15.8180 C.3   197  THR197      0.1979
     64  C          1.0190    1.1620   16.1180 C.2   197  THR197      0.2460
     65  O          0.5460    2.1300   16.7100 O.2   197  THR197     -0.2732
     66  CB        -0.4410    0.1330   14.4060 C.3   197  THR197      0.1783
     67  OG1       -1.2300    1.2950   14.3630 O.3   197  THR197     -0.2211
     68  CG2       -1.3040   -1.0720   14.0800 C.3   197  THR197      0.0376
     69  N          2.2910    1.1350   15.7090 N.am  198  PRO198     -0.2718
     70  CA         3.0650    2.4020   15.7430 C.3   198  PRO198      0.1520
     71  C          2.2720    3.5800   15.1780 C.2   198  PRO198      0.2440
     72  O          1.6060    3.4040   14.1630 O.2   198  PRO198     -0.2731
     73  CB         4.2350    2.0430   14.8540 C.3   198  PRO198      0.0310
     74  CG         4.4570    0.5920   15.1800 C.3   198  PRO198      0.0237
     75  CD         3.0640    0.0080   15.1610 C.3   198  PRO198      0.0939
     76  N          2.3190    4.7510   15.8030 N.am  199  PRO199     -0.2727
     77  CA         3.2090    5.1390   16.9190 C.3   199  PRO199      0.1402
     78  C          2.7450    4.7520   18.3200 C.2   199  PRO199      0.2269
     79  O          3.3630    5.2090   19.3030 O.2   199  PRO199     -0.2865
     80  CB         3.2570    6.6540   16.7540 C.3   199  PRO199      0.0296
     81  CG         1.8910    6.9980   16.1890 C.3   199  PRO199      0.0237
     82  CD         1.5890    5.9110   15.2240 C.3   199  PRO199      0.0939
@<TRIPOS>BOND
     1    14    13    2
     2    11    12    1
     3    13    12    1
     4     1     2    1
     5    12    15    1
     6    15    16    1
     7     2     3    1
     8     2     5    1
     9     3     4    2
    10    16    18   am
    11    16    17    2
    12     7     9   ar
    13     7     6   ar
    14     5     6    1
    15     9    10   ar
    16     6     8   ar
    17    22    21    2
    18    10     8   ar
    19    31    28    1
    20    31    32    1
    21    28    29    1
    22    28    27    1
    23    21    27   am
    24    21    20    1
    25    24    26    1
    26    24    23    1
    27    32    33    1
    28    29    30    2
    29    34    33    2
    30    33    35   am
    31    20    23    1
    32    20    19    1
    33    23    25    1
    34    47    48    1
    35    47    44    1
    36    50    52   ar
    37    50    48   ar
    38    68    66    1
    39    72    71    2
    40    52    53   ar
    41    48    49   ar
    42    67    66    1
    43    66    63    1
    44    43    44    1
    45    39    38    2
    46    53    51   ar
    47    49    51   ar
    48    73    74    1
    49    73    70    1
    50    42    40    1
    51    40    41    1
    52    40    37    1
    53    44    45    1
    54    36    37    1
    55    75    74    1
    56    75    69    1
    57    71    70    1
    58    71    76   am
    59    82    76    1
    60    82    81    1
    61    45    46    2
    62    69    70    1
    63    69    64   am
    64    38    37    1
    65    76    77    1
    66    63    64    1
    67    63    62    1
    68    64    65    2
    69    81    80    1
    70    80    77    1
    71    77    78    1
    72    60    59    1
    73    61    59    1
    74    78    79    2
    75    59    58    1
    76    58    55    1
    77    56    55    1
    78    56    57    2
    79    55    54    1
