@<TRIPOS>MOLECULE
tmp/3vbeC00.pdb
 166 160 0 0 0
SMALL
GASTEIGER

@<TRIPOS>ATOM
      1  N        -38.2230   49.8520   56.6560 N.3    50  SER50      -0.1202
      2  CA       -38.4160   49.2810   55.3250 C.3    50  SER50       0.2020
      3  C        -37.1260   48.6780   54.8060 C.2    50  SER50       0.2619
      4  O        -36.0430   48.9840   55.2920 O.2    50  SER50      -0.2717
      5  CB       -39.0010   50.3060   54.3270 C.3    50  SER50       0.2103
      6  OG       -38.0330   50.7690   53.3910 O.3    50  SER50      -0.2182
      7  N        -37.2490   47.8110   53.8060 N.am   51  ILE51      -0.1965
      8  CA       -36.0890   47.1540   53.2150 C.3    51  ILE51       0.1727
      9  C        -35.3040   48.1140   52.3270 C.2    51  ILE51       0.2616
     10  O        -34.2850   47.7420   51.7440 O.2    51  ILE51      -0.2715
     11  CB       -36.5000   45.9230   52.3850 C.3    51  ILE51       0.0290
     12  CG1      -35.2600   45.1890   51.8710 C.3    51  ILE51       0.0022
     13  CG2      -37.3990   46.3350   51.2300 C.3    51  ILE51       0.0023
     14  CD1      -35.5690   44.0960   50.8710 C.3    51  ILE51       0.0001
     15  N        -35.7830   49.3500   52.2300 N.am   52  LYS52      -0.1977
     16  CA       -35.1270   50.3640   51.4130 C.3    52  LYS52       0.1596
     17  C        -33.8350   50.8460   52.0640 C.2    52  LYS52       0.2287
     18  O        -32.9450   51.3650   51.3910 O.2    52  LYS52      -0.2864
     19  CB       -36.0670   51.5470   51.1710 C.3    52  LYS52       0.0298
     20  CG       -36.9270   51.4110   49.9250 C.3    52  LYS52       0.0038
     21  CD       -36.3390   50.3990   48.9550 C.3    52  LYS52       0.0206
     22  CE       -37.1170   50.3680   47.6500 C.3    52  LYS52       0.1093
     23  NZ       -38.4390   49.7020   47.8070 N.3    52  LYS52      -0.1314
     24  N        -30.4690   49.2290   50.2250 N.3    55  PRO55      -0.2116
     25  CA       -29.8590   49.7350   48.9850 C.3    55  PRO55       0.1372
     26  C        -29.5150   51.2200   49.0700 C.2    55  PRO55       0.2244
     27  O        -28.5610   51.6590   48.4220 O.2    55  PRO55      -0.2868
     28  CB       -30.9500   49.5030   47.9350 C.3    55  PRO55       0.0268
     29  CG       -32.2380   49.5680   48.7320 C.3    55  PRO55       0.0207
     30  CD       -31.8940   48.8990   50.0500 C.3    55  PRO55       0.0892
     31  N        -40.7940   54.4820   49.9090 N.3    83  ASN83      -0.1225
     32  CA       -39.8250   54.0070   50.8770 C.3    83  ASN83       0.1785
     33  C        -38.3880   54.3990   50.5400 C.2    83  ASN83       0.2597
     34  O        -37.5960   54.6880   51.4380 O.2    83  ASN83      -0.2718
     35  CB       -39.9840   52.5030   51.0900 C.3    83  ASN83       0.1169
     36  CG       -41.3620   52.1430   51.6200 C.2    83  ASN83       0.2627
     37  OD1      -41.9650   52.8970   52.3900 O.2    83  ASN83      -0.2716
     38  ND2      -41.8760   51.0030   51.1920 N.am   83  ASN83      -0.0877
     39  N        -38.0600   54.4170   49.2500 N.am   84  MET84      -0.1979
     40  CA       -36.7220   54.7920   48.8090 C.3    84  MET84       0.1605
     41  C        -36.3940   56.2600   49.1250 C.2    84  MET84       0.2287
     42  O        -35.2860   56.5800   49.5520 O.2    84  MET84      -0.2864
     43  CB       -36.5200   54.4950   47.3150 C.3    84  MET84       0.0413
     44  CG       -35.0680   54.6930   46.8410 C.3    84  MET84       0.0598
     45  SD       -33.8270   53.6280   47.6520 S.3    84  MET84      -0.1393
     46  CE       -34.0040   52.1280   46.6800 C.3    84  MET84       0.0692
     47  N        -27.3740   48.3960   44.1930 N.3   159  ASN159     -0.1240
     48  CA       -28.6900   47.9960   44.6550 C.3   159  ASN159      0.1653
     49  C        -28.7710   46.4670   44.7410 C.2   159  ASN159      0.2266
     50  O        -29.0320   45.9000   45.7980 O.2   159  ASN159     -0.2867
     51  CB       -29.7470   48.5440   43.6960 C.3   159  ASN159      0.1155
     52  CG       -31.1530   48.2440   44.1430 C.2   159  ASN159      0.2627
     53  OD1      -31.3950   47.3010   44.8980 O.2   159  ASN159     -0.2716
     54  ND2      -32.0960   49.0470   43.6780 N.am  159  ASN159     -0.0877
     55  N        -28.1480   43.1300   48.3420 N.3   163  HIS163     -0.1241
     56  CA       -28.9700   41.9670   48.6260 C.3   163  HIS163      0.1621
     57  C        -28.1960   40.6720   48.4130 C.2   163  HIS163      0.2264
     58  O        -28.4970   39.6490   49.0280 O.2   163  HIS163     -0.2867
     59  CB       -30.2520   41.9880   47.7910 C.3   163  HIS163      0.0745
     60  CG       -31.1430   43.1460   48.1080 C.ar  163  HIS163      0.0817
     61  ND1      -31.7850   43.2740   49.3190 N.ar  163  HIS163     -0.2268
     62  CD2      -31.4760   44.2420   47.3830 C.ar  163  HIS163      0.1154
     63  CE1      -32.4920   44.3900   49.3200 C.ar  163  HIS163      0.1986
     64  NE2      -32.3230   44.9940   48.1570 N.ar  163  HIS163     -0.2212
     65  N        -40.4540   37.0320   46.0670 N.3   184  MET184     -0.1230
     66  CA       -40.3310   38.4430   46.4010 C.3   184  MET184      0.1702
     67  C        -40.9350   39.3390   45.3280 C.2   184  MET184      0.2593
     68  O        -40.7700   39.1020   44.1290 O.2   184  MET184     -0.2718
     69  CB       -38.8520   38.7950   46.6370 C.3   184  MET184      0.0401
     70  CG       -38.5480   40.2810   46.7700 C.3   184  MET184      0.0596
     71  SD       -39.2720   41.0350   48.2220 S.3   184  MET184     -0.1393
     72  CE       -38.9380   42.7660   47.9710 C.3   184  MET184      0.0692
     73  N        -41.6310   40.3820   45.7620 N.am  185  GLY185     -0.1942
     74  CA       -42.1570   41.3580   44.8320 C.3   185  GLY185      0.2014
     75  C        -41.0520   42.1010   44.1190 C.2   185  GLY185      0.2639
     76  O        -39.9690   42.2910   44.6710 O.2   185  GLY185     -0.2714
     77  N        -41.3090   42.4960   42.8780 N.am  186  ILE186     -0.1963
     78  CA       -40.3230   43.2350   42.1000 C.3   186  ILE186      0.1727
     79  C        -40.6350   44.7290   42.0650 C.2   186  ILE186      0.2617
     80  O        -41.7430   45.1210   41.6930 O.2   186  ILE186     -0.2715
     81  CB       -40.2750   42.7490   40.6470 C.3   186  ILE186      0.0290
     82  CG1      -39.7810   41.3060   40.5800 C.3   186  ILE186      0.0022
     83  CG2      -39.4000   43.7060   39.8120 C.3   186  ILE186      0.0023
     84  CD1      -39.9530   40.6550   39.2110 C.3   186  ILE186      0.0001
     85  N        -39.6650   45.5550   42.4600 N.am  187  GLY187     -0.1940
     86  CA       -39.7660   47.0040   42.3320 C.3   187  GLY187      0.2014
     87  C        -38.6870   47.5150   41.3900 C.2   187  GLY187      0.2640
     88  O        -38.9130   47.6740   40.1920 O.2   187  GLY187     -0.2714
     89  N        -37.4980   47.7540   41.9350 N.am  188  SER188     -0.1935
     90  CA       -36.3000   47.9540   41.1210 C.3   188  SER188      0.2055
     91  C        -35.7660   46.5970   40.6570 C.2   188  SER188      0.2644
     92  O        -35.0270   46.5060   39.6750 O.2   188  SER188     -0.2714
     93  CB       -35.2190   48.6510   41.9440 C.3   188  SER188      0.2130
     94  OG       -34.7390   47.8020   42.9850 O.3   188  SER188     -0.2179
     95  N        -36.1300   45.5390   41.3830 N.am  189  GLY189     -0.1939
     96  CA       -35.6520   44.2080   41.0630 C.3   189  GLY189      0.2014
     97  C        -34.3770   43.8580   41.7990 C.2   189  GLY189      0.2639
     98  O        -33.8830   42.7430   41.7130 O.2   189  GLY189     -0.2714
     99  N        -33.8500   44.8160   42.5420 N.am  190  GLY190     -0.1939
    100  CA       -32.6580   44.5780   43.3260 C.3   190  GLY190      0.2014
    101  C        -32.7560   43.3970   44.2780 C.2   190  GLY190      0.2640
    102  O        -31.8560   42.5740   44.3130 O.2   190  GLY190     -0.2714
    103  N        -33.8220   43.3120   45.0700 N.am  191  THR191     -0.1936
    104  CA       -33.8680   42.2830   46.1020 C.3   191  THR191      0.2028
    105  C        -33.9380   40.9020   45.4670 C.2   191  THR191      0.2642
    106  O        -33.0800   40.0460   45.7240 O.2   191  THR191     -0.2714
    107  CB       -35.0520   42.4650   47.0640 C.3   191  THR191      0.1808
    108  OG1      -35.0420   43.7940   47.6150 O.3   191  THR191     -0.2208
    109  CG2      -34.9710   41.4380   48.1880 C.3   191  THR191      0.0379
    110  N        -34.9500   40.6820   44.6280 N.am  192  VAL192     -0.1977
    111  CA       -35.1130   39.3750   44.0210 C.3   192  VAL192      0.1596
    112  C        -33.8630   38.9390   43.2100 C.2   192  VAL192      0.2287
    113  O        -33.5170   37.7590   43.1990 O.2   192  VAL192     -0.2864
    114  CB       -36.4080   39.2720   43.1890 C.3   192  VAL192      0.0276
    115  CG1      -36.2380   39.9670   41.8540 C.3   192  VAL192      0.0022
    116  CG2      -36.7790   37.8250   42.9710 C.3   192  VAL192      0.0022
    117  N        -48.1650   48.9430   46.5170 N.3   230  THR230     -0.1203
    118  CA       -47.1560   49.9920   46.6990 C.3   230  THR230      0.1994
    119  C        -45.7410   49.4530   46.9160 C.2   230  THR230      0.2618
    120  O        -45.5320   48.5540   47.7290 O.2   230  THR230     -0.2717
    121  CB       -47.5470   50.9390   47.8650 C.3   230  THR230      0.1784
    122  OG1      -48.8060   51.5630   47.5700 O.3   230  THR230     -0.2211
    123  CG2      -46.4770   52.0140   48.0870 C.3   230  THR230      0.0376
    124  N        -44.7790   50.0150   46.1850 N.am  231  GLY231     -0.1942
    125  CA       -43.3980   49.5560   46.2220 C.3   231  GLY231      0.2014
    126  C        -43.1370   48.5700   45.0970 C.2   231  GLY231      0.2638
    127  O        -41.9960   48.2950   44.7210 O.2   231  GLY231     -0.2714
    128  N        -44.2250   48.0600   44.5400 N.am  232  ASN232     -0.1972
    129  CA       -44.1810   47.0020   43.5500 C.3   232  ASN232      0.1688
    130  C        -44.7010   47.5130   42.1890 C.2   232  ASN232      0.2292
    131  O        -45.4740   48.4730   42.1370 O.2   232  ASN232     -0.2864
    132  CB       -45.0300   45.8440   44.0890 C.3   232  ASN232      0.1181
    133  CG       -44.9440   44.5860   43.2460 C.2   232  ASN232      0.2629
    134  OD1      -44.8030   44.6380   42.0180 O.2   232  ASN232     -0.2716
    135  ND2      -45.0570   43.4350   43.9100 N.am  232  ASN232     -0.0877
    136  N        -47.6550   45.2150   49.7490 N.3   275  SER275     -0.1217
    137  CA       -46.5660   44.4630   49.1420 C.3   275  SER275      0.1889
    138  C        -46.3370   43.1500   49.9070 C.2   275  SER275      0.2288
    139  O        -46.2240   42.0630   49.2920 O.2   275  SER275     -0.2866
    140  CB       -45.3030   45.3270   49.1350 C.3   275  SER275      0.2089
    141  OG       -44.2420   44.6940   48.4610 O.3   275  SER275     -0.2183
    142  N        -41.7120   43.5710   53.2930 N.3   302  PRO302     -0.2102
    143  CA       -40.7620   44.6810   53.1110 C.3   302  PRO302      0.1504
    144  C        -40.9750   45.9020   54.0030 C.2   302  PRO302      0.2576
    145  O        -40.0670   46.7060   54.1050 O.2   302  PRO302     -0.2718
    146  CB       -40.9570   45.0750   51.6440 C.3   302  PRO302      0.0282
    147  CG       -41.6280   43.8840   51.0040 C.3   302  PRO302      0.0208
    148  CD       -42.4910   43.3010   52.0750 C.3   302  PRO302      0.0893
    149  N        -42.1320   46.0650   54.6310 N.am  303  SER303     -0.1953
    150  CA       -42.3270   47.2560   55.4590 C.3   303  SER303      0.1924
    151  C        -43.4670   47.1440   56.4570 C.2   303  SER303      0.2314
    152  O        -44.3160   46.2520   56.3540 O.2   303  SER303     -0.2863
    153  CB       -42.5130   48.5170   54.5910 C.3   303  SER303      0.2116
    154  OG       -43.7580   48.5060   53.9200 O.3   303  SER303     -0.2180
    155  N        -49.0370   53.1350   55.9430 N.3   308  TYR308     -0.1241
    156  CA       -50.0330   53.2000   54.8930 C.3   308  TYR308      0.1605
    157  C        -51.4080   53.5600   55.3990 C.2   308  TYR308      0.2264
    158  O        -52.3890   53.2970   54.7210 O.2   308  TYR308     -0.2867
    159  CB       -50.0690   51.8830   54.1290 C.3   308  TYR308      0.0534
    160  CG       -48.6980   51.5200   53.6330 C.ar  308  TYR308     -0.0201
    161  CD1      -48.1300   52.1930   52.5510 C.ar  308  TYR308     -0.0009
    162  CD2      -47.9420   50.5440   54.2750 C.ar  308  TYR308     -0.0009
    163  CE1      -46.8510   51.8830   52.1030 C.ar  308  TYR308      0.0417
    164  CE2      -46.6590   50.2320   53.8350 C.ar  308  TYR308      0.0417
    165  CZ       -46.1180   50.9010   52.7480 C.ar  308  TYR308      0.1957
    166  OH       -44.8510   50.5800   52.2980 O.3   308  TYR308     -0.2866
@<TRIPOS>BOND
     1    84    82    1
     2    92    91    2
     3    83    81    1
     4    88    87    2
     5    82    81    1
     6    81    78    1
     7    91    90    1
     8    91    95   am
     9    96    95    1
    10    96    97    1
    11    90    89    1
    12    90    93    1
    13    87    89   am
    14    87    86    1
    15    80    79    2
    16    98    97    2
    17    97    99   am
    18   115   114    1
    19    93    94    1
    20   134   133    2
    21    79    78    1
    22    79    85   am
    23    78    77    1
    24   131   130    2
    25   130   129    1
    26    86    85    1
    27    99   100    1
    28    77    75   am
    29   116   114    1
    30   114   111    1
    31   113   112    2
    32   112   111    1
    33   133   135   am
    34   133   132    1
    35   100   101    1
    36   129   132    1
    37   129   128    1
    38    54    52   am
    39    51    52    1
    40    51    48    1
    41   111   110    1
    42    75    76    2
    43    75    74    1
    44    68    67    2
    45    52    53    2
    46    47    48    1
    47   101   102    2
    48   101   103   am
    49   128   126   am
    50   110   105   am
    51    48    49    1
    52   127   126    2
    53    49    50    2
    54    74    73    1
    55   103   104    1
    56   126   125    1
    57    67    73   am
    58    67    66    1
    59   105   106    2
    60   105   104    1
    61    65    66    1
    62   104   107    1
    63   124   125    1
    64   124   119   am
    65    66    69    1
    66   117   118    1
    67    69    70    1
    68    46    45    1
    69   118   119    1
    70   118   121    1
    71    70    71    1
    72    44    43    1
    73    44    45    1
    74   119   120    2
    75   107   108    1
    76   107   109    1
    77    43    40    1
    78    62    60   ar
    79    62    64   ar
    80   122   121    1
    81    22    23    1
    82    22    21    1
    83    59    60    1
    84    59    56    1
    85   121   123    1
    86    28    29    1
    87    28    25    1
    88    72    71    1
    89    60    61   ar
    90    64    63   ar
    91    55    56    1
    92    57    56    1
    93    57    58    2
    94    27    26    2
    95   141   140    1
    96    29    30    1
    97    40    41    1
    98    40    39    1
    99    21    20    1
   100    25    26    1
   101    25    24    1
   102    41    42    2
   103   140   137    1
   104   137   136    1
   105   137   138    1
   106    39    33   am
   107   139   138    2
   108    61    63   ar
   109    31    32    1
   110    20    19    1
   111    30    24    1
   112    33    32    1
   113    33    34    2
   114    14    12    1
   115    32    35    1
   116   147   146    1
   117   147   148    1
   118    35    36    1
   119    19    16    1
   120    38    36   am
   121    13    11    1
   122    18    17    2
   123    16    17    1
   124    16    15    1
   125    36    37    2
   126   146   143    1
   127    10     9    2
   128    12    11    1
   129   148   142    1
   130   163   161   ar
   131   163   165   ar
   132    15     9   am
   133   166   165    1
   134     9     8    1
   135    11     8    1
   136   161   160   ar
   137   165   164   ar
   138   143   142    1
   139   143   144    1
   140     8     7    1
   141     6     5    1
   142   160   159    1
   143   160   162   ar
   144     7     3   am
   145   164   162   ar
   146   154   153    1
   147   144   145    2
   148   144   149   am
   149   159   156    1
   150     5     2    1
   151   153   150    1
   152   149   150    1
   153   158   157    2
   154     3     4    2
   155     3     2    1
   156   156   157    1
   157   156   155    1
   158     2     1    1
   159   150   151    1
   160   152   151    2
