@<TRIPOS>MOLECULE
tmp/3vbfA00.pdb
 233 228 0 0 0
SMALL
GASTEIGER

@<TRIPOS>ATOM
      1  N         98.4570  270.5140   97.1730 N.3   109  TRP109     -0.1241
      2  CA        99.9010  270.7250   97.2700 C.3   109  TRP109      0.1605
      3  C        100.6550  269.5520   96.6680 C.2   109  TRP109      0.2264
      4  O        100.4990  268.4200   97.1300 O.2   109  TRP109     -0.2867
      5  CB       100.3160  270.8840   98.7330 C.3   109  TRP109      0.0550
      6  CG       101.7910  271.1130   98.9390 C.ar  109  TRP109      0.0003
      7  CD1      102.5180  272.2020   98.5540 C.ar  109  TRP109      0.0946
      8  CD2      102.6980  270.2510   99.6230 C.ar  109  TRP109      0.0152
      9  NE1      103.8240  272.0740   98.9610 N.ar  109  TRP109     -0.2442
     10  CE2      103.9600  270.8830   99.6220 C.ar  109  TRP109      0.0810
     11  CE3      102.5690  269.0060  100.2400 C.ar  109  TRP109      0.0012
     12  CZ2      105.0800  270.3130  100.2140 C.ar  109  TRP109      0.0191
     13  CZ3      103.6840  268.4400  100.8290 C.ar  109  TRP109      0.0001
     14  CH2      104.9240  269.0950  100.8110 C.ar  109  TRP109      0.0015
     15  N        103.4480  267.2210   96.3900 N.3   111  ILE111     -0.1231
     16  CA       104.4490  266.7880   97.3370 C.3   111  ILE111      0.1692
     17  C        105.8580  266.9260   96.7850 C.2   111  ILE111      0.2592
     18  O        106.2820  266.1880   95.8800 O.2   111  ILE111     -0.2718
     19  CB       104.1720  265.3590   97.7320 C.3   111  ILE111      0.0266
     20  CG1      102.7590  265.2790   98.3090 C.3   111  ILE111      0.0019
     21  CG2      105.1840  264.8990   98.7370 C.3   111  ILE111      0.0020
     22  CD1      102.1910  263.8990   98.3540 C.3   111  ILE111      0.0001
     23  N        106.5600  267.9110   97.3370 N.am  112  ASP112     -0.1960
     24  CA       107.9370  268.2420   96.9700 C.3   112  ASP112      0.1840
     25  C        108.5000  268.9260   98.2050 C.2   112  ASP112      0.2622
     26  O        108.0110  269.9840   98.5980 O.2   112  ASP112     -0.2715
     27  CB       107.9540  269.2160   95.7870 C.3   112  ASP112      0.1450
     28  CG       109.3630  269.5970   95.3490 C.2   112  ASP112      0.3671
     29  OD1      110.2800  269.6040   96.1990 O.co2 112  ASP112     -0.2456
     30  OD2      109.5490  269.9060   94.1510 O.co2 112  ASP112     -0.2456
     31  N        109.5230  268.3350   98.8130 N.am  113  ILE113     -0.1963
     32  CA       110.0950  268.9130  100.0260 C.3   113  ILE113      0.1727
     33  C        111.2460  269.8920   99.8220 C.2   113  ILE113      0.2616
     34  O        111.8310  270.3650  100.7950 O.2   113  ILE113     -0.2715
     35  CB       110.6030  267.8220  100.9420 C.3   113  ILE113      0.0290
     36  CG1      111.8340  267.1850  100.3210 C.3   113  ILE113      0.0022
     37  CG2      109.5410  266.7650  101.1310 C.3   113  ILE113      0.0023
     38  CD1      112.3820  266.0710  101.1510 C.3   113  ILE113      0.0001
     39  N        111.5620  270.2040   98.5690 N.am  114  THR114     -0.1951
     40  CA       112.6680  271.1050   98.2650 C.3   114  THR114      0.1897
     41  C        112.3530  272.5990   98.3530 C.2   114  THR114      0.2313
     42  O        113.1220  273.4260   97.8600 O.2   114  THR114     -0.2863
     43  CB       113.2420  270.8170   96.8730 C.3   114  THR114      0.1794
     44  OG1      112.2910  271.1920   95.8800 O.3   114  THR114     -0.2208
     45  CG2      113.5380  269.3380   96.7200 C.3   114  THR114      0.0378
     46  N        113.7630  255.6750  102.6000 N.3   131  PHE131     -0.1241
     47  CA       113.2950  255.8100  103.9760 C.3   131  PHE131      0.1605
     48  C        111.7870  255.8080  104.1060 C.2   131  PHE131      0.2264
     49  O        111.0630  255.8980  103.1100 O.2   131  PHE131     -0.2867
     50  CB       113.8200  257.1240  104.5630 C.3   131  PHE131      0.0534
     51  CG       113.4120  258.3480  103.7690 C.ar  131  PHE131     -0.0203
     52  CD1      112.1310  258.8850  103.8940 C.ar  131  PHE131     -0.0042
     53  CD2      114.2920  258.9240  102.8450 C.ar  131  PHE131     -0.0042
     54  CE1      111.7270  259.9780  103.1050 C.ar  131  PHE131     -0.0003
     55  CE2      113.9000  260.0170  102.0490 C.ar  131  PHE131     -0.0003
     56  CZ       112.6170  260.5440  102.1780 C.ar  131  PHE131     -0.0000
     57  N        108.5850  257.5810  106.5770 N.3   133  ALA133     -0.1245
     58  CA       108.4500  258.9030  107.1470 C.3   133  ALA133      0.1562
     59  C        107.2190  259.0740  107.9970 C.2   133  ALA133      0.2260
     60  O        106.2090  258.3870  107.8320 O.2   133  ALA133     -0.2867
     61  CB       108.4450  259.9370  106.0350 C.3   133  ALA133      0.0290
     62  N        104.6520  262.0390  109.0290 N.3   135  PHE135     -0.1241
     63  CA       104.1710  263.3770  108.6890 C.3   135  PHE135      0.1605
     64  C        103.2600  263.9200  109.7720 C.2   135  PHE135      0.2264
     65  O        102.3810  263.2210  110.2760 O.2   135  PHE135     -0.2867
     66  CB       103.4320  263.3520  107.3620 C.3   135  PHE135      0.0534
     67  CG       104.3400  263.4300  106.1790 C.ar  135  PHE135     -0.0203
     68  CD1      104.5900  264.6450  105.5620 C.ar  135  PHE135     -0.0042
     69  CD2      105.0020  262.3020  105.7220 C.ar  135  PHE135     -0.0042
     70  CE1      105.4980  264.7260  104.5080 C.ar  135  PHE135     -0.0003
     71  CE2      105.9090  262.3760  104.6710 C.ar  135  PHE135     -0.0003
     72  CZ       106.1600  263.5850  104.0640 C.ar  135  PHE135     -0.0000
     73  N        100.8490  267.3360  110.8160 N.3   137  PHE137     -0.1241
     74  CA       100.1600  268.5130  110.2940 C.3   137  PHE137      0.1605
     75  C         99.6940  269.4450  111.3980 C.2   137  PHE137      0.2264
     76  O         98.8060  269.1050  112.1900 O.2   137  PHE137     -0.2867
     77  CB        98.9710  268.0550  109.4680 C.3   137  PHE137      0.0534
     78  CG        99.3300  267.0310  108.4500 C.ar  137  PHE137     -0.0203
     79  CD1       99.8830  267.4030  107.2360 C.ar  137  PHE137     -0.0042
     80  CD2       99.1930  265.6810  108.7360 C.ar  137  PHE137     -0.0042
     81  CE1      100.3000  266.4410  106.3160 C.ar  137  PHE137     -0.0003
     82  CE2       99.6100  264.7110  107.8210 C.ar  137  PHE137     -0.0003
     83  CZ       100.1640  265.0930  106.6110 C.ar  137  PHE137     -0.0000
     84  N         92.1150  265.9660  105.2120 N.3   153  TYR153     -0.1227
     85  CA        93.3570  265.9160  104.4530 C.3   153  TYR153      0.1736
     86  C         93.2470  264.6310  103.6580 C.2   153  TYR153      0.2595
     87  O         92.8400  263.5960  104.1940 O.2   153  TYR153     -0.2718
     88  CB        94.5880  265.7850  105.3370 C.3   153  TYR153      0.0548
     89  CG        94.7480  266.8140  106.4170 C.ar  153  TYR153     -0.0200
     90  CD1       94.5860  268.1730  106.1630 C.ar  153  TYR153     -0.0009
     91  CD2       95.1510  266.4280  107.6870 C.ar  153  TYR153     -0.0009
     92  CE1       94.8340  269.1180  107.1600 C.ar  153  TYR153      0.0417
     93  CE2       95.3990  267.3570  108.6810 C.ar  153  TYR153      0.0417
     94  CZ        95.2440  268.6930  108.4160 C.ar  153  TYR153      0.1957
     95  OH        95.5270  269.5840  109.4210 O.3   153  TYR153     -0.2866
     96  N         93.5950  264.6890  102.3820 N.am  154  MET154     -0.1965
     97  CA        93.5380  263.4960  101.5680 C.3   154  MET154      0.1736
     98  C         94.8000  263.3440  100.7460 C.2   154  MET154      0.2616
     99  O         95.3460  264.3150  100.2300 O.2   154  MET154     -0.2715
    100  CB        92.3180  263.5130  100.6560 C.3   154  MET154      0.0427
    101  CG        92.2120  262.2770   99.7900 C.3   154  MET154      0.0599
    102  SD        90.6330  262.1630   98.9430 S.3   154  MET154     -0.1393
    103  CE        90.7690  263.5260   97.8030 C.3   154  MET154      0.0692
    104  N         95.2790  262.1120  100.6570 N.am  155  PHE155     -0.1974
    105  CA        96.4630  261.8290   99.8830 C.3   155  PHE155      0.1639
    106  C         95.9690  261.3660   98.5180 C.2   155  PHE155      0.2290
    107  O         95.2140  260.4060   98.4070 O.2   155  PHE155     -0.2864
    108  CB        97.2720  260.7380  100.5640 C.3   155  PHE155      0.0560
    109  CG        98.4230  260.2600   99.7540 C.ar  155  PHE155     -0.0200
    110  CD1       98.6810  258.9010   99.6340 C.ar  155  PHE155     -0.0042
    111  CD2       99.2300  261.1640   99.0700 C.ar  155  PHE155     -0.0042
    112  CE1       99.7320  258.4410   98.8340 C.ar  155  PHE155     -0.0003
    113  CE2      100.2830  260.7170   98.2690 C.ar  155  PHE155     -0.0003
    114  CZ       100.5300  259.3500   98.1520 C.ar  155  PHE155     -0.0000
    115  N         93.6560  257.5340  101.1490 N.3   177  PRO177     -0.2116
    116  CA        93.5760  257.6820  102.6020 C.3   177  PRO177      0.1372
    117  C         93.3090  259.1430  102.9520 C.2   177  PRO177      0.2244
    118  O         93.9120  260.0430  102.3740 O.2   177  PRO177     -0.2868
    119  CB        94.9490  257.1930  103.0900 C.3   177  PRO177      0.0268
    120  CG        95.8560  257.4620  101.9460 C.3   177  PRO177      0.0207
    121  CD        95.0100  257.1300  100.7260 C.3   177  PRO177      0.0892
    122  N         92.3800  261.9390  106.3630 N.3   179  VAL179     -0.1245
    123  CA        92.3940  262.1430  107.7980 C.3   179  VAL179      0.1561
    124  C         91.4050  263.2520  108.0830 C.2   179  VAL179      0.2260
    125  O         91.4360  264.2930  107.4380 O.2   179  VAL179     -0.2867
    126  CB        93.7500  262.6150  108.3260 C.3   179  VAL179      0.0252
    127  CG1       93.5980  263.0860  109.7640 C.3   179  VAL179      0.0019
    128  CG2       94.7530  261.4880  108.2640 C.3   179  VAL179      0.0019
    129  N        100.8380  260.7040  110.8800 N.3   190  VAL190     -0.1245
    130  CA       100.7260  259.3890  110.2500 C.3   190  VAL190      0.1561
    131  C        102.0790  258.8710  109.7780 C.2   190  VAL190      0.2260
    132  O        103.0410  259.6320  109.6740 O.2   190  VAL190     -0.2867
    133  CB        99.7930  259.4340  109.0140 C.3   190  VAL190      0.0252
    134  CG1       98.4250  259.8830  109.4150 C.3   190  VAL190      0.0019
    135  CG2      100.3440  260.3840  107.9770 C.3   190  VAL190      0.0019
    136  N        104.2340  256.9510  106.7350 N.3   192  VAL192     -0.1245
    137  CA       104.2300  256.7800  105.2900 C.3   192  VAL192      0.1561
    138  C        105.3580  255.8240  104.9150 C.2   192  VAL192      0.2260
    139  O        106.4680  255.9250  105.4340 O.2   192  VAL192     -0.2867
    140  CB       104.4670  258.1400  104.5930 C.3   192  VAL192      0.0252
    141  CG1      104.5190  257.9620  103.1090 C.3   192  VAL192      0.0019
    142  CG2      103.3630  259.0930  104.9490 C.3   192  VAL192      0.0019
    143  N        107.5850  254.8700   98.9250 N.3   195  MET195     -0.1245
    144  CA       106.6910  254.6550   97.7910 C.3   195  MET195      0.1570
    145  C        107.1790  254.7300   96.3690 C.2   195  MET195      0.2261
    146  O        106.3910  254.5250   95.4540 O.2   195  MET195     -0.2867
    147  CB       105.4990  255.6070   97.9210 C.3   195  MET195      0.0387
    148  CG       104.8390  255.5480   99.2820 C.3   195  MET195      0.0595
    149  SD       103.4050  256.5930   99.3890 S.3   195  MET195     -0.1393
    150  CE       104.1430  258.1190   99.7350 C.3   195  MET195      0.0692
    151  N        114.7010  257.2720   96.3600 N.3   201  TYR201     -0.1227
    152  CA       114.3600  258.5950   95.8700 C.3   201  TYR201      0.1736
    153  C        115.7400  259.1340   95.4750 C.2   201  TYR201      0.2595
    154  O        116.7630  258.7050   96.0310 O.2   201  TYR201     -0.2718
    155  CB       113.8080  259.4730   96.9900 C.3   201  TYR201      0.0548
    156  CG       112.5110  259.0040   97.6200 C.ar  201  TYR201     -0.0200
    157  CD1      111.3690  258.7940   96.8440 C.ar  201  TYR201     -0.0009
    158  CD2      112.4170  258.7920   98.9990 C.ar  201  TYR201     -0.0009
    159  CE1      110.1560  258.3770   97.4290 C.ar  201  TYR201      0.0417
    160  CE2      111.2150  258.3800   99.5930 C.ar  201  TYR201      0.0417
    161  CZ       110.0940  258.1730   98.8030 C.ar  201  TYR201      0.1957
    162  OH       108.9190  257.7420   99.3710 O.3   201  TYR201     -0.2866
    163  N        115.7940  260.0320   94.5030 N.am  202  GLN202     -0.1965
    164  CA       117.0770  260.6080   94.1360 C.3   202  GLN202      0.1733
    165  C        116.9170  262.1070   93.9580 C.2   202  GLN202      0.2616
    166  O        116.0980  262.5650   93.1730 O.2   202  GLN202     -0.2715
    167  CB       117.6490  259.9390   92.8820 C.3   202  GLN202      0.0408
    168  CG       116.8840  260.1110   91.6080 C.3   202  GLN202      0.0908
    169  CD       117.5270  259.3230   90.4710 C.2   202  GLN202      0.2608
    170  OE1      117.0730  258.2270   90.1190 O.2   202  GLN202     -0.2717
    171  NE2      118.6040  259.8670   89.9080 N.am  202  GLN202     -0.0878
    172  N        117.6820  262.8710   94.7250 N.am  203  TRP203     -0.1974
    173  CA       117.6000  264.3260   94.6780 C.3   203  TRP203      0.1640
    174  C        118.2290  264.8860   93.4270 C.2   203  TRP203      0.2290
    175  O        118.0920  266.0680   93.1460 O.2   203  TRP203     -0.2864
    176  CB       118.2880  264.9120   95.9000 C.3   203  TRP203      0.0576
    177  CG       117.8530  264.2200   97.1430 C.ar  203  TRP203      0.0006
    178  CD1      118.6450  263.5600   98.0350 C.ar  203  TRP203      0.0946
    179  CD2      116.5110  264.0790   97.6150 C.ar  203  TRP203      0.0152
    180  NE1      117.8810  263.0130   99.0360 N.ar  203  TRP203     -0.2442
    181  CE2      116.5660  263.3150   98.8060 C.ar  203  TRP203      0.0810
    182  CE3      115.2650  264.5260   97.1520 C.ar  203  TRP203      0.0012
    183  CZ2      115.4200  262.9860   99.5430 C.ar  203  TRP203      0.0191
    184  CZ3      114.1200  264.2010   97.8890 C.ar  203  TRP203      0.0001
    185  CH2      114.2090  263.4370   99.0710 C.ar  203  TRP203      0.0015
    186  N        110.2020  260.2820   91.7500 N.3   228  ASN228     -0.1225
    187  CA       110.1650  261.0720   92.9890 C.3   228  ASN228      0.1785
    188  C        108.8060  261.7570   93.1710 C.2   228  ASN228      0.2597
    189  O        108.5410  262.3640   94.2080 O.2   228  ASN228     -0.2718
    190  CB       111.2220  262.1900   92.9840 C.3   228  ASN228      0.1169
    191  CG       112.6460  261.6800   93.0580 C.2   228  ASN228      0.2627
    192  OD1      112.9230  260.5930   93.5760 O.2   228  ASN228     -0.2716
    193  ND2      113.5690  262.4870   92.5610 N.am  228  ASN228     -0.0877
    194  N        107.9520  261.6780   92.1580 N.am  229  MET229     -0.1965
    195  CA       106.6550  262.3420   92.2110 C.3   229  MET229      0.1736
    196  C        105.6030  261.4390   92.7860 C.2   229  MET229      0.2616
    197  O        105.0070  260.6310   92.0680 O.2   229  MET229     -0.2715
    198  CB       106.2900  262.8140   90.8110 C.3   229  MET229      0.0427
    199  CG       107.3070  263.8520   90.2980 C.3   229  MET229      0.0599
    200  SD       107.0920  264.3140   88.5670 S.3   229  MET229     -0.1393
    201  CE       108.6960  265.1010   88.2320 C.3   229  MET229      0.0692
    202  N        105.3720  261.6070   94.0870 N.am  230  MET230     -0.1977
    203  CA       104.4470  260.7670   94.8410 C.3   230  MET230      0.1605
    204  C        102.9910  261.1630   94.8420 C.2   230  MET230      0.2287
    205  O        102.1430  260.4200   95.3310 O.2   230  MET230     -0.2864
    206  CB       104.9650  260.6330   96.2730 C.3   230  MET230      0.0413
    207  CG       106.3610  259.9940   96.3300 C.3   230  MET230      0.0598
    208  SD       106.3610  258.2720   95.7430 S.3   230  MET230     -0.1393
    209  CE       106.8630  258.3860   94.0250 C.3   230  MET230      0.0692
    210  N         98.8230  266.3610   97.9630 N.3   233  PHE233     -0.1241
    211  CA        98.2490  266.4100   99.3010 C.3   233  PHE233      0.1605
    212  C         97.1460  267.4630   99.2100 C.2   233  PHE233      0.2264
    213  O         97.4200  268.6270   98.9350 O.2   233  PHE233     -0.2867
    214  CB        99.2840  266.8530  100.3150 C.3   233  PHE233      0.0534
    215  CG        98.7140  267.1030  101.6760 C.ar  233  PHE233     -0.0203
    216  CD1       98.4630  268.4040  102.1120 C.ar  233  PHE233     -0.0042
    217  CD2       98.4330  266.0360  102.5360 C.ar  233  PHE233     -0.0042
    218  CE1       97.9390  268.6470  103.3940 C.ar  233  PHE233     -0.0003
    219  CE2       97.9090  266.2620  103.8200 C.ar  233  PHE233     -0.0003
    220  CZ        97.6630  267.5700  104.2490 C.ar  233  PHE233     -0.0000
    221  N        108.0010  266.7990  108.3440 N.3   253  MET253     -0.1245
    222  CA       108.3840  265.4540  107.9700 C.3   253  MET253      0.1570
    223  C        109.5470  264.9560  108.7980 C.2   253  MET253      0.2261
    224  O        110.5480  265.6490  108.9590 O.2   253  MET253     -0.2867
    225  CB       108.7860  265.3950  106.5020 C.3   253  MET253      0.0387
    226  CG       109.2030  264.0000  106.0800 C.3   253  MET253      0.0595
    227  SD       109.8520  263.9350  104.4230 S.3   253  MET253     -0.1393
    228  CE       111.4050  264.6830  104.6610 C.3   253  MET253      0.0692
    229  N        113.4470  271.6830   93.3240 N.3   275  ALA275     -0.1245
    230  CA       114.0310  270.6370   92.4670 C.3   275  ALA275      0.1562
    231  C        114.6890  271.1520   91.1770 C.2   275  ALA275      0.2260
    232  O        114.2540  270.8580   90.0740 O.2   275  ALA275     -0.2867
    233  CB       112.9550  269.5850   92.1360 C.3   275  ALA275      0.0290
@<TRIPOS>BOND
     1   201   200    1
     2   200   199    1
     3   171   169   am
     4   232   231    2
     5   170   169    2
     6   199   198    1
     7   169   168    1
     8   198   195    1
     9   231   230    1
    10   168   167    1
    11   186   187    1
    12   197   196    2
    13   233   230    1
    14   194   195    1
    15   194   188   am
    16   195   196    1
    17   230   229    1
    18   193   191   am
    19   196   202   am
    20   167   164    1
    21   190   187    1
    22   190   191    1
    23   187   188    1
    24   191   192    2
    25   175   174    2
    26   188   189    2
    27   166   165    2
    28   174   173    1
    29   165   164    1
    30   165   172   am
    31   209   208    1
    32   202   203    1
    33   164   163    1
    34    30    28   ar
    35   163   153   am
    36   173   172    1
    37   173   176    1
    38   203   204    1
    39   203   206    1
    40   204   205    2
    41    28    27    1
    42    28    29   ar
    43   146   145    2
    44   153   152    1
    45   153   154    2
    46   208   207    1
    47    27    24    1
    48   152   151    1
    49   152   155    1
    50    44    43    1
    51    18    17    2
    52   176   177    1
    53   206   207    1
    54   145   144    1
    55    15    16    1
    56     3     4    2
    57     3     2    1
    58    45    43    1
    59    17    16    1
    60    17    23   am
    61   157   159   ar
    62   157   156   ar
    63    43    40    1
    64    24    23    1
    65    24    25    1
    66   155   156    1
    67   177   179   ar
    68   177   178   ar
    69   182   179   ar
    70   182   184   ar
    71     1     2    1
    72     2     5    1
    73    16    19    1
    74   159   161   ar
    75   179   181   ar
    76   156   158   ar
    77    19    20    1
    78    19    21    1
    79   144   147    1
    80   144   143    1
    81   103   102    1
    82    42    41    2
    83   184   185   ar
    84   147   148    1
    85   210   211    1
    86   178   180   ar
    87   114   113   ar
    88   114   112   ar
    89    25    26    2
    90    25    31   am
    91    40    41    1
    92    40    39    1
    93   113   111   ar
    94    20    22    1
    95   107   106    2
    96   106   105    1
    97     7     6   ar
    98     7     9   ar
    99    39    33   am
   100     5     6    1
   101   161   162    1
   102   161   160   ar
   103   181   180   ar
   104   181   183   ar
   105    31    32    1
   106   112   110   ar
   107   213   212    2
   108     6     8   ar
   109   102   101    1
   110     9    10   ar
   111   158   160   ar
   112   111   109   ar
   113   185   183   ar
   114   212   211    1
   115   148   149    1
   116   211   214    1
   117   149   150    1
   118    10     8   ar
   119    10    12   ar
   120     8    11   ar
   121   110   109   ar
   122   109   108    1
   123   101   100    1
   124    33    32    1
   125    33    34    2
   126   105   108    1
   127   105   104    1
   128    32    35    1
   129    12    14   ar
   130    99    98    2
   131    11    13   ar
   132   214   215    1
   133    36    35    1
   134    36    38    1
   135   100    97    1
   136   104    98   am
   137   121   115    1
   138   121   120    1
   139    98    97    1
   140    14    13   ar
   141    35    37    1
   142   115   116    1
   143    97    96    1
   144   215   216   ar
   145   215   217   ar
   146   120   119    1
   147    55    56   ar
   148    55    53   ar
   149   216   218   ar
   150    56    54   ar
   151   118   117    2
   152    96    86   am
   153   217   219   ar
   154    46    47    1
   155   116   117    1
   156   116   119    1
   157    53    51   ar
   158    54    52   ar
   159   141   140    1
   160    49    48    2
   161   218   220   ar
   162    86    87    2
   163    86    85    1
   164    51    52   ar
   165    51    50    1
   166   219   220   ar
   167    47    48    1
   168    47    50    1
   169    72    70   ar
   170    72    71   ar
   171   227   228    1
   172   227   226    1
   173    85    84    1
   174    85    88    1
   175    70    68   ar
   176   140   142    1
   177   140   137    1
   178    71    69   ar
   179   138   137    1
   180   138   139    2
   181   137   136    1
   182    88    89    1
   183    68    67   ar
   184    69    67   ar
   185    61    58    1
   186   226   225    1
   187    90    89   ar
   188    90    92   ar
   189    67    66    1
   190    81    83   ar
   191    81    79   ar
   192   122   123    1
   193    89    91   ar
   194   225   222    1
   195    57    58    1
   196    83    82   ar
   197    58    59    1
   198    92    94   ar
   199    79    78   ar
   200    66    63    1
   201   125   124    2
   202    91    93   ar
   203   123   124    1
   204   123   126    1
   205    82    80   ar
   206    60    59    2
   207   222   221    1
   208   222   223    1
   209   135   133    1
   210   128   126    1
   211   126   127    1
   212    94    93   ar
   213    94    95    1
   214    78    80   ar
   215    78    77    1
   216    63    62    1
   217    63    64    1
   218   223   224    2
   219   133   134    1
   220   133   130    1
   221    77    74    1
   222   132   131    2
   223    64    65    2
   224   131   130    1
   225   130   129    1
   226    74    73    1
   227    74    75    1
   228    75    76    2
