@<TRIPOS>MOLECULE
tmp/3vbgB00.pdb
 82 76 0 0 0
SMALL
GASTEIGER

@<TRIPOS>ATOM
      1  N          6.8730  -27.0280    0.9380 N.3    30  LEU30      -0.1245
      2  CA         7.9150  -26.3810    0.1660 C.3    30  LEU30       0.1561
      3  C          7.2300  -25.6170   -1.0370 C.2    30  LEU30       0.2260
      4  O          7.6710  -24.5060   -1.4130 O.2    30  LEU30      -0.2867
      5  CB         8.9340  -27.3130   -0.3260 C.3    30  LEU30       0.0270
      6  CG         9.7270  -28.4150    0.3150 C.3    30  LEU30       0.0019
      7  CD1        9.9600  -29.5910   -0.6780 C.3    30  LEU30       0.0001
      8  CD2       11.0800  -27.8950    0.7760 C.3    30  LEU30       0.0001
      9  N          6.0120  -22.2210    0.9180 N.3    33  LEU33      -0.1231
     10  CA         7.2830  -21.5720    1.2440 C.3    33  LEU33       0.1693
     11  C          7.8500  -20.9100   -0.0220 C.2    33  LEU33       0.2592
     12  O          8.0580  -19.6890   -0.0450 O.2    33  LEU33      -0.2718
     13  CB         8.2920  -22.5870    1.8210 C.3    33  LEU33       0.0284
     14  CG         7.7460  -23.3740    3.0490 C.3    33  LEU33       0.0019
     15  CD1        8.8260  -24.2120    3.7550 C.3    33  LEU33       0.0001
     16  CD2        7.0040  -22.4250    4.0250 C.3    33  LEU33       0.0001
     17  N          8.0290  -21.7340   -1.0690 N.am   34  GLY34      -0.1957
     18  CA         8.4680  -21.3140   -2.3950 C.3    34  GLY34       0.1869
     19  C          7.7760  -20.0400   -2.7840 C.2    34  GLY34       0.2309
     20  O          8.4340  -18.9920   -3.0080 O.2    34  GLY34      -0.2863
     21  N          8.6010  -16.8070    0.0230 N.3    37  ILE37      -0.1231
     22  CA         9.9300  -16.3960   -0.4100 C.3    37  ILE37       0.1692
     23  C          9.9450  -15.6640   -1.7800 C.2    37  ILE37       0.2591
     24  O         10.7010  -14.7070   -1.9530 O.2    37  ILE37      -0.2718
     25  CB        10.7650  -17.6610   -0.5530 C.3    37  ILE37       0.0266
     26  CG1       10.7820  -18.4910    0.7430 C.3    37  ILE37       0.0019
     27  CG2       12.1650  -17.3500   -0.9650 C.3    37  ILE37       0.0020
     28  CD1       12.1600  -19.1220    0.9380 C.3    37  ILE37       0.0001
     29  N          9.1160  -16.0740   -2.7550 N.am   38  MET38      -0.1979
     30  CA         9.1310  -15.3560   -4.0130 C.3    38  MET38       0.1605
     31  C          8.4420  -14.0110   -3.9740 C.2    38  MET38       0.2287
     32  O          9.0760  -12.9930   -4.1270 O.2    38  MET38      -0.2864
     33  CB         8.4850  -16.1240   -5.1290 C.3    38  MET38       0.0413
     34  CG         8.6820  -15.3700   -6.4090 C.3    38  MET38       0.0598
     35  SD         8.7290  -16.4630   -7.8140 S.3    38  MET38      -0.1393
     36  CE         8.3180  -15.2140   -9.0640 C.3    38  MET38       0.0692
     37  N         21.3910  -16.4630   -5.2010 N.3    48  GLN48      -0.1245
     38  CA        19.9870  -16.8690   -5.4360 C.3    48  GLN48       0.1566
     39  C         19.4920  -18.0020   -4.5620 C.2    48  GLN48       0.2260
     40  O         18.2780  -18.0790   -4.2830 O.2    48  GLN48      -0.2867
     41  CB        19.7620  -17.2540   -6.8990 C.3    48  GLN48       0.0367
     42  CG        18.4520  -16.7520   -7.5160 C.3    48  GLN48       0.0905
     43  CD        18.5550  -15.3960   -8.2020 C.2    48  GLN48       0.2608
     44  OE1       17.5860  -14.9110   -8.8160 O.2    48  GLN48      -0.2717
     45  NE2       19.7110  -14.7700   -8.0700 N.am   48  GLN48      -0.0878
     46  N         11.5530  -19.9550   11.6430 N.3    62  PHE62      -0.1241
     47  CA        12.5990  -20.9200   11.4500 C.3    62  PHE62       0.1605
     48  C         13.5810  -20.6870   12.5250 C.2    62  PHE62       0.2264
     49  O         14.5180  -21.4700   12.6900 O.2    62  PHE62      -0.2867
     50  CB        13.3290  -20.6700   10.1550 C.3    62  PHE62       0.0534
     51  CG        12.8650  -21.5370    9.0200 C.ar   62  PHE62      -0.0203
     52  CD1       11.5400  -21.9890    8.9420 C.ar   62  PHE62      -0.0042
     53  CD2       13.7360  -21.8570    7.9780 C.ar   62  PHE62      -0.0042
     54  CE1       11.1110  -22.7480    7.8600 C.ar   62  PHE62      -0.0003
     55  CE2       13.3140  -22.6190    6.8790 C.ar   62  PHE62      -0.0003
     56  CZ        12.0080  -23.0640    6.8070 C.ar   62  PHE62      -0.0000
     57  N         19.3200  -18.4180    5.3140 N.3    67  PHE67      -0.1241
     58  CA        19.5910  -19.8330    5.1020 C.3    67  PHE67       0.1605
     59  C         19.6850  -20.2860    3.6570 C.2    67  PHE67       0.2264
     60  O         19.1130  -19.6420    2.7810 O.2    67  PHE67      -0.2867
     61  CB        18.5050  -20.6260    5.7560 C.3    67  PHE67       0.0534
     62  CG        17.2720  -20.8110    4.9120 C.ar   67  PHE67      -0.0203
     63  CD1       17.1920  -21.8190    3.9510 C.ar   67  PHE67      -0.0042
     64  CD2       16.1580  -20.0550    5.1620 C.ar   67  PHE67      -0.0042
     65  CE1       16.0180  -22.0100    3.2290 C.ar   67  PHE67      -0.0003
     66  CE2       14.9820  -20.2320    4.4450 C.ar   67  PHE67      -0.0003
     67  CZ        14.8980  -21.2090    3.4760 C.ar   67  PHE67      -0.0000
     68  N         19.2080  -22.7720    0.3930 N.3    69  VAL69      -0.1245
     69  CA        18.3400  -23.8290   -0.1320 C.3    69  VAL69       0.1561
     70  C         19.1430  -25.0320   -0.5640 C.2    69  VAL69       0.2260
     71  O         18.5740  -26.1100   -0.6700 O.2    69  VAL69      -0.2867
     72  CB        17.3940  -23.3810   -1.2280 C.3    69  VAL69       0.0252
     73  CG1       16.3650  -22.3970   -0.6870 C.3    69  VAL69       0.0019
     74  CG2       18.1990  -22.8540   -2.4080 C.3    69  VAL69       0.0019
     75  N         17.5740  -28.0290    5.5650 N.3    75  ILE75      -0.1245
     76  CA        16.2540  -27.3900    5.5640 C.3    75  ILE75       0.1561
     77  C         15.2100  -28.2710    6.2500 C.2    75  ILE75       0.2260
     78  O         14.1660  -27.8020    6.6870 O.2    75  ILE75      -0.2867
     79  CB        15.7250  -27.0450    4.1590 C.3    75  ILE75       0.0252
     80  CG1       16.8150  -26.4510    3.2550 C.3    75  ILE75       0.0019
     81  CG2       14.5220  -26.1160    4.2920 C.3    75  ILE75       0.0019
     82  CD1       16.4500  -26.4290    1.7680 C.3    75  ILE75       0.0001
@<TRIPOS>BOND
     1    36    35    1
     2    44    43    2
     3    43    45   am
     4    43    42    1
     5    35    34    1
     6    42    41    1
     7    41    38    1
     8    34    33    1
     9    38    37    1
    10    38    39    1
    11    33    30    1
    12    39    40    2
    13    32    31    2
    14    30    31    1
    15    30    29    1
    16    20    19    2
    17    19    18    1
    18    29    23   am
    19    74    72    1
    20    18    17    1
    21    24    23    2
    22    23    22    1
    23     4     3    2
    24    72    73    1
    25    72    69    1
    26    17    11   am
    27     3     2    1
    28    27    25    1
    29     7     6    1
    30    71    70    2
    31    70    69    1
    32    25    22    1
    33    25    26    1
    34    22    21    1
    35     5     2    1
    36     5     6    1
    37    69    68    1
    38    12    11    2
    39    11    10    1
    40     2     1    1
    41     6     8    1
    42    26    28    1
    43     9    10    1
    44    10    13    1
    45    82    80    1
    46    13    14    1
    47    60    59    2
    48    14    15    1
    49    14    16    1
    50    65    67   ar
    51    65    63   ar
    52    80    79    1
    53    67    66   ar
    54    59    58    1
    55    63    62   ar
    56    79    81    1
    57    79    76    1
    58    66    64   ar
    59    62    64   ar
    60    62    61    1
    61    58    57    1
    62    58    61    1
    63    76    75    1
    64    76    77    1
    65    77    78    2
    66    56    55   ar
    67    56    54   ar
    68    55    53   ar
    69    54    52   ar
    70    53    51   ar
    71    52    51   ar
    72    51    50    1
    73    50    47    1
    74    47    46    1
    75    47    48    1
    76    48    49    2
