@<TRIPOS>MOLECULE
tmp/3vbiA01.pdb
 92 88 0 0 0
SMALL
GASTEIGER

@<TRIPOS>ATOM
      1  N        -48.8940  -10.7420   23.1640 N.3     1  MET1       -0.1230
      2  CA       -47.9190  -11.5130   24.0090 C.3     1  MET1        0.1702
      3  C        -46.8500  -10.6270   24.6820 C.2     1  MET1        0.2592
      4  O        -47.0850   -9.4550   25.0080 O.2     1  MET1       -0.2718
      5  CB       -47.2510  -12.6070   23.1490 C.3     1  MET1        0.0401
      6  CG       -47.7090  -14.0510   23.4180 C.3     1  MET1        0.0596
      7  SD       -46.3380  -15.2160   23.7420 S.3     1  MET1       -0.1393
      8  CE       -47.1760  -16.5400   24.6530 C.3     1  MET1        0.0692
      9  N        -45.6730  -11.2150   24.9100 N.am    2  ASN2       -0.1960
     10  CA       -44.4500  -10.4660   25.2050 C.3     2  ASN2        0.1819
     11  C        -43.2420  -11.3310   24.8800 C.2     2  ASN2        0.2622
     12  O        -43.3510  -12.5470   24.7520 O.2     2  ASN2       -0.2715
     13  CB       -44.3910   -9.8850   26.6250 C.3     2  ASN2        0.1195
     14  CG       -44.2000  -10.9450   27.7030 C.2     2  ASN2        0.2630
     15  OD1      -43.2760  -11.7660   27.6520 O.2     2  ASN2       -0.2716
     16  ND2      -45.0570  -10.8970   28.7190 N.am    2  ASN2       -0.0877
     17  N        -42.0790  -10.7120   24.7430 N.am    3  SER3       -0.1936
     18  CA       -40.9620  -11.4550   24.1850 C.3     3  SER3        0.2055
     19  C        -39.8660  -11.6470   25.2280 C.2     3  SER3        0.2643
     20  O        -38.7660  -12.0460   24.8750 O.2     3  SER3       -0.2714
     21  CB       -40.4210  -10.7040   22.9610 C.3     3  SER3        0.2130
     22  OG       -40.1710   -9.3380   23.3000 O.3     3  SER3       -0.2179
     23  N        -40.1420  -11.3700   26.5010 N.am    4  PHE4       -0.1973
     24  CA       -39.0720  -11.3600   27.5090 C.3     4  PHE4        0.1639
     25  C        -38.5610  -12.7140   27.9760 C.2     4  PHE4        0.2290
     26  O        -39.3380  -13.6640   28.0810 O.2     4  PHE4       -0.2864
     27  CB       -39.4640  -10.5010   28.7100 C.3     4  PHE4        0.0560
     28  CG       -39.9410   -9.1330   28.3140 C.ar    4  PHE4       -0.0200
     29  CD1      -39.1180   -8.2880   27.5720 C.ar    4  PHE4       -0.0042
     30  CD2      -41.2060   -8.6910   28.6760 C.ar    4  PHE4       -0.0042
     31  CE1      -39.5500   -7.0150   27.2000 C.ar    4  PHE4       -0.0003
     32  CE2      -41.6430   -7.4260   28.3140 C.ar    4  PHE4       -0.0003
     33  CZ       -40.8120   -6.5840   27.5870 C.ar    4  PHE4       -0.0000
     34  N        -36.2340   -2.4090   31.3520 N.3    43  ARG43      -0.1245
     35  CA       -36.8310   -3.0810   30.2120 C.3    43  ARG43       0.1563
     36  C        -36.0480   -2.6960   28.9580 C.2    43  ARG43       0.2260
     37  O        -35.7490   -1.5080   28.7430 O.2    43  ARG43      -0.2867
     38  CB       -38.3060   -2.7310   30.0970 C.3    43  ARG43       0.0307
     39  CG       -38.8730   -3.2040   28.7930 C.3    43  ARG43       0.0489
     40  CD       -40.3800   -3.0080   28.7780 C.3    43  ARG43       0.2205
     41  NE       -40.8280   -2.8020   27.4070 N.pl3  43  ARG43      -0.0865
     42  CZ       -42.0270   -2.3300   27.0830 C.cat  43  ARG43       0.5346
     43  NH1      -42.3170   -2.1180   25.8090 N.pl3  43  ARG43       0.1354
     44  NH2      -42.9270   -2.0520   28.0200 N.pl3  43  ARG43       0.1354
     45  N        -36.1070   -3.7350   24.8190 N.3    45  ASP45      -0.1225
     46  CA       -37.1300   -4.2050   23.8710 C.3    45  ASP45       0.1805
     47  C        -36.5930   -4.9030   22.6450 C.2    45  ASP45       0.2597
     48  O        -35.3780   -5.0800   22.5090 O.2    45  ASP45      -0.2718
     49  CB       -38.0530   -3.0440   23.4910 C.3    45  ASP45       0.1424
     50  CG       -39.0360   -2.7280   24.5960 C.2    45  ASP45       0.3668
     51  OD1      -39.1080   -3.5020   25.5860 O.co2  45  ASP45      -0.2456
     52  OD2      -39.7360   -1.7010   24.4720 O.co2  45  ASP45      -0.2456
     53  N        -37.4910   -5.3300   21.7460 N.am   46  ASP46      -0.1974
     54  CA       -37.0490   -6.0820   20.5800 C.3    46  ASP46       0.1709
     55  C        -36.0300   -5.3120   19.7540 C.2    46  ASP46       0.2293
     56  O        -36.1050   -4.0890   19.6260 O.2    46  ASP46      -0.2864
     57  CB       -38.2230   -6.3830   19.6260 C.3    46  ASP46       0.1436
     58  CG       -39.2650   -7.3130   20.2280 C.2    46  ASP46       0.3671
     59  OD1      -39.0030   -7.9090   21.3040 O.co2  46  ASP46      -0.2456
     60  OD2      -40.3690   -7.3880   19.6280 O.co2  46  ASP46      -0.2456
     61  N        -35.9390    2.3410   30.7260 N.3    61  HIS61      -0.1241
     62  CA       -36.3920    1.6860   29.5340 C.3    61  HIS61       0.1621
     63  C        -35.4280    2.0050   28.3910 C.2    61  HIS61       0.2264
     64  O        -35.1320    3.1730   28.1260 O.2    61  HIS61      -0.2867
     65  CB       -37.7760    2.2190   29.2390 C.3    61  HIS61       0.0745
     66  CG       -38.4450    1.6170   28.0400 C.ar   61  HIS61       0.0817
     67  ND1      -39.4510    2.2860   27.3740 N.ar   61  HIS61      -0.2268
     68  CD2      -38.2910    0.4330   27.4010 C.ar   61  HIS61       0.1154
     69  CE1      -39.8940    1.5470   26.3770 C.ar   61  HIS61       0.1986
     70  NE2      -39.2030    0.4180   26.3710 N.ar   61  HIS61      -0.2212
     71  N        -35.8440    1.4470   24.6480 N.3    63  ALA63      -0.1231
     72  CA       -36.9580    1.0750   23.7710 C.3    63  ALA63       0.1694
     73  C        -36.4290    0.3850   22.5120 C.2    63  ALA63       0.2591
     74  O        -35.2270    0.3250   22.2850 O.2    63  ALA63      -0.2718
     75  CB       -37.7390    2.3250   23.4270 C.3    63  ALA63       0.0304
     76  N        -37.3230   -0.1500   21.6820 N.am   64  ALA64      -0.1980
     77  CA       -36.9340   -1.0380   20.5870 C.3    64  ALA64       0.1597
     78  C        -35.9840   -0.3990   19.5800 C.2    64  ALA64       0.2287
     79  O        -36.0570    0.8170   19.3320 O.2    64  ALA64      -0.2864
     80  CB       -38.2170   -1.4660   19.8610 C.3    64  ALA64       0.0319
     81  N        -35.3280    6.3570   24.0390 N.3    84  SER84      -0.1202
     82  CA       -36.4650    6.0410   23.1630 C.3    84  SER84       0.2020
     83  C        -35.9840    5.2420   21.9460 C.2    84  SER84       0.2619
     84  O        -34.7850    4.9830   21.7460 O.2    84  SER84      -0.2717
     85  CB       -37.1640    7.3350   22.7370 C.3    84  SER84       0.2103
     86  OG       -37.6600    8.0890   23.8490 O.3    84  SER84      -0.2182
     87  N        -36.9590    4.8110   21.1560 N.am   85  SER85      -0.1951
     88  CA       -36.7780    3.8510   20.0840 C.3    85  SER85       0.1924
     89  C        -35.8070    4.3300   19.0010 C.2    85  SER85       0.2314
     90  O        -35.7770    5.5260   18.6800 O.2    85  SER85      -0.2863
     91  CB       -38.1430    3.6430   19.4290 C.3    85  SER85       0.2116
     92  OG       -38.9200    2.7850   20.2350 O.3    85  SER85      -0.2180
@<TRIPOS>BOND
     1    90    89    2
     2    89    88    1
     3    79    78    2
     4    91    88    1
     5    91    92    1
     6    78    77    1
     7    57    58    1
     8    57    54    1
     9    56    55    2
    10    60    58   ar
    11    55    54    1
    12    80    77    1
    13    88    87    1
    14    58    59   ar
    15    54    53    1
    16    77    76    1
    17    87    83   am
    18    76    73   am
    19    84    83    2
    20    53    47   am
    21    83    82    1
    22    74    73    2
    23    48    47    2
    24    73    72    1
    25    47    46    1
    26    85    82    1
    27    85    86    1
    28    21    22    1
    29    21    18    1
    30     5     6    1
    31     5     2    1
    32    82    81    1
    33     1     2    1
    34     6     7    1
    35    75    72    1
    36    49    46    1
    37    49    50    1
    38     7     8    1
    39    72    71    1
    40    46    45    1
    41     2     3    1
    42    18    17    1
    43    18    19    1
    44    52    50   ar
    45    50    51   ar
    46     3     9   am
    47     3     4    2
    48    17    11   am
    49    12    11    2
    50    20    19    2
    51    11    10    1
    52     9    10    1
    53    10    13    1
    54    19    23   am
    55    43    42    1
    56    70    69   ar
    57    70    68   ar
    58    69    67   ar
    59    23    24    1
    60    13    14    1
    61    42    41    2
    62    42    44    1
    63    31    29   ar
    64    31    33   ar
    65    67    66   ar
    66    68    66   ar
    67    41    40    1
    68    24    25    1
    69    24    27    1
    70    29    28   ar
    71    33    32   ar
    72    15    14    2
    73    14    16   am
    74    25    26    2
    75    66    65    1
    76    64    63    2
    77    28    30   ar
    78    28    27    1
    79    32    30   ar
    80    63    62    1
    81    37    36    2
    82    40    39    1
    83    39    38    1
    84    36    35    1
    85    65    62    1
    86    62    61    1
    87    38    35    1
    88    35    34    1
