@<TRIPOS>MOLECULE
tmp/3vbiA03.pdb
 89 85 0 0 0
SMALL
GASTEIGER

@<TRIPOS>ATOM
      1  N        -23.9870   -8.8830   23.2780 N.3    31  TYR31      -0.1241
      2  CA       -22.6500   -9.3940   23.0310 C.3    31  TYR31       0.1605
      3  C        -21.7250   -8.9550   24.1580 C.2    31  TYR31       0.2264
      4  O        -21.7590   -7.7810   24.5500 O.2    31  TYR31      -0.2867
      5  CB       -22.1230   -8.8790   21.6910 C.3    31  TYR31       0.0534
      6  CG       -23.0480   -9.2810   20.5590 C.ar   31  TYR31      -0.0201
      7  CD1      -23.2530  -10.6280   20.2580 C.ar   31  TYR31      -0.0009
      8  CD2      -23.7430   -8.3290   19.8220 C.ar   31  TYR31      -0.0009
      9  CE1      -24.1200  -11.0050   19.2490 C.ar   31  TYR31       0.0417
     10  CE2      -24.6230   -8.6930   18.7970 C.ar   31  TYR31       0.0417
     11  CZ       -24.8090  -10.0380   18.5290 C.ar   31  TYR31       0.1957
     12  OH       -25.6700  -10.4870   17.5570 O.3    31  TYR31      -0.2866
     13  N        -29.6530   -3.6960   20.4790 N.3    49  ILE49      -0.1245
     14  CA       -28.3590   -4.3520   20.5390 C.3    49  ILE49       0.1561
     15  C        -27.6540   -3.7330   21.7500 C.2    49  ILE49       0.2260
     16  O        -27.4900   -2.5120   21.7790 O.2    49  ILE49      -0.2867
     17  CB       -27.5340   -4.1130   19.2530 C.3    49  ILE49       0.0252
     18  CG1      -28.1830   -4.8570   18.0790 C.3    49  ILE49       0.0019
     19  CG2      -26.0820   -4.5290   19.3890 C.3    49  ILE49       0.0019
     20  CD1      -27.5010   -4.5810   16.7220 C.3    49  ILE49       0.0001
     21  N        -23.7330   -4.0960   23.1330 N.3    51  SER51      -0.1217
     22  CA       -22.4810   -4.7610   22.7690 C.3    51  SER51       0.1889
     23  C        -21.3280   -4.1580   23.5410 C.2    51  SER51       0.2288
     24  O        -21.0750   -2.9550   23.4160 O.2    51  SER51      -0.2866
     25  CB       -22.2210   -4.5910   21.2830 C.3    51  SER51       0.2089
     26  OG       -20.9780   -5.1470   20.8690 O.3    51  SER51      -0.2183
     27  N        -23.3360    0.8480   21.7080 N.3    69  TYR69      -0.1241
     28  CA       -22.0640    0.2180   21.2980 C.3    69  TYR69       0.1605
     29  C        -21.0740    0.6800   22.3600 C.2    69  TYR69       0.2264
     30  O        -20.5910    1.8250   22.2620 O.2    69  TYR69      -0.2867
     31  CB       -21.6300    0.6960   19.9040 C.3    69  TYR69       0.0534
     32  CG       -22.5310    0.2740   18.7410 C.ar   69  TYR69      -0.0201
     33  CD1      -22.4220   -0.9790   18.1640 C.ar   69  TYR69      -0.0009
     34  CD2      -23.5040    1.1370   18.2180 C.ar   69  TYR69      -0.0009
     35  CE1      -23.2320   -1.3760   17.0840 C.ar   69  TYR69       0.0417
     36  CE2      -24.3320    0.7540   17.1100 C.ar   69  TYR69       0.0417
     37  CZ       -24.1880   -0.5050   16.5510 C.ar   69  TYR69       0.1957
     38  OH       -24.9630   -0.9090   15.4640 O.3    69  TYR69      -0.2866
     39  N        -22.8340    5.6000   20.7510 N.3    90  TYR90      -0.1241
     40  CA       -21.5420    5.0170   20.4150 C.3    90  TYR90       0.1605
     41  C        -20.5630    5.4510   21.5000 C.2    90  TYR90       0.2264
     42  O        -20.5000    6.6410   21.7860 O.2    90  TYR90      -0.2867
     43  CB       -21.0280    5.6800   19.1380 C.3    90  TYR90       0.0534
     44  CG       -21.7470    5.3070   17.8490 C.ar   90  TYR90      -0.0201
     45  CD1      -21.5710    4.0420   17.3020 C.ar   90  TYR90      -0.0009
     46  CD2      -22.5460    6.2340   17.1720 C.ar   90  TYR90      -0.0009
     47  CE1      -22.1840    3.6760   16.0940 C.ar   90  TYR90       0.0417
     48  CE2      -23.1870    5.8740   15.9830 C.ar   90  TYR90       0.0417
     49  CZ       -22.9750    4.6100   15.4340 C.ar   90  TYR90       0.1957
     50  OH       -23.5700    4.2710   14.2400 O.3    90  TYR90      -0.2866
     51  N        -17.3830    4.4760   20.7490 N.3    92  ALA92      -0.1231
     52  CA       -16.2310    4.6710   19.8680 C.3    92  ALA92       0.1694
     53  C        -16.7860    5.0020   18.4800 C.2    92  ALA92       0.2592
     54  O        -17.8460    4.4700   18.0880 O.2    92  ALA92      -0.2718
     55  CB       -15.4060    3.3920   19.8030 C.3    92  ALA92       0.0304
     56  N        -16.0980    5.8830   17.7550 N.am   93  ILE93      -0.1966
     57  CA       -16.3810    6.0330   16.3320 C.3    93  ILE93       0.1727
     58  C        -15.1360    6.1860   15.4640 C.2    93  ILE93       0.2616
     59  O        -14.0630    6.6220   15.9200 O.2    93  ILE93      -0.2715
     60  CB       -17.3150    7.2160   15.9690 C.3    93  ILE93       0.0290
     61  CG1      -16.7240    8.5490   16.4340 C.3    93  ILE93       0.0022
     62  CG2      -18.7280    6.9650   16.4390 C.3    93  ILE93       0.0023
     63  CD1      -17.3490    9.7250   15.6440 C.3    93  ILE93       0.0001
     64  N        -15.2990    5.7840   14.2060 N.am   94  ASP94      -0.1971
     65  CA       -14.2220    6.0140   13.2420 C.3    94  ASP94       0.1709
     66  C        -14.0260    7.4840   12.8750 C.2    94  ASP94       0.2293
     67  O        -14.9150    8.3280   13.0470 O.2    94  ASP94      -0.2864
     68  CB       -14.4130    5.1340   12.0040 C.3    94  ASP94       0.1436
     69  CG       -13.9410    3.7190   12.2460 C.2    94  ASP94       0.3671
     70  OD1      -12.7160    3.5290   12.1540 O.co2  94  ASP94      -0.2456
     71  OD2      -14.7640    2.8190   12.5330 O.co2  94  ASP94      -0.2456
     72  N        -13.4460    1.2420   10.0840 N.3   103  GLY103     -0.1210
     73  CA       -14.3400    0.1130   10.2880 C.3   103  GLY103      0.1940
     74  C        -13.6770   -1.1740   10.7350 C.2   103  GLY103      0.2453
     75  O        -12.4600   -1.3090   10.6830 O.2   103  GLY103     -0.2732
     76  N        -14.4820   -2.1480   11.1590 N.am  104  PRO104     -0.2728
     77  CA       -14.0160   -3.4140   11.7300 C.3   104  PRO104      0.1401
     78  C        -13.2300   -4.2950   10.7260 C.2   104  PRO104      0.2269
     79  O        -12.5360   -5.2260   11.1440 O.2   104  PRO104     -0.2865
     80  CB       -15.3180   -4.1030   12.1540 C.3   104  PRO104      0.0296
     81  CG       -16.3700   -3.4950   11.2990 C.3   104  PRO104      0.0237
     82  CD       -15.9490   -2.0690   11.0870 C.3   104  PRO104      0.0939
     83  N         -9.6570    5.6050   15.5810 N.3   113  VAL113     -0.1245
     84  CA       -10.8890    5.5240   16.3310 C.3   113  VAL113      0.1561
     85  C        -10.9470    6.5300   17.4720 C.2   113  VAL113      0.2260
     86  O        -10.0030    6.6590   18.2500 O.2   113  VAL113     -0.2867
     87  CB       -11.1850    4.0890   16.7960 C.3   113  VAL113      0.0252
     88  CG1      -12.5200    4.0380   17.5260 C.3   113  VAL113      0.0019
     89  CG2      -11.2060    3.1460   15.6030 C.3   113  VAL113      0.0019
@<TRIPOS>BOND
     1    72    73    1
     2    73    74    1
     3    75    74    2
     4    78    79    2
     5    78    77    1
     6    74    76   am
     7    82    76    1
     8    82    81    1
     9    76    77    1
    10    81    80    1
    11    77    80    1
    12    68    69    1
    13    68    65    1
    14    70    69   ar
    15    69    71   ar
    16    66    67    2
    17    66    65    1
    18    65    64    1
    19    64    58   am
    20    50    49    1
    21    49    48   ar
    22    49    47   ar
    23    58    59    2
    24    58    57    1
    25    38    37    1
    26    83    84    1
    27    89    87    1
    28    63    61    1
    29    60    57    1
    30    60    61    1
    31    60    62    1
    32    48    46   ar
    33    47    45   ar
    34    84    87    1
    35    84    85    1
    36    57    56    1
    37    37    35   ar
    38    37    36   ar
    39    20    18    1
    40    87    88    1
    41    35    33   ar
    42    36    34   ar
    43    46    44   ar
    44    45    44   ar
    45    85    86    2
    46    12    11    1
    47    56    53   am
    48    44    43    1
    49    18    17    1
    50    54    53    2
    51    33    32   ar
    52    34    32   ar
    53    53    52    1
    54    11    10   ar
    55    11     9   ar
    56    32    31    1
    57    10     8   ar
    58    43    40    1
    59     9     7   ar
    60    17    19    1
    61    17    14    1
    62    55    52    1
    63     8     6   ar
    64    52    51    1
    65    31    28    1
    66     7     6   ar
    67    40    39    1
    68    40    41    1
    69    13    14    1
    70    14    15    1
    71     6     5    1
    72    26    25    1
    73    25    22    1
    74    28    27    1
    75    28    29    1
    76    41    42    2
    77     5     2    1
    78    15    16    2
    79    30    29    2
    80    22    21    1
    81    22    23    1
    82     2     1    1
    83     2     3    1
    84    24    23    2
    85     3     4    2
