@<TRIPOS>MOLECULE
tmp/3vbjC01.pdb
 113 109 0 0 0
SMALL
GASTEIGER

@<TRIPOS>ATOM
      1  N          2.8460  -31.9320    1.6670 N.3    90  TYR90      -0.1241
      2  CA         2.3860  -32.9970    2.5430 C.3    90  TYR90       0.1605
      3  C          2.4550  -32.5640    4.0110 C.2    90  TYR90       0.2264
      4  O          3.5000  -32.1250    4.4750 O.2    90  TYR90      -0.2867
      5  CB         3.3180  -34.2060    2.4180 C.3    90  TYR90       0.0534
      6  CG         3.2690  -35.0370    1.1460 C.ar   90  TYR90      -0.0201
      7  CD1        2.2660  -35.9890    0.9140 C.ar   90  TYR90      -0.0009
      8  CD2        4.2960  -34.9300    0.2120 C.ar   90  TYR90      -0.0009
      9  CE1        2.2850  -36.8310   -0.2210 C.ar   90  TYR90       0.0417
     10  CE2        4.2860  -35.7060   -0.9420 C.ar   90  TYR90       0.0417
     11  CZ         3.3140  -36.6560   -1.1440 C.ar   90  TYR90       0.1957
     12  OH         3.4070  -37.4030   -2.3040 O.3    90  TYR90      -0.2866
     13  N          1.6200  -34.9460    6.2000 N.3    92  ALA92      -0.1231
     14  CA         1.8920  -36.2520    6.8080 C.3    92  ALA92       0.1694
     15  C          2.5680  -37.1640    5.7630 C.2    92  ALA92       0.2592
     16  O          2.0650  -37.2680    4.6340 O.2    92  ALA92      -0.2718
     17  CB         0.5800  -36.8420    7.3200 C.3    92  ALA92       0.0304
     18  N          3.6840  -37.8150    6.0950 N.am   93  ILE93      -0.1966
     19  CA         4.2080  -38.8470    5.1890 C.3    93  ILE93       0.1727
     20  C          4.6500  -40.1020    5.9540 C.2    93  ILE93       0.2616
     21  O          4.9050  -40.0510    7.1730 O.2    93  ILE93      -0.2715
     22  CB         5.4300  -38.3000    4.4430 C.3    93  ILE93       0.0290
     23  CG1        6.5310  -37.8860    5.4330 C.3    93  ILE93       0.0022
     24  CG2        4.9930  -37.0980    3.6120 C.3    93  ILE93       0.0023
     25  CD1        7.8450  -37.5650    4.7410 C.3    93  ILE93       0.0001
     26  N          4.7330  -41.2070    5.2260 N.am   94  ASP94      -0.1971
     27  CA         5.1690  -42.4770    5.8200 C.3    94  ASP94       0.1709
     28  C          6.6910  -42.5070    5.9380 C.2    94  ASP94       0.2293
     29  O          7.4110  -41.7410    5.2840 O.2    94  ASP94      -0.2864
     30  CB         4.6990  -43.6400    4.9520 C.3    94  ASP94       0.1436
     31  CG         3.2250  -43.8860    5.0940 C.2    94  ASP94       0.3671
     32  OD1        2.8310  -44.4730    6.1170 O.co2  94  ASP94      -0.2456
     33  OD2        2.4610  -43.5190    4.1790 O.co2  94  ASP94      -0.2456
     34  N         10.0450  -44.1020    5.1540 N.3    96  PHE96      -0.1241
     35  CA        10.6430  -44.8600    4.0680 C.3    96  PHE96       0.1605
     36  C         11.7880  -45.7590    4.5420 C.2    96  PHE96       0.2264
     37  O         12.3790  -46.4570    3.7140 O.2    96  PHE96      -0.2867
     38  CB        11.2320  -43.8630    3.0570 C.3    96  PHE96       0.0534
     39  CG        10.2680  -43.4630    1.9570 C.ar   96  PHE96      -0.0203
     40  CD1       10.6870  -43.4530    0.6360 C.ar   96  PHE96      -0.0042
     41  CD2        8.9570  -43.1130    2.2380 C.ar   96  PHE96      -0.0042
     42  CE1        9.8120  -43.0550   -0.3800 C.ar   96  PHE96      -0.0003
     43  CE2        8.0340  -42.7620    1.2210 C.ar   96  PHE96      -0.0003
     44  CZ         8.4900  -42.7250   -0.0800 C.ar   96  PHE96      -0.0000
     45  N          3.4350  -49.0220    5.4470 N.3   102  MET102     -0.1230
     46  CA         3.1810  -47.7120    4.8410 C.3   102  MET102      0.1702
     47  C          1.8040  -47.6290    4.1660 C.2   102  MET102      0.2593
     48  O          1.3530  -48.5830    3.5360 O.2   102  MET102     -0.2718
     49  CB         4.2670  -47.4420    3.7820 C.3   102  MET102      0.0401
     50  CG         5.7230  -47.5800    4.3010 C.3   102  MET102      0.0596
     51  SD         6.8610  -47.2570    2.9380 S.3   102  MET102     -0.1393
     52  CE         5.5470  -46.7080    1.8610 C.3   102  MET102      0.0692
     53  N          1.1830  -46.4580    4.2620 N.am  103  GLY103     -0.1943
     54  CA         0.1070  -45.9730    3.4000 C.3   103  GLY103      0.1998
     55  C         -1.2830  -46.2720    3.9300 C.2   103  GLY103      0.2480
     56  O         -1.4670  -46.8660    5.0060 O.2   103  GLY103     -0.2729
     57  N         -2.2920  -45.9270    3.1210 N.am  104  PRO104     -0.2726
     58  CA        -3.6450  -46.0140    3.6740 C.3   104  PRO104      0.1402
     59  C         -4.2310  -47.4140    3.7620 C.2   104  PRO104      0.2269
     60  O         -5.2990  -47.5500    4.3560 O.2   104  PRO104     -0.2865
     61  CB        -4.4680  -45.0960    2.7610 C.3   104  PRO104      0.0296
     62  CG        -3.7050  -45.1350    1.4390 C.3   104  PRO104      0.0237
     63  CD        -2.2420  -45.2730    1.8040 C.3   104  PRO104      0.0939
     64  N          8.0420  -30.2380   -4.1940 N.3   131  ILE131     -0.1245
     65  CA         7.5460  -31.0430   -3.0730 C.3   131  ILE131      0.1561
     66  C          7.9860  -30.4560   -1.7270 C.2   131  ILE131      0.2260
     67  O          9.1500  -30.1270   -1.5400 O.2   131  ILE131     -0.2867
     68  CB         7.9950  -32.5010   -3.1110 C.3   131  ILE131      0.0252
     69  CG1        7.4620  -33.1660   -4.3740 C.3   131  ILE131      0.0019
     70  CG2        7.3290  -33.1830   -1.8850 C.3   131  ILE131      0.0019
     71  CD1        8.1540  -34.4720   -4.7510 C.3   131  ILE131      0.0001
     72  N          7.5940  -31.1410    2.3930 N.3   133  PHE133     -0.1241
     73  CA         7.3020  -32.2400    3.3080 C.3   133  PHE133      0.1605
     74  C          6.8930  -31.7130    4.6950 C.2   133  PHE133      0.2264
     75  O          6.8490  -30.5140    4.9160 O.2   133  PHE133     -0.2867
     76  CB         8.5760  -33.0770    3.3790 C.3   133  PHE133      0.0534
     77  CG         8.7160  -34.0340    2.2180 C.ar  133  PHE133     -0.0203
     78  CD1        7.6630  -34.8760    1.8760 C.ar  133  PHE133     -0.0042
     79  CD2        9.8510  -34.0650    1.4300 C.ar  133  PHE133     -0.0042
     80  CE1        7.7520  -35.7710    0.8080 C.ar  133  PHE133     -0.0003
     81  CE2        9.9850  -34.9950    0.3880 C.ar  133  PHE133     -0.0003
     82  CZ         8.9260  -35.8310    0.0580 C.ar  133  PHE133     -0.0000
     83  N         12.8650  -29.8250   -3.7200 N.3   149  MET149     -0.1245
     84  CA        12.2810  -30.6290   -2.6500 C.3   149  MET149      0.1570
     85  C         12.6830  -29.9910   -1.3070 C.2   149  MET149      0.2261
     86  O         13.8730  -29.7950   -1.1030 O.2   149  MET149     -0.2867
     87  CB        12.9070  -32.0370   -2.7330 C.3   149  MET149      0.0387
     88  CG        12.2970  -32.9870   -1.7120 C.3   149  MET149      0.0595
     89  SD        12.9530  -34.6810   -1.8000 S.3   149  MET149     -0.1393
     90  CE        14.5960  -34.3980   -1.1030 C.3   149  MET149      0.0692
     91  N         12.6070  -30.3780    2.8050 N.3   151  LYS151     -0.1245
     92  CA        12.2970  -31.2290    3.9500 C.3   151  LYS151      0.1561
     93  C         12.5190  -30.4310    5.2440 C.2   151  LYS151      0.2260
     94  O         12.1130  -30.9380    6.2850 O.2   151  LYS151     -0.2867
     95  CB        13.1430  -32.5150    3.9870 C.3   151  LYS151      0.0271
     96  CG        13.0830  -33.3490    2.6890 C.3   151  LYS151      0.0035
     97  CD        13.4850  -34.8170    2.8230 C.3   151  LYS151      0.0206
     98  CE        14.9910  -34.9920    2.9750 C.3   151  LYS151      0.1093
     99  NZ        15.2710  -36.3910    3.4290 N.3   151  LYS151     -0.1314
    100  N         17.4020  -30.4250   -4.9580 N.3   163  VAL163     -0.1231
    101  CA        16.7090  -31.5700   -4.3740 C.3   163  VAL163      0.1678
    102  C         17.7650  -32.2890   -3.5200 C.2   163  VAL163      0.2434
    103  O         18.6600  -32.9320   -4.0430 O.2   163  VAL163     -0.2733
    104  CB        16.3550  -32.5790   -5.4730 C.3   163  VAL163      0.0265
    105  CG1       15.8050  -33.8010   -4.7920 C.3   163  VAL163      0.0020
    106  CG2       15.3280  -31.9530   -6.4080 C.3   163  VAL163      0.0020
    107  N         17.7300  -32.0930   -2.2060 N.am  164  PRO164     -0.2729
    108  CA        16.8950  -31.1600   -1.4600 C.3   164  PRO164      0.1401
    109  C         17.4150  -29.7290   -1.6230 C.2   164  PRO164      0.2269
    110  O         18.5290  -29.5480   -2.1280 O.2   164  PRO164     -0.2865
    111  CB        17.0940  -31.6580   -0.0070 C.3   164  PRO164      0.0296
    112  CG        18.5300  -32.0350   -0.0130 C.3   164  PRO164      0.0237
    113  CD        18.7090  -32.7670   -1.3280 C.3   164  PRO164      0.0939
@<TRIPOS>BOND
     1   106   104    1
     2   104   105    1
     3   104   101    1
     4   100   101    1
     5    71    69    1
     6   101   102    1
     7    69    68    1
     8    64    65    1
     9   103   102    2
    10    83    84    1
    11   102   107   am
    12    68    65    1
    13    68    70    1
    14    65    66    1
    15    87    84    1
    16    87    88    1
    17    84    85    1
    18    12    11    1
    19   107   108    1
    20   107   113    1
    21   110   109    2
    22    89    88    1
    23    89    90    1
    24    66    67    2
    25   109   108    1
    26   108   111    1
    27   113   112    1
    28    85    86    2
    29    11    10   ar
    30    11     9   ar
    31    10     8   ar
    32    42    44   ar
    33    42    40   ar
    34     9     7   ar
    35    44    43   ar
    36   112   111    1
    37    82    81   ar
    38    82    80   ar
    39     8     6   ar
    40    81    79   ar
    41    40    39   ar
    42    80    78   ar
    43     7     6   ar
    44     6     5    1
    45    43    41   ar
    46    79    77   ar
    47    62    63    1
    48    62    61    1
    49     1     2    1
    50    63    57    1
    51    52    51    1
    52    78    77   ar
    53    39    41   ar
    54    39    38    1
    55    77    76    1
    56    72    73    1
    57     5     2    1
    58     2     3    1
    59    96    97    1
    60    96    95    1
    61    61    58    1
    62    91    92    1
    63    97    98    1
    64    51    50    1
    65    98    99    1
    66    38    35    1
    67    57    58    1
    68    57    55   am
    69    73    76    1
    70    73    74    1
    71    54    55    1
    72    54    53    1
    73    48    47    2
    74    24    22    1
    75    58    59    1
    76    37    36    2
    77    59    60    2
    78    49    50    1
    79    49    46    1
    80    55    56    2
    81    92    95    1
    82    92    93    1
    83     3     4    2
    84    35    36    1
    85    35    34    1
    86    47    53   am
    87    47    46    1
    88    33    31   ar
    89    22    19    1
    90    22    23    1
    91    16    15    2
    92    74    75    2
    93    25    23    1
    94    46    45    1
    95    30    31    1
    96    30    27    1
    97    31    32   ar
    98    19    20    1
    99    19    18    1
   100    26    27    1
   101    26    20   am
   102    93    94    2
   103    29    28    2
   104    15    18   am
   105    15    14    1
   106    27    28    1
   107    20    21    2
   108    13    14    1
   109    14    17    1
