@<TRIPOS>MOLECULE
tmp/3vbjC03.pdb
 142 133 0 0 0
SMALL
GASTEIGER

@<TRIPOS>ATOM
      1  N         -2.7530  -17.8030   -5.5710 N.3    61  HIS61      -0.1241
      2  CA        -2.9950  -18.6980   -6.6970 C.3    61  HIS61       0.1621
      3  C         -2.4100  -20.0900   -6.3590 C.2    61  HIS61       0.2264
      4  O         -1.2410  -20.2390   -5.9790 O.2    61  HIS61      -0.2867
      5  CB        -2.3330  -18.1330   -7.9680 C.3    61  HIS61       0.0745
      6  CG        -2.5770  -18.9490   -9.2050 C.ar   61  HIS61       0.0817
      7  ND1       -1.6840  -19.0090  -10.2570 N.ar   61  HIS61      -0.2268
      8  CD2       -3.6160  -19.7440   -9.5490 C.ar   61  HIS61       0.1154
      9  CE1       -2.1630  -19.8060  -11.1970 C.ar   61  HIS61       0.1986
     10  NE2       -3.3370  -20.2610  -10.7920 N.ar   61  HIS61      -0.2212
     11  N         -1.9630  -23.1020   -8.5150 N.3    63  ALA63      -0.1245
     12  CA        -1.9390  -23.5040   -9.9120 C.3    63  ALA63       0.1562
     13  C         -2.2550  -24.9670  -10.2010 C.2    63  ALA63       0.2260
     14  O         -2.2450  -25.8400   -9.3240 O.2    63  ALA63      -0.2867
     15  CB        -0.6280  -23.0110  -10.5650 C.3    63  ALA63       0.0290
     16  N          1.8480  -17.9990   -3.0260 N.3    82  ASN82      -0.1225
     17  CA         1.3640  -18.6180   -4.2550 C.3    82  ASN82       0.1785
     18  C          2.0850  -19.9380   -4.4930 C.2    82  ASN82       0.2597
     19  O          3.2610  -20.0590   -4.1440 O.2    82  ASN82      -0.2718
     20  CB         1.6250  -17.7420   -5.4800 C.3    82  ASN82       0.1169
     21  CG         0.8140  -16.4630   -5.4310 C.2    82  ASN82       0.2627
     22  OD1       -0.3400  -16.4560   -5.8400 O.2    82  ASN82      -0.2716
     23  ND2        1.4330  -15.3790   -5.0120 N.am   82  ASN82      -0.0877
     24  N          1.3700  -20.8790   -5.0970 N.am   83  ILE83      -0.1966
     25  CA         2.0010  -22.1580   -5.3760 C.3    83  ILE83       0.1727
     26  C          1.8770  -22.4500   -6.8660 C.2    83  ILE83       0.2617
     27  O          0.7610  -22.4820   -7.3760 O.2    83  ILE83      -0.2715
     28  CB         1.3460  -23.2560   -4.5790 C.3    83  ILE83       0.0290
     29  CG1        1.7600  -23.0490   -3.1160 C.3    83  ILE83       0.0022
     30  CG2        1.9260  -24.5930   -5.0740 C.3    83  ILE83       0.0023
     31  CD1        1.2040  -24.1320   -2.2400 C.3    83  ILE83       0.0001
     32  N          3.0090  -22.6540   -7.5390 N.am   84  SER84      -0.1936
     33  CA         2.9460  -22.9560   -8.9840 C.3    84  SER84       0.2055
     34  C          2.5430  -24.4030   -9.3190 C.2    84  SER84       0.2643
     35  O          2.4770  -25.2630   -8.4340 O.2    84  SER84      -0.2714
     36  CB         4.3460  -22.7490   -9.5570 C.3    84  SER84       0.2130
     37  OG         4.8170  -21.4290   -9.2990 O.3    84  SER84      -0.2179
     38  N          2.3600  -24.7230  -10.6040 N.am   85  SER85      -0.1949
     39  CA         1.6890  -25.9480  -10.9870 C.3    85  SER85       0.1924
     40  C          2.4280  -27.2110  -10.5490 C.2    85  SER85       0.2314
     41  O          3.6850  -27.2910  -10.5550 O.2    85  SER85      -0.2863
     42  CB         1.5100  -26.0750  -12.5040 C.3    85  SER85       0.2116
     43  OG         0.5040  -25.1910  -12.9450 O.3    85  SER85      -0.2180
     44  N          6.7510  -17.8940   -2.5950 N.3   125  ILE125     -0.1245
     45  CA         6.3280  -18.4790   -3.8560 C.3   125  ILE125      0.1561
     46  C          7.0050  -19.8330   -3.9610 C.2   125  ILE125      0.2260
     47  O          8.2180  -19.9250   -3.7420 O.2   125  ILE125     -0.2867
     48  CB         6.7820  -17.6070   -5.0380 C.3   125  ILE125      0.0252
     49  CG1        6.5270  -18.3220   -6.3730 C.3   125  ILE125      0.0019
     50  CG2        8.2830  -17.2400   -4.9340 C.3   125  ILE125      0.0019
     51  CD1        5.0320  -18.4670   -6.7220 C.3   125  ILE125      0.0001
     52  N          7.9400  -22.7210   -6.6820 N.3   127  GLY127     -0.1210
     53  CA         8.0760  -23.0170   -8.1130 C.3   127  GLY127      0.1956
     54  C          7.3770  -24.2920   -8.5390 C.2   127  GLY127      0.2611
     55  O          7.0270  -25.1310   -7.7210 O.2   127  GLY127     -0.2717
     56  N          7.1910  -24.4890   -9.8350 N.am  128  ALA128     -0.1979
     57  CA         6.4320  -25.6470  -10.3230 C.3   128  ALA128      0.1597
     58  C          7.1550  -26.9590  -10.0790 C.2   128  ALA128      0.2287
     59  O          8.4020  -27.0010  -10.0400 O.2   128  ALA128     -0.2864
     60  CB         6.1910  -25.4550  -11.8290 C.3   128  ALA128      0.0319
     61  N         11.4530  -17.7930   -1.9240 N.3   143  ALA143     -0.1231
     62  CA        11.1010  -18.3660   -3.2360 C.3   143  ALA143      0.1694
     63  C         11.7620  -19.7360   -3.2750 C.2   143  ALA143      0.2592
     64  O         12.9450  -19.8530   -2.9410 O.2   143  ALA143     -0.2718
     65  CB        11.6490  -17.5250   -4.3890 C.3   143  ALA143      0.0304
     66  N         10.9970  -20.7610   -3.6240 N.am  144  VAL144     -0.1966
     67  CA        11.6430  -22.0360   -3.9440 C.3   144  VAL144      0.1727
     68  C         11.5790  -22.2790   -5.4550 C.2   144  VAL144      0.2617
     69  O         10.5140  -22.1230   -6.0300 O.2   144  VAL144     -0.2715
     70  CB        10.9410  -23.1010   -3.1120 C.3   144  VAL144      0.0290
     71  CG1       11.2810  -24.4830   -3.6070 C.3   144  VAL144      0.0023
     72  CG2       11.3180  -22.8130   -1.6130 C.3   144  VAL144      0.0023
     73  N         12.7020  -22.6370   -6.0670 N.am  145  GLY145     -0.1940
     74  CA        12.7680  -22.8550   -7.5220 C.3   145  GLY145      0.2014
     75  C         11.9120  -24.0230   -7.9720 C.2   145  GLY145      0.2639
     76  O         11.3770  -24.7840   -7.1560 O.2   145  GLY145     -0.2714
     77  N         11.7380  -24.1300   -9.2910 N.am  146  ALA146     -0.1963
     78  CA        11.0420  -25.2870   -9.8520 C.3   146  ALA146      0.1728
     79  C         11.8080  -26.5520   -9.4900 C.2   146  ALA146      0.2616
     80  O         13.0470  -26.5680   -9.3210 O.2   146  ALA146     -0.2715
     81  CB        11.0280  -25.1380  -11.3940 C.3   146  ALA146      0.0334
     82  N         11.0550  -27.6410   -9.4570 N.am  147  MET147     -0.1963
     83  CA        11.6350  -28.9760   -9.3470 C.3   147  MET147      0.1736
     84  C         12.5090  -29.0710   -8.1090 C.2   147  MET147      0.2617
     85  O         13.5720  -29.6840   -8.1220 O.2   147  MET147     -0.2715
     86  CB        12.3750  -29.4280  -10.6110 C.3   147  MET147      0.0427
     87  CG        11.5540  -28.9550  -11.8170 C.3   147  MET147      0.0599
     88  SD        12.1710  -29.5790  -13.3710 S.3   147  MET147     -0.1393
     89  CE        12.6130  -31.1700  -12.7040 C.3   147  MET147      0.0692
     90  N         12.0150  -28.5020   -7.0170 N.am  148  SER148     -0.1950
     91  CA        12.8090  -28.5020   -5.8040 C.3   148  SER148      0.1924
     92  C         12.1070  -29.3190   -4.6990 C.2   148  SER148      0.2314
     93  O         10.8930  -29.5600   -4.7560 O.2   148  SER148     -0.2863
     94  CB        13.2580  -27.0620   -5.5040 C.3   148  SER148      0.2116
     95  OG        14.1430  -26.5540   -6.5030 O.3   148  SER148     -0.2180
     96  N         16.1940  -17.2730   -1.6080 N.3   159  ILE159     -0.1245
     97  CA        15.8070  -18.1150   -2.7360 C.3   159  ILE159      0.1561
     98  C         16.5250  -19.4430   -2.6250 C.2   159  ILE159      0.2260
     99  O         17.7540  -19.4640   -2.4570 O.2   159  ILE159     -0.2867
    100  CB        16.1480  -17.4150   -4.0610 C.3   159  ILE159      0.0252
    101  CG1       15.3420  -16.1140   -4.1690 C.3   159  ILE159      0.0019
    102  CG2       15.7180  -18.2840   -5.2450 C.3   159  ILE159      0.0019
    103  CD1       15.4130  -15.4830   -5.5900 C.3   159  ILE159      0.0001
    104  N         16.9650  -23.6350   -4.1490 N.3   161  VAL161     -0.1231
    105  CA        16.7640  -24.5080   -5.3190 C.3   161  VAL161      0.1692
    106  C         17.3640  -25.8900   -5.0460 C.2   161  VAL161      0.2592
    107  O         18.2630  -26.0790   -4.2100 O.2   161  VAL161     -0.2718
    108  CB        17.4680  -23.9350   -6.5840 C.3   161  VAL161      0.0266
    109  CG1       16.9930  -22.4990   -6.8020 C.3   161  VAL161      0.0020
    110  CG2       19.0390  -23.9550   -6.4710 C.3   161  VAL161      0.0020
    111  N         16.8600  -26.8790   -5.7870 N.am  162  GLY162     -0.1957
    112  CA        17.5140  -28.1760   -5.7610 C.3   162  GLY162      0.1869
    113  C         16.8040  -29.2400   -4.9500 C.2   162  GLY162      0.2309
    114  O         15.7320  -29.0760   -4.3510 O.2   162  GLY162     -0.2863
    115  N         19.0160  -25.9420   -1.4650 N.3   166  ARG166     -0.1245
    116  CA        20.1120  -25.1640   -0.9260 C.3   166  ARG166      0.1563
    117  C         19.8060  -23.6910   -1.1480 C.2   166  ARG166      0.2260
    118  O         19.0940  -23.2910   -2.0770 O.2   166  ARG166     -0.2867
    119  CB        21.4310  -25.5520   -1.5850 C.3   166  ARG166      0.0307
    120  CG        21.4950  -25.2740   -3.0750 C.3   166  ARG166      0.0489
    121  CD        22.8690  -25.7100   -3.5580 C.3   166  ARG166      0.2205
    122  NE        23.1510  -25.0200   -4.8130 N.pl3 166  ARG166     -0.0865
    123  CZ        22.6790  -25.4810   -5.9610 C.cat 166  ARG166      0.5346
    124  NH1       22.9490  -24.8620   -7.1080 N.pl3 166  ARG166      0.1354
    125  NH2       21.9370  -26.5870   -5.9060 N.pl3 166  ARG166      0.1354
    126  N         20.5030  -20.1540   -2.4650 N.3   168  ILE168     -0.1231
    127  CA        21.3730  -19.5490   -3.4720 C.3   168  ILE168      0.1692
    128  C         21.6030  -18.0420   -3.4480 C.2   168  ILE168      0.2591
    129  O         22.6610  -17.5970   -3.8880 O.2   168  ILE168     -0.2718
    130  CB        21.0340  -19.9950   -4.9200 C.3   168  ILE168      0.0266
    131  CG1       19.5740  -19.6970   -5.2640 C.3   168  ILE168      0.0019
    132  CG2       21.3080  -21.4950   -5.0030 C.3   168  ILE168      0.0020
    133  CD1       19.2820  -19.6520   -6.7710 C.3   168  ILE168      0.0001
    134  N         20.6030  -17.2480   -3.0830 N.am  169  LYS169     -0.1980
    135  CA        20.7780  -15.7880   -3.0620 C.3   169  LYS169      0.1596
    136  C         19.6090  -15.2350   -2.2550 C.2   169  LYS169      0.2287
    137  O         18.6210  -15.9270   -1.9870 O.2   169  LYS169     -0.2864
    138  CB        20.7930  -15.1380   -4.4600 C.3   169  LYS169      0.0298
    139  CG        19.5280  -15.4650   -5.2170 C.3   169  LYS169      0.0038
    140  CD        19.3630  -14.8310   -6.5920 C.3   169  LYS169      0.0206
    141  CE        20.3330  -15.3170   -7.6470 C.3   169  LYS169      0.1093
    142  NZ        19.7290  -14.8650   -8.9230 N.3   169  LYS169     -0.1314
@<TRIPOS>BOND
     1    88    89    1
     2    88    87    1
     3    43    42    1
     4    42    39    1
     5    60    57    1
     6    87    86    1
     7    81    78    1
     8     9    10   ar
     9     9     7   ar
    10    39    38    1
    11    39    40    1
    12    10     8   ar
    13    86    83    1
    14    38    34   am
    15    15    12    1
    16    41    40    2
    17    57    58    1
    18    57    56    1
    19     7     6   ar
    20    13    12    1
    21    13    14    2
    22    58    59    2
    23    12    11    1
    24    78    79    1
    25    78    77    1
    26    56    54   am
    27    36    37    1
    28    36    33    1
    29     8     6   ar
    30    79    82   am
    31    79    80    2
    32    82    83    1
    33    83    84    1
    34    34    33    1
    35    34    35    2
    36    77    75   am
    37     6     5    1
    38    33    32    1
    39   142   141    1
    40    54    53    1
    41    54    55    2
    42    85    84    2
    43    53    52    1
    44    84    90   am
    45    75    74    1
    46    75    76    2
    47     5     2    1
    48   141   140    1
    49    32    26   am
    50    74    73    1
    51    27    26    2
    52   124   123    1
    53    90    91    1
    54    26    25    1
    55   109   108    1
    56   133   131    1
    57    51    49    1
    58     2     3    1
    59     2     1    1
    60   140   139    1
    61   108   110    1
    62   108   105    1
    63    95    94    1
    64    49    48    1
    65     3     4    2
    66    73    68   am
    67    69    68    2
    68   123   125    1
    69   123   122    2
    70    22    21    2
    71    91    94    1
    72    91    92    1
    73   111   112    1
    74   111   106   am
    75   112   113    1
    76   103   101    1
    77    20    21    1
    78    20    17    1
    79    68    67    1
    80    21    23   am
    81    25    24    1
    82    25    28    1
    83   105   106    1
    84   105   104    1
    85   131   130    1
    86   102   100    1
    87   139   138    1
    88    24    18   am
    89    30    28    1
    90   106   107    2
    91    48    50    1
    92    48    45    1
    93   132   130    1
    94   113   114    2
    95   130   127    1
    96   122   121    1
    97    93    92    2
    98    28    29    1
    99    18    17    1
   100    18    19    2
   101   138   135    1
   102    65    62    1
   103    17    16    1
   104   101   100    1
   105   100    97    1
   106    46    45    1
   107    46    47    2
   108    67    66    1
   109    67    70    1
   110   129   128    2
   111    45    44    1
   112    66    63   am
   113    71    70    1
   114   121   120    1
   115   127   128    1
   116   127   126    1
   117   128   134   am
   118    63    62    1
   119    63    64    2
   120    62    61    1
   121    29    31    1
   122    70    72    1
   123   134   135    1
   124   120   119    1
   125   135   136    1
   126    97    98    1
   127    97    96    1
   128    98    99    2
   129   136   137    2
   130   118   117    2
   131   119   116    1
   132   115   116    1
   133   117   116    1
