@<TRIPOS>MOLECULE
tmp/3vbmC01.pdb
 102 97 0 0 0
SMALL
GASTEIGER

@<TRIPOS>ATOM
      1  N          2.8500   31.9440   -0.8700 N.3    97  TYR97      -0.1241
      2  CA         2.3880   33.0300   -1.7240 C.3    97  TYR97       0.1605
      3  C          2.5170   32.5790   -3.1770 C.2    97  TYR97       0.2264
      4  O          3.6060   32.1510   -3.5760 O.2    97  TYR97      -0.2867
      5  CB         3.4020   34.1530   -1.6790 C.3    97  TYR97       0.0534
      6  CG         3.3610   34.9910   -0.4320 C.ar   97  TYR97      -0.0201
      7  CD1        2.2920   35.8710   -0.1620 C.ar   97  TYR97      -0.0009
      8  CD2        4.4390   34.9570    0.4530 C.ar   97  TYR97      -0.0009
      9  CE1        2.3450   36.7000    0.9810 C.ar   97  TYR97       0.0417
     10  CE2        4.4660   35.7550    1.5980 C.ar   97  TYR97       0.0417
     11  CZ         3.4060   36.6070    1.8810 C.ar   97  TYR97       0.1957
     12  OH         3.5050   37.3690    3.0570 O.3    97  TYR97      -0.2866
     13  N          1.7210   34.9420   -5.4110 N.3    99  ALA99      -0.1231
     14  CA         2.0180   36.2650   -5.9940 C.3    99  ALA99       0.1694
     15  C          2.7050   37.1250   -4.9270 C.2    99  ALA99       0.2592
     16  O          2.2610   37.1080   -3.7670 O.2    99  ALA99      -0.2718
     17  CB         0.7230   36.9240   -6.4610 C.3    99  ALA99       0.0304
     18  N          3.7870   37.8210   -5.2700 N.am  100  ILE100     -0.1966
     19  CA         4.2840   38.8880   -4.3930 C.3   100  ILE100      0.1727
     20  C          4.7240   40.1380   -5.1690 C.2   100  ILE100      0.2616
     21  O          5.0490   40.0790   -6.3720 O.2   100  ILE100     -0.2715
     22  CB         5.5360   38.4760   -3.5900 C.3   100  ILE100      0.0290
     23  CG1        6.6950   38.0670   -4.4800 C.3   100  ILE100      0.0022
     24  CG2        5.3220   37.2600   -2.6610 C.3   100  ILE100      0.0023
     25  CD1        7.9600   38.0080   -3.6640 C.3   100  ILE100      0.0001
     26  N          4.7780   41.2560   -4.4510 N.am  101  ASP101     -0.1971
     27  CA         5.2190   42.5190   -5.0400 C.3   101  ASP101      0.1709
     28  C          6.7370   42.5300   -5.1350 C.2   101  ASP101      0.2293
     29  O          7.4390   41.8180   -4.3950 O.2   101  ASP101     -0.2864
     30  CB         4.7530   43.6910   -4.1650 C.3   101  ASP101      0.1436
     31  CG         3.2690   43.9360   -4.2980 C.2   101  ASP101      0.3671
     32  OD1        2.8010   44.5200   -5.2920 O.co2 101  ASP101     -0.2456
     33  OD2        2.5260   43.5830   -3.3680 O.co2 101  ASP101     -0.2456
     34  N         10.0910   44.1210   -4.4470 N.3   103  PHE103     -0.1241
     35  CA        10.6980   44.8120   -3.3280 C.3   103  PHE103      0.1605
     36  C         11.8300   45.7620   -3.7340 C.2   103  PHE103      0.2264
     37  O         12.2880   46.5380   -2.8900 O.2   103  PHE103     -0.2867
     38  CB        11.2910   43.7330   -2.4130 C.3   103  PHE103      0.0534
     39  CG        10.4340   43.4030   -1.2040 C.ar  103  PHE103     -0.0203
     40  CD1       10.9630   43.4980    0.0810 C.ar  103  PHE103     -0.0042
     41  CD2        9.1120   43.0130   -1.3640 C.ar  103  PHE103     -0.0042
     42  CE1       10.1740   43.1630    1.2010 C.ar  103  PHE103     -0.0003
     43  CE2        8.3100   42.7150   -0.2580 C.ar  103  PHE103     -0.0003
     44  CZ         8.8490   42.7590    1.0100 C.ar  103  PHE103     -0.0000
     45  N          3.5040   49.2220   -4.5160 N.3   109  MET109     -0.1245
     46  CA         3.2960   47.8930   -3.9230 C.3   109  MET109      0.1570
     47  C          1.9160   47.7560   -3.2560 C.2   109  MET109      0.2261
     48  O          1.3950   48.7040   -2.6740 O.2   109  MET109     -0.2867
     49  CB         4.3940   47.6510   -2.8680 C.3   109  MET109      0.0387
     50  CG         5.8550   47.6780   -3.4150 C.3   109  MET109      0.0595
     51  SD         6.9470   47.3000   -2.0200 S.3   109  MET109     -0.1393
     52  CE         6.8730   45.4750   -2.0660 C.3   109  MET109      0.0692
     53  N          8.1500   30.2670    5.1040 N.3   138  ILE138     -0.1245
     54  CA         7.6120   31.0540    4.0010 C.3   138  ILE138      0.1561
     55  C          8.0550   30.4830    2.6510 C.2   138  ILE138      0.2260
     56  O          9.2450   30.2440    2.4310 O.2   138  ILE138     -0.2867
     57  CB         8.0710   32.4880    4.0260 C.3   138  ILE138      0.0252
     58  CG1        7.6510   33.1140    5.3600 C.3   138  ILE138      0.0019
     59  CG2        7.4200   33.2640    2.8380 C.3   138  ILE138      0.0019
     60  CD1        8.2720   34.4710    5.5830 C.3   138  ILE138      0.0001
     61  N          7.7740   31.2500   -1.4310 N.3   140  PHE140     -0.1241
     62  CA         7.4730   32.2800   -2.4320 C.3   140  PHE140      0.1605
     63  C          6.9910   31.7690   -3.7960 C.2   140  PHE140      0.2264
     64  O          6.8780   30.5740   -4.0190 O.2   140  PHE140     -0.2867
     65  CB         8.7080   33.1790   -2.4880 C.3   140  PHE140      0.0534
     66  CG         8.8090   34.0750   -1.2930 C.ar  140  PHE140     -0.0203
     67  CD1        7.7850   34.9600   -1.0010 C.ar  140  PHE140     -0.0042
     68  CD2        9.8860   33.9970   -0.4360 C.ar  140  PHE140     -0.0042
     69  CE1        7.8490   35.8140    0.1160 C.ar  140  PHE140     -0.0003
     70  CE2       10.0280   34.8910    0.6040 C.ar  140  PHE140     -0.0003
     71  CZ         8.9950   35.7490    0.9320 C.ar  140  PHE140     -0.0000
     72  N         12.9250   29.7680    4.5860 N.3   156  MET156     -0.1245
     73  CA        12.3930   30.6240    3.5290 C.3   156  MET156      0.1570
     74  C         12.7830   30.0070    2.1840 C.2   156  MET156      0.2261
     75  O         13.9720   29.7650    1.9810 O.2   156  MET156     -0.2867
     76  CB        13.0210   32.0340    3.6240 C.3   156  MET156      0.0387
     77  CG        12.3830   33.0110    2.6170 C.3   156  MET156      0.0595
     78  SD        13.0300   34.6980    2.7190 S.3   156  MET156     -0.1393
     79  CE        14.6380   34.3690    1.9590 C.3   156  MET156      0.0692
     80  N         12.6650   30.3640   -1.8980 N.3   158  LYS158     -0.1245
     81  CA        12.4080   31.2250   -3.0510 C.3   158  LYS158      0.1561
     82  C         12.6160   30.4300   -4.3620 C.2   158  LYS158      0.2260
     83  O         12.1660   30.9300   -5.3990 O.2   158  LYS158     -0.2867
     84  CB        13.3110   32.4700   -3.0780 C.3   158  LYS158      0.0271
     85  CG        13.0680   33.3860   -1.8780 C.3   158  LYS158      0.0035
     86  CD        13.6220   34.7970   -2.0030 C.3   158  LYS158      0.0206
     87  CE        15.1280   34.8680   -2.2220 C.3   158  LYS158      0.1093
     88  NZ        15.4340   36.3020   -2.5670 N.3   158  LYS158     -0.1314
     89  N         17.5000   30.4220    5.9050 N.3   170  VAL170     -0.1231
     90  CA        16.8680   31.5730    5.2780 C.3   170  VAL170      0.1678
     91  C         17.8990   32.3080    4.4220 C.2   170  VAL170      0.2434
     92  O         18.7730   33.0030    4.9600 O.2   170  VAL170     -0.2733
     93  CB        16.4420   32.5820    6.3390 C.3   170  VAL170      0.0265
     94  CG1       15.9490   33.8330    5.6520 C.3   170  VAL170      0.0020
     95  CG2       15.3940   31.9990    7.2910 C.3   170  VAL170      0.0020
     96  N         17.8450   32.0820    3.1070 N.am  171  PRO171     -0.2729
     97  CA        16.9930   31.1580    2.3620 C.3   171  PRO171      0.1401
     98  C         17.5170   29.7380    2.5190 C.2   171  PRO171      0.2269
     99  O         18.6060   29.6070    3.0950 O.2   171  PRO171     -0.2865
    100  CB        17.1910   31.6240    0.9000 C.3   171  PRO171      0.0296
    101  CG        18.5450   32.1490    0.8620 C.3   171  PRO171      0.0237
    102  CD        18.8270   32.7420    2.2170 C.3   171  PRO171      0.0939
@<TRIPOS>BOND
     1    17    14    1
     2    21    20    2
     3    14    13    1
     4    14    15    1
     5    83    82    2
     6    32    31   ar
     7    18    15   am
     8    18    19    1
     9    20    26   am
    10    20    19    1
    11    28    27    1
    12    28    29    2
    13    27    26    1
    14    27    30    1
    15    15    16    2
    16    45    46    1
    17    23    25    1
    18    23    22    1
    19    34    35    1
    20    19    22    1
    21    82    81    1
    22    31    30    1
    23    31    33   ar
    24    64    63    2
    25    46    47    1
    26    46    49    1
    27    63    62    1
    28    36    35    1
    29    36    37    2
    30    22    24    1
    31     4     3    2
    32    50    49    1
    33    50    51    1
    34    35    38    1
    35    47    48    2
    36     3     2    1
    37    84    81    1
    38    84    85    1
    39    81    80    1
    40    88    87    1
    41    65    62    1
    42    65    66    1
    43    62    61    1
    44    38    39    1
    45    87    86    1
    46    52    51    1
    47    86    85    1
    48     2     5    1
    49     2     1    1
    50     5     6    1
    51    41    39   ar
    52    41    43   ar
    53    66    67   ar
    54    66    68   ar
    55    39    40   ar
    56    67    69   ar
    57    68    70   ar
    58     6     7   ar
    59     6     8   ar
    60    43    44   ar
    61     7     9   ar
    62    40    42   ar
    63    69    71   ar
    64     8    10   ar
    65    70    71   ar
    66   101   100    1
    67   101   102    1
    68   100    97    1
    69     9    11   ar
    70    44    42   ar
    71    10    11   ar
    72    11    12    1
    73    79    78    1
    74    75    74    2
    75    74    73    1
    76   102    96    1
    77    97    98    1
    78    97    96    1
    79    56    55    2
    80    98    99    2
    81    77    78    1
    82    77    76    1
    83    55    54    1
    84    59    57    1
    85    96    91   am
    86    73    76    1
    87    73    72    1
    88    54    57    1
    89    54    53    1
    90    57    58    1
    91    91    92    2
    92    91    90    1
    93    90    89    1
    94    90    93    1
    95    58    60    1
    96    94    93    1
    97    93    95    1
