@<TRIPOS>MOLECULE
tmp/3vbmC00.pdb
 106 98 0 0 0
SMALL
GASTEIGER

@<TRIPOS>ATOM
      1  N          3.0490   22.6390    8.6050 N.3    91  THR91      -0.1218
      2  CA         2.9330   22.8880   10.0400 C.3    91  THR91       0.1862
      3  C          2.4950   24.3450   10.3310 C.2    91  THR91       0.2287
      4  O          2.4150   25.2050    9.4210 O.2    91  THR91      -0.2866
      5  CB         4.2420   22.4830   10.8140 C.3    91  THR91       0.1770
      6  OG1        5.2590   23.3970   10.4510 O.3    91  THR91      -0.2211
      7  CG2        4.9450   21.1350   10.5360 C.3    91  THR91       0.0375
      8  N          6.7540   17.9490    3.6200 N.3   132  ILE132     -0.1245
      9  CA         6.4150   18.5180    4.9170 C.3   132  ILE132      0.1561
     10  C          7.1190   19.8770    5.0350 C.2   132  ILE132      0.2260
     11  O          8.3340   19.9910    4.7980 O.2   132  ILE132     -0.2867
     12  CB         6.9080   17.5800    6.0500 C.3   132  ILE132      0.0252
     13  CG1        6.5570   18.1540    7.4260 C.3   132  ILE132      0.0019
     14  CG2        8.4100   17.3300    5.9690 C.3   132  ILE132      0.0019
     15  CD1        5.0540   18.2090    7.6860 C.3   132  ILE132      0.0001
     16  N          7.9760   22.8560    7.6910 N.3   134  GLY134     -0.1210
     17  CA         8.0800   22.9610    9.1560 C.3   134  GLY134      0.1956
     18  C          7.5380   24.3170    9.5440 C.2   134  GLY134      0.2611
     19  O          7.3590   25.1770    8.6650 O.2   134  GLY134     -0.2717
     20  N          7.3180   24.5160   10.8350 N.am  135  ALA135     -0.1979
     21  CA         6.5640   25.6840   11.3510 C.3   135  ALA135      0.1597
     22  C          7.2640   27.0000   11.0970 C.2   135  ALA135      0.2287
     23  O          8.4940   27.0790   11.1060 O.2   135  ALA135     -0.2864
     24  CB         6.2790   25.5680   12.8810 C.3   135  ALA135      0.0319
     25  N         11.4420   17.8580    2.8440 N.3   150  ALA150     -0.1231
     26  CA        11.1160   18.3890    4.1870 C.3   150  ALA150      0.1694
     27  C         11.8200   19.7350    4.2190 C.2   150  ALA150      0.2592
     28  O         12.9860   19.8000    3.8430 O.2   150  ALA150     -0.2718
     29  CB        11.7210   17.5630    5.2830 C.3   150  ALA150      0.0304
     30  N         11.1120   20.7690    4.6530 N.am  151  VAL151     -0.1966
     31  CA        11.7400   22.0670    4.8960 C.3   151  VAL151      0.1727
     32  C         11.6900   22.2820    6.4030 C.2   151  VAL151      0.2617
     33  O         10.6470   22.0330    6.9950 O.2   151  VAL151     -0.2715
     34  CB        10.9520   23.1150    4.0580 C.3   151  VAL151      0.0290
     35  CG1       11.1620   24.4810    4.5610 C.3   151  VAL151      0.0023
     36  CG2       11.3870   22.9550    2.5750 C.3   151  VAL151      0.0023
     37  N         12.8010   22.6950    7.0200 N.am  152  GLY152     -0.1940
     38  CA        12.8500   22.8350    8.4760 C.3   152  GLY152      0.2014
     39  C         12.0240   24.0120    8.9630 C.2   152  GLY152      0.2639
     40  O         11.5370   24.8090    8.1600 O.2   152  GLY152     -0.2714
     41  N         11.8630   24.1330   10.2840 N.am  153  ALA153     -0.1963
     42  CA        11.1630   25.2970   10.8410 C.3   153  ALA153      0.1728
     43  C         11.9080   26.5790   10.4270 C.2   153  ALA153      0.2616
     44  O         13.1490   26.6270   10.1980 O.2   153  ALA153     -0.2715
     45  CB        11.1210   25.1240   12.3850 C.3   153  ALA153      0.0334
     46  N         11.1550   27.6690   10.3910 N.am  154  MET154     -0.1963
     47  CA        11.7120   29.0080   10.1720 C.3   154  MET154      0.1736
     48  C         12.5770   29.0570    8.9220 C.2   154  MET154      0.2617
     49  O         13.6570   29.6610    8.9560 O.2   154  MET154     -0.2715
     50  CB        12.6080   29.4800   11.3040 C.3   154  MET154      0.0427
     51  CG        11.8200   29.3330   12.5940 C.3   154  MET154      0.0599
     52  SD        12.4910   30.3200   13.9400 S.3   154  MET154     -0.1393
     53  CE        11.8130   29.1920   15.1290 C.3   154  MET154      0.0692
     54  N         12.1230   28.4100    7.8540 N.am  155  SER155     -0.1950
     55  CA        12.9120   28.4240    6.6440 C.3   155  SER155      0.1924
     56  C         12.1890   29.2560    5.5700 C.2   155  SER155      0.2314
     57  O         10.9950   29.5120    5.7110 O.2   155  SER155     -0.2863
     58  CB        13.4650   27.0140    6.3790 C.3   155  SER155      0.2116
     59  OG        14.1990   26.5230    7.5180 O.3   155  SER155     -0.2180
     60  N         16.2410   17.2740    2.5370 N.3   166  ILE166     -0.1245
     61  CA        15.8360   18.0920    3.6860 C.3   166  ILE166      0.1561
     62  C         16.6440   19.3790    3.5630 C.2   166  ILE166      0.2260
     63  O         17.8650   19.3360    3.3940 O.2   166  ILE166     -0.2867
     64  CB        16.1850   17.3720    5.0040 C.3   166  ILE166      0.0252
     65  CG1       15.3470   16.1170    5.1750 C.3   166  ILE166      0.0019
     66  CG2       15.9550   18.2830    6.2280 C.3   166  ILE166      0.0019
     67  CD1       15.6220   15.3530    6.4890 C.3   166  ILE166      0.0001
     68  N         17.1280   23.5710    5.1120 N.3   168  VAL168     -0.1231
     69  CA        16.8890   24.4820    6.2490 C.3   168  VAL168      0.1692
     70  C         17.5040   25.8460    5.9400 C.2   168  VAL168      0.2592
     71  O         18.4110   25.9900    5.0880 O.2   168  VAL168     -0.2718
     72  CB        17.5590   23.9500    7.5380 C.3   168  VAL168      0.0266
     73  CG1       16.9560   22.5890    7.8770 C.3   168  VAL168      0.0020
     74  CG2       19.1100   23.8410    7.3440 C.3   168  VAL168      0.0020
     75  N         16.9820   26.8480    6.6440 N.am  169  GLY169     -0.1957
     76  CA        17.6050   28.1620    6.6440 C.3   169  GLY169      0.1869
     77  C         16.9230   29.2280    5.8350 C.2   169  GLY169      0.2309
     78  O         15.8560   29.0340    5.2280 O.2   169  GLY169     -0.2863
     79  N         19.0960   25.8780    2.4140 N.3   173  ARG173     -0.1245
     80  CA        20.2110   25.1580    1.8250 C.3   173  ARG173      0.1563
     81  C         19.8910   23.6860    2.0780 C.2   173  ARG173      0.2260
     82  O         19.1340   23.3280    2.9870 O.2   173  ARG173     -0.2867
     83  CB        21.5530   25.5810    2.4350 C.3   173  ARG173      0.0307
     84  CG        21.7150   25.2260    3.8990 C.3   173  ARG173      0.0489
     85  CD        23.0820   25.6770    4.4280 C.3   173  ARG173      0.2205
     86  NE        23.2710   25.0800    5.7490 N.pl3 173  ARG173     -0.0865
     87  CZ        22.7390   25.5820    6.8550 C.cat 173  ARG173      0.5346
     88  NH1       22.9360   24.9710    8.0240 N.pl3 173  ARG173      0.1354
     89  NH2       22.0020   26.6910    6.7740 N.pl3 173  ARG173      0.1354
     90  N         20.6540   20.0890    3.3150 N.3   175  ILE175     -0.1231
     91  CA        21.5470   19.5290    4.3470 C.3   175  ILE175      0.1692
     92  C         21.7070   18.0110    4.3040 C.2   175  ILE175      0.2591
     93  O         22.7940   17.5600    4.6550 O.2   175  ILE175     -0.2718
     94  CB        21.2290   19.8970    5.8320 C.3   175  ILE175      0.0266
     95  CG1       19.7540   19.7630    6.1600 C.3   175  ILE175      0.0019
     96  CG2       21.6420   21.3250    6.1570 C.3   175  ILE175      0.0020
     97  CD1       19.4720   19.5980    7.6960 C.3   175  ILE175      0.0001
     98  N         20.6730   17.2340    3.9850 N.am  176  LYS176     -0.1980
     99  CA        20.8440   15.7780    3.9680 C.3   176  LYS176      0.1596
    100  C         19.6870   15.1890    3.1490 C.2   176  LYS176      0.2287
    101  O         18.7060   15.8900    2.9180 O.2   176  LYS176     -0.2864
    102  CB        20.8460   15.1700    5.3850 C.3   176  LYS176      0.0298
    103  CG        19.5380   15.4400    6.1190 C.3   176  LYS176      0.0038
    104  CD        19.5140   14.8440    7.5130 C.3   176  LYS176      0.0206
    105  CE        20.5940   15.3350    8.4630 C.3   176  LYS176      0.1093
    106  NZ        19.9900   14.9260    9.7650 N.3   176  LYS176     -0.1314
@<TRIPOS>BOND
     1    80    81    1
     2    80    79    1
     3    80    83    1
     4    81    82    2
     5    83    84    1
     6    60    61    1
     7    36    34    1
     8    25    26    1
     9   101   100    2
    10   100    99    1
    11    90    91    1
    12    63    62    2
    13    62    61    1
    14     8     9    1
    15    61    64    1
    16    28    27    2
    17    84    85    1
    18    99    98    1
    19    99   102    1
    20    98    92   am
    21    34    35    1
    22    34    31    1
    23    26    27    1
    24    26    29    1
    25    27    30   am
    26    92    91    1
    27    92    93    2
    28    91    94    1
    29    85    86    1
    30    30    31    1
    31    11    10    2
    32    31    32    1
    33     9    10    1
    34     9    12    1
    35    64    65    1
    36    64    66    1
    37    71    70    2
    38    68    69    1
    39    65    67    1
    40    78    77    2
    41   102   103    1
    42    56    57    2
    43    56    55    1
    44    86    87    2
    45    94    96    1
    46    94    95    1
    47    77    76    1
    48    70    69    1
    49    70    75   am
    50    14    12    1
    51    12    13    1
    52   103   104    1
    53    95    97    1
    54    69    72    1
    55    58    55    1
    56    58    59    1
    57    32    33    2
    58    32    37   am
    59    75    76    1
    60    55    54    1
    61    89    87    1
    62    87    88    1
    63    37    38    1
    64    74    72    1
    65    13    15    1
    66   104   105    1
    67    72    73    1
    68    16    17    1
    69    54    48   am
    70    40    39    2
    71   105   106    1
    72    38    39    1
    73     1     2    1
    74    19    18    2
    75    48    49    2
    76    48    47    1
    77    39    41   am
    78    17    18    1
    79     4     3    2
    80    18    20   am
    81     2     3    1
    82     2     5    1
    83    47    46    1
    84    47    50    1
    85    44    43    2
    86    41    42    1
    87    46    43   am
    88    43    42    1
    89     6     5    1
    90     7     5    1
    91    20    21    1
    92    42    45    1
    93    22    23    2
    94    22    21    1
    95    50    51    1
    96    21    24    1
    97    51    52    1
    98    52    53    1
