@<TRIPOS>MOLECULE
tmp/3vbqA00.pdb
 190 177 0 0 0
SMALL
GASTEIGER

@<TRIPOS>ATOM
      1  N        -17.3520  -38.2920   -4.4290 N.3    10  LEU10      -0.1231
      2  CA       -18.7270  -38.1030   -4.7600 C.3    10  LEU10       0.1693
      3  C        -18.8640  -36.7120   -5.4550 C.2    10  LEU10       0.2592
      4  O        -19.6980  -36.5450   -6.3430 O.2    10  LEU10      -0.2718
      5  CB       -19.5970  -38.1110   -3.4750 C.3    10  LEU10       0.0284
      6  CG       -19.7460  -39.5120   -2.8490 C.3    10  LEU10       0.0019
      7  CD1      -20.4120  -39.4400   -1.4410 C.3    10  LEU10       0.0001
      8  CD2      -20.5690  -40.4390   -3.7520 C.3    10  LEU10       0.0001
      9  N        -18.0950  -35.6980   -5.0640 N.am   11  GLY11      -0.1957
     10  CA       -18.1560  -34.4310   -5.8600 C.3    11  GLY11       0.1869
     11  C        -17.1420  -33.4690   -5.2800 C.2    11  GLY11       0.2309
     12  O        -16.4880  -33.7660   -4.2200 O.2    11  GLY11      -0.2863
     13  N        -17.6330  -26.0510   -2.2600 N.3    15  PHE15      -0.1241
     14  CA       -17.6110  -26.8750   -0.9770 C.3    15  PHE15       0.1605
     15  C        -16.3880  -27.7410   -0.6070 C.2    15  PHE15       0.2264
     16  O        -16.4930  -28.4480    0.4030 O.2    15  PHE15      -0.2867
     17  CB       -18.8390  -27.7990   -0.9190 C.3    15  PHE15       0.0534
     18  CG       -18.9890  -28.6270   -2.1490 C.ar   15  PHE15      -0.0203
     19  CD1      -18.4760  -29.9250   -2.1880 C.ar   15  PHE15      -0.0042
     20  CD2      -19.5960  -28.0710   -3.3160 C.ar   15  PHE15      -0.0042
     21  CE1      -18.5990  -30.6770   -3.3800 C.ar   15  PHE15      -0.0003
     22  CE2      -19.7030  -28.8040   -4.5040 C.ar   15  PHE15      -0.0003
     23  CZ       -19.1980  -30.1120   -4.5360 C.ar   15  PHE15      -0.0000
     24  N        -15.7330  -34.1210   -1.5310 N.3    18  VAL18      -0.1245
     25  CA       -16.4680  -35.0430   -0.6860 C.3    18  VAL18       0.1561
     26  C        -16.3920  -36.4380   -1.2270 C.2    18  VAL18       0.2260
     27  O        -16.5930  -36.6640   -2.4410 O.2    18  VAL18      -0.2867
     28  CB       -18.0100  -34.7520   -0.6200 C.3    18  VAL18       0.0252
     29  CG1      -18.6440  -35.4440    0.5760 C.3    18  VAL18       0.0019
     30  CG2      -18.2640  -33.2950   -0.5690 C.3    18  VAL18       0.0019
     31  N        -20.0820  -40.0730    4.5330 N.3    31  ALA31      -0.1245
     32  CA       -19.4900  -39.2520    3.4560 C.3    31  ALA31       0.1562
     33  C        -18.3690  -38.5150    4.1770 C.2    31  ALA31       0.2260
     34  O        -18.5260  -38.1240    5.3310 O.2    31  ALA31      -0.2867
     35  CB       -20.5140  -38.2210    2.8690 C.3    31  ALA31       0.0290
     36  N        -16.0440  -35.1790    4.0580 N.3    33  LYS33      -0.1245
     37  CA       -15.9790  -33.8910    3.3600 C.3    33  LYS33       0.1561
     38  C        -14.7650  -33.1040    3.7850 C.2    33  LYS33       0.2260
     39  O        -14.5800  -32.8180    4.9990 O.2    33  LYS33      -0.2867
     40  CB       -17.2420  -33.0590    3.7790 C.3    33  LYS33       0.0271
     41  CG       -17.2780  -31.7280    3.0700 C.3    33  LYS33       0.0035
     42  CD       -18.5830  -30.9590    3.4870 C.3    33  LYS33       0.0206
     43  CE       -18.6330  -29.5840    2.7290 C.3    33  LYS33       0.1093
     44  NZ       -20.0360  -29.0200    2.9410 N.3    33  LYS33      -0.1314
     45  N        -19.6270  -23.9270    9.5870 N.3    55  GLU55      -0.1245
     46  CA       -20.3880  -25.0940    9.1470 C.3    55  GLU55       0.1567
     47  C        -20.4700  -26.1430   10.2380 C.2    55  GLU55       0.2260
     48  O        -21.4880  -26.8090   10.4050 O.2    55  GLU55      -0.2867
     49  CB       -19.7030  -25.7170    7.8910 C.3    55  GLU55       0.0388
     50  CG       -20.4040  -26.9360    7.3380 C.3    55  GLU55       0.1160
     51  CD       -19.8060  -27.4390    6.0060 C.2    55  GLU55       0.3649
     52  OE1      -18.8660  -26.7800    5.4140 O.co2  55  GLU55      -0.2457
     53  OE2      -20.3750  -28.4760    5.5020 O.co2  55  GLU55      -0.2457
     54  N        -23.9750  -27.4500   11.8790 N.3    59  LEU59      -0.1245
     55  CA       -24.3750  -28.8270   11.8440 C.3    59  LEU59       0.1561
     56  C        -24.6510  -29.3370   13.2670 C.2    59  LEU59       0.2260
     57  O        -25.5480  -30.1240   13.4850 O.2    59  LEU59      -0.2867
     58  CB       -23.2720  -29.6750   11.1730 C.3    59  LEU59       0.0270
     59  CG       -23.1520  -29.5630    9.6160 C.3    59  LEU59       0.0019
     60  CD1      -21.8300  -30.1490    9.1020 C.3    59  LEU59       0.0001
     61  CD2      -24.2950  -30.4230    9.0640 C.3    59  LEU59       0.0001
     62  N        -29.0380  -33.5140    7.3340 N.3    70  ILE70      -0.1245
     63  CA       -27.9000  -34.4220    7.4100 C.3    70  ILE70       0.1561
     64  C        -27.2710  -34.3670    8.8060 C.2    70  ILE70       0.2260
     65  O        -27.2050  -33.2830    9.4240 O.2    70  ILE70      -0.2867
     66  CB       -26.8850  -34.0620    6.2820 C.3    70  ILE70       0.0252
     67  CG1      -25.8930  -35.2370    6.0010 C.3    70  ILE70       0.0019
     68  CG2      -26.1370  -32.7910    6.6400 C.3    70  ILE70       0.0019
     69  CD1      -26.5360  -36.3690    5.1870 C.3    70  ILE70       0.0001
     70  N        -19.9280  -37.2380    7.6890 N.3    86  LEU86      -0.1231
     71  CA       -21.3890  -37.0550    7.6330 C.3    86  LEU86       0.1693
     72  C        -22.0530  -38.4210    7.4150 C.2    86  LEU86       0.2592
     73  O        -21.5330  -39.3420    6.7890 O.2    86  LEU86      -0.2718
     74  CB       -21.7720  -36.0950    6.4320 C.3    86  LEU86       0.0284
     75  CG       -21.0920  -34.7420    6.7100 C.3    86  LEU86       0.0019
     76  CD1      -20.6700  -34.0250    5.4620 C.3    86  LEU86       0.0001
     77  CD2      -22.0010  -33.8660    7.6050 C.3    86  LEU86       0.0001
     78  N        -23.2810  -38.5310    7.8590 N.am   87  GLU87      -0.1966
     79  CA       -24.0640  -39.7490    7.5320 C.3    87  GLU87       0.1733
     80  C        -24.2680  -39.8970    6.0420 C.2    87  GLU87       0.2616
     81  O        -24.1730  -38.9190    5.3000 O.2    87  GLU87      -0.2715
     82  CB       -25.4440  -39.6600    8.2770 C.3    87  GLU87       0.0429
     83  CG       -26.5810  -39.3140    7.3930 C.3    87  GLU87       0.1163
     84  CD       -27.8780  -39.0450    8.1640 C.2    87  GLU87       0.3649
     85  OE1      -28.1590  -37.8590    8.4180 O.co2  87  GLU87      -0.2457
     86  OE2      -28.6180  -39.9910    8.4730 O.co2  87  GLU87      -0.2457
     87  N        -24.5070  -41.1040    5.5740 N.am   88  ARG88      -0.1977
     88  CA       -24.7430  -41.3020    4.1320 C.3    88  ARG88       0.1597
     89  C        -25.8080  -42.4180    3.9650 C.2    88  ARG88       0.2287
     90  O        -25.5120  -43.5610    4.1820 O.2    88  ARG88      -0.2864
     91  CB       -23.4210  -41.7470    3.4240 C.3    88  ARG88       0.0334
     92  CG       -23.6090  -42.0910    1.9350 C.3    88  ARG88       0.0492
     93  CD       -22.2600  -42.3310    1.1790 C.3    88  ARG88       0.2205
     94  NE       -21.4340  -43.4380    1.7210 N.pl3  88  ARG88      -0.0865
     95  CZ       -21.5640  -44.7330    1.3840 C.cat  88  ARG88       0.5346
     96  NH1      -22.5560  -45.1550    0.5490 N.pl3  88  ARG88       0.1354
     97  NH2      -20.7050  -45.6590    1.8880 N.pl3  88  ARG88       0.1354
     98  N        -28.8230  -43.8570   -2.4760 N.3    92  VAL92      -0.1231
     99  CA       -29.2040  -42.4540   -2.3800 C.3    92  VAL92       0.1692
    100  C        -29.0640  -41.8860   -3.7540 C.2    92  VAL92       0.2592
    101  O        -28.2490  -42.4010   -4.5740 O.2    92  VAL92      -0.2718
    102  CB       -28.2440  -41.7540   -1.3470 C.3    92  VAL92       0.0266
    103  CG1      -26.8350  -41.5210   -1.8970 C.3    92  VAL92       0.0020
    104  CG2      -28.8400  -40.4680   -0.8230 C.3    92  VAL92       0.0020
    105  N        -29.8270  -40.8420   -4.0840 N.am   93  GLN93      -0.1966
    106  CA       -29.4650  -40.0600   -5.2690 C.3    93  GLN93       0.1733
    107  C        -29.6610  -38.5410   -4.9740 C.2    93  GLN93       0.2616
    108  O        -30.6280  -38.1610   -4.3260 O.2    93  GLN93      -0.2715
    109  CB       -30.3650  -40.4670   -6.4260 C.3    93  GLN93       0.0408
    110  CG       -30.0090  -39.7490   -7.7750 C.3    93  GLN93       0.0908
    111  CD       -30.7910  -40.2290   -8.9860 C.2    93  GLN93       0.2608
    112  OE1      -31.9510  -40.5760   -8.8600 O.2    93  GLN93      -0.2717
    113  NE2      -30.1510  -40.2690  -10.1590 N.am   93  GLN93      -0.0878
    114  N        -28.7820  -37.6900   -5.4600 N.am   94  ASP94      -0.1971
    115  CA       -28.9260  -36.2770   -5.2310 C.3    94  ASP94       0.1709
    116  C        -30.1180  -35.7910   -6.0680 C.2    94  ASP94       0.2293
    117  O        -30.3590  -36.2940   -7.1810 O.2    94  ASP94      -0.2864
    118  CB       -27.6030  -35.6790   -5.6630 C.3    94  ASP94       0.1436
    119  CG       -27.5200  -34.2230   -5.3790 C.2    94  ASP94       0.3671
    120  OD1      -26.8740  -33.7880   -4.3690 O.co2  94  ASP94      -0.2456
    121  OD2      -28.0630  -33.4940   -6.2320 O.co2  94  ASP94      -0.2456
    122  N        -29.5410  -34.7430   -9.6730 N.3    97  ASP97      -0.1239
    123  CA       -29.3570  -35.9210  -10.6160 C.3    97  ASP97       0.1674
    124  C        -30.6540  -36.5880  -10.9710 C.2    97  ASP97       0.2266
    125  O        -30.9000  -36.9340  -12.1130 O.2    97  ASP97      -0.2867
    126  CB       -28.3580  -36.9570  -10.0230 C.3    97  ASP97       0.1410
    127  CG       -26.9700  -36.3820   -9.8680 C.2    97  ASP97       0.3668
    128  OD1      -26.5910  -35.5640  -10.7320 O.co2  97  ASP97      -0.2456
    129  OD2      -26.2030  -36.7100   -8.9120 O.co2  97  ASP97      -0.2456
    130  N        -31.2990  -25.7170   -2.6910 N.3   135  LYS135     -0.1245
    131  CA       -31.3720  -25.9060   -4.1700 C.3   135  LYS135      0.1561
    132  C        -31.3710  -27.4330   -4.3630 C.2   135  LYS135      0.2260
    133  O        -31.0730  -28.1650   -3.3830 O.2   135  LYS135     -0.2867
    134  CB       -30.1280  -25.3160   -4.8880 C.3   135  LYS135      0.0271
    135  CG       -28.7710  -25.8070   -4.4130 C.3   135  LYS135      0.0035
    136  CD       -27.6360  -25.1880   -5.3390 C.3   135  LYS135      0.0206
    137  CE       -26.2400  -25.5060   -4.7880 C.3   135  LYS135      0.1093
    138  NZ       -25.3030  -25.0220   -5.8810 N.3   135  LYS135     -0.1314
    139  N        -29.3660  -29.4360   -5.8230 N.3   137  GLU137     -0.1231
    140  CA       -28.0240  -30.0600   -5.6070 C.3   137  GLU137      0.1699
    141  C        -27.7900  -30.3880   -4.1270 C.2   137  GLU137      0.2592
    142  O        -26.9890  -31.2730   -3.7970 O.2   137  GLU137     -0.2718
    143  CB       -26.9200  -29.0780   -6.1010 C.3   137  GLU137      0.0402
    144  CG       -26.8840  -28.9170   -7.6350 C.3   137  GLU137      0.1161
    145  CD       -25.8370  -27.8800   -8.0530 C.2   137  GLU137      0.3649
    146  OE1      -26.1330  -26.6590   -8.2860 O.co2 137  GLU137     -0.2457
    147  OE2      -24.6710  -28.3190   -8.0920 O.co2 137  GLU137     -0.2457
    148  N        -28.4750  -29.6540   -3.2380 N.am  138  ASN138     -0.1974
    149  CA       -28.2240  -29.8520   -1.8190 C.3   138  ASN138      0.1688
    150  C        -29.3130  -30.6190   -1.1340 C.2   138  ASN138      0.2292
    151  O        -29.5120  -30.4580    0.0930 O.2   138  ASN138     -0.2864
    152  CB       -28.0220  -28.4970   -1.1100 C.3   138  ASN138      0.1181
    153  CG       -26.6500  -27.8740   -1.4500 C.2   138  ASN138      0.2629
    154  OD1      -25.7350  -28.6390   -1.8350 O.2   138  ASN138     -0.2716
    155  ND2      -26.4930  -26.5520   -1.3760 N.am  138  ASN138     -0.0877
    156  N        -30.6150  -34.6670   -0.7770 N.3   140  LEU140     -0.1245
    157  CA       -30.3800  -36.0880   -1.1560 C.3   140  LEU140      0.1561
    158  C        -31.7320  -36.8050   -1.0030 C.2   140  LEU140      0.2260
    159  O        -32.5350  -36.5260   -0.0480 O.2   140  LEU140     -0.2867
    160  CB       -29.4170  -36.8070   -0.1270 C.3   140  LEU140      0.0270
    161  CG       -28.0430  -36.1570   -0.1020 C.3   140  LEU140      0.0019
    162  CD1      -27.2460  -37.0590    0.8890 C.3   140  LEU140      0.0001
    163  CD2      -27.4810  -36.2250   -1.5320 C.3   140  LEU140      0.0001
    164  N        -28.5620  -31.0590    2.8040 N.3   151  ILE151     -0.1231
    165  CA       -27.1070  -31.2000    3.0730 C.3   151  ILE151      0.1692
    166  C        -26.3690  -29.8520    2.7610 C.2   151  ILE151      0.2592
    167  O        -26.9530  -28.8800    2.2630 O.2   151  ILE151     -0.2718
    168  CB       -26.4460  -32.3050    2.1490 C.3   151  ILE151      0.0266
    169  CG1      -26.6810  -32.0010    0.6420 C.3   151  ILE151      0.0019
    170  CG2      -27.0320  -33.6990    2.4870 C.3   151  ILE151      0.0020
    171  CD1      -25.8260  -32.8500   -0.2830 C.3   151  ILE151      0.0001
    172  N        -25.0360  -29.8450    2.9820 N.am  152  ASP152     -0.1960
    173  CA       -24.2110  -28.6920    2.6840 C.3   152  ASP152      0.1840
    174  C        -24.5650  -27.3890    3.3530 C.2   152  ASP152      0.2622
    175  O        -25.1040  -26.4520    2.7240 O.2   152  ASP152     -0.2715
    176  CB       -24.0420  -28.4490    1.1980 C.3   152  ASP152      0.1450
    177  CG       -22.8170  -27.5800    0.9310 C.2   152  ASP152      0.3671
    178  OD1      -22.5590  -27.3150   -0.2660 O.co2 152  ASP152     -0.2456
    179  OD2      -22.1080  -27.1850    1.9220 O.co2 152  ASP152     -0.2456
    180  N        -24.1910  -27.3340    4.6290 N.am  153  PHE153     -0.1974
    181  CA       -24.3320  -26.1170    5.4210 C.3   153  PHE153      0.1639
    182  C        -23.1680  -25.1720    5.2810 C.2   153  PHE153      0.2290
    183  O        -23.0400  -24.2520    6.0710 O.2   153  PHE153     -0.2864
    184  CB       -24.5790  -26.4920    6.8950 C.3   153  PHE153      0.0560
    185  CG       -25.9740  -27.0130    7.1030 C.ar  153  PHE153     -0.0200
    186  CD1      -26.3720  -28.3220    6.6480 C.ar  153  PHE153     -0.0042
    187  CD2      -26.9270  -26.1640    7.7310 C.ar  153  PHE153     -0.0042
    188  CE1      -27.6920  -28.7730    6.8390 C.ar  153  PHE153     -0.0003
    189  CE2      -28.2320  -26.6240    7.8970 C.ar  153  PHE153     -0.0003
    190  CZ       -28.6300  -27.9040    7.4330 C.ar  153  PHE153     -0.0000
@<TRIPOS>BOND
     1   125   124    2
     2   124   123    1
     3   128   127   ar
     4   123   126    1
     5   123   122    1
     6   113   111   am
     7   126   127    1
     8   127   129   ar
     9   111   112    2
    10   111   110    1
    11   146   145   ar
    12   147   145   ar
    13   145   144    1
    14   110   109    1
    15   144   143    1
    16   117   116    2
    17   109   106    1
    18     4     3    2
    19   121   119   ar
    20   143   140    1
    21   116   115    1
    22   138   137    1
    23    10    11    1
    24    10     9    1
    25   139   140    1
    26   118   119    1
    27   118   115    1
    28   140   141    1
    29   114   115    1
    30   114   107   am
    31     3     9   am
    32     3     2    1
    33   119   120   ar
    34   136   137    1
    35   136   135    1
    36    11    12    2
    37   106   107    1
    38   106   105    1
    39   107   108    2
    40   134   135    1
    41   134   131    1
    42     2     1    1
    43     2     5    1
    44   101   100    2
    45    23    22   ar
    46    23    21   ar
    47    22    20   ar
    48   132   131    1
    49   132   133    2
    50   131   130    1
    51   141   142    2
    52   141   148   am
    53   105   100   am
    54   100    99    1
    55     8     6    1
    56     5     6    1
    57    21    19   ar
    58    20    18   ar
    59   148   149    1
    60     6     7    1
    61    98    99    1
    62    27    26    2
    63    99   102    1
    64    13    14    1
    65    19    18   ar
    66    18    17    1
    67   103   102    1
    68   154   153    2
    69   149   150    1
    70   149   152    1
    71   163   161    1
    72    24    25    1
    73   153   155   am
    74   153   152    1
    75   102   104    1
    76    26    25    1
    77   157   158    1
    78   157   156    1
    79   157   160    1
    80   150   151    2
    81   158   159    2
    82    14    17    1
    83    14    15    1
    84    25    28    1
    85    28    30    1
    86    28    29    1
    87    15    16    2
    88   171   169    1
    89   178   177   ar
    90   160   161    1
    91   161   162    1
    92    96    95    1
    93   169   168    1
    94   177   176    1
    95   177   179   ar
    96    93    94    1
    97    93    92    1
    98   176   173    1
    99    95    94    2
   100    95    97    1
   101    92    91    1
   102   168   170    1
   103   168   165    1
   104   167   166    2
   105   173   172    1
   106   173   174    1
   107   175   174    2
   108    43    44    1
   109    43    42    1
   110   166   172   am
   111   166   165    1
   112   164   165    1
   113    35    32    1
   114    41    42    1
   115    41    40    1
   116   174   180   am
   117    37    40    1
   118    37    38    1
   119    37    36    1
   120    91    88    1
   121    32    33    1
   122    32    31    1
   123    38    39    2
   124    89    88    1
   125    89    90    2
   126    88    87    1
   127    33    34    2
   128   180   181    1
   129    69    67    1
   130   182   181    1
   131   182   183    2
   132    81    80    2
   133    52    51   ar
   134   181   184    1
   135    76    75    1
   136    53    51   ar
   137    87    80   am
   138    67    66    1
   139    51    50    1
   140    80    79    1
   141    66    68    1
   142    66    63    1
   143    74    75    1
   144    74    71    1
   145   186   188   ar
   146   186   185   ar
   147    75    77    1
   148    73    72    2
   149   188   190   ar
   150   184   185    1
   151   185   187   ar
   152    62    63    1
   153    50    49    1
   154    83    84    1
   155    83    82    1
   156    63    64    1
   157    72    71    1
   158    72    78   am
   159   190   189   ar
   160    79    78    1
   161    79    82    1
   162    71    70    1
   163   187   189   ar
   164    49    46    1
   165    84    85   ar
   166    84    86   ar
   167    64    65    2
   168    61    59    1
   169    60    59    1
   170    46    45    1
   171    46    47    1
   172    59    58    1
   173    47    48    2
   174    58    55    1
   175    55    54    1
   176    55    56    1
   177    56    57    2
