@<TRIPOS>MOLECULE
tmp/3vbtA00.pdb
 120 110 0 0 0
SMALL
GASTEIGER

@<TRIPOS>ATOM
      1  N        -24.6920  -33.8020    4.7590 N.3    10  LEU10      -0.1231
      2  CA       -23.8080  -34.8730    5.1610 C.3    10  LEU10       0.1693
      3  C        -22.6380  -34.3680    5.9750 C.2    10  LEU10       0.2592
      4  O        -22.2430  -34.9990    6.9150 O.2    10  LEU10      -0.2718
      5  CB       -23.2940  -35.7000    3.9600 C.3    10  LEU10       0.0284
      6  CG       -24.3870  -36.4670    3.1560 C.3    10  LEU10       0.0019
      7  CD1      -23.7500  -37.2380    2.0460 C.3    10  LEU10       0.0001
      8  CD2      -25.1550  -37.4460    4.0260 C.3    10  LEU10       0.0001
      9  N        -22.0700  -33.2310    5.6220 N.am   11  GLY11      -0.1957
     10  CA       -20.9060  -32.7240    6.3410 C.3    11  GLY11       0.1869
     11  C        -20.6160  -31.3520    5.7540 C.2    11  GLY11       0.2309
     12  O        -21.1550  -30.9700    4.6620 O.2    11  GLY11      -0.2863
     13  N        -13.8760  -28.7670    2.5110 N.3    15  PHE15      -0.1241
     14  CA       -14.4200  -29.3330    1.2410 C.3    15  PHE15       0.1605
     15  C        -15.7610  -28.6940    0.8230 C.2    15  PHE15       0.2264
     16  O        -16.3690  -29.0980   -0.1970 O.2    15  PHE15      -0.2867
     17  CB       -14.6430  -30.8520    1.3850 C.3    15  PHE15       0.0534
     18  CG       -15.3800  -31.2550    2.6400 C.ar   15  PHE15      -0.0203
     19  CD1      -16.7770  -31.3080    2.6600 C.ar   15  PHE15      -0.0042
     20  CD2      -14.6630  -31.5550    3.8290 C.ar   15  PHE15      -0.0042
     21  CE1      -17.4690  -31.6700    3.8310 C.ar   15  PHE15      -0.0003
     22  CE2      -15.3360  -31.9340    5.0170 C.ar   15  PHE15      -0.0003
     23  CZ       -16.7550  -32.0000    5.0050 C.ar   15  PHE15      -0.0000
     24  N        -21.7560  -30.6800    1.8700 N.3    18  VAL18      -0.1245
     25  CA       -22.1390  -31.7740    0.9780 C.3    18  VAL18       0.1561
     26  C        -23.4710  -32.2440    1.4760 C.2    18  VAL18       0.2260
     27  O        -23.5950  -32.5410    2.6730 O.2    18  VAL18      -0.2867
     28  CB       -21.1340  -32.9670    1.0350 C.3    18  VAL18       0.0252
     29  CG1      -21.5650  -34.1750    0.1840 C.3    18  VAL18       0.0019
     30  CG2      -19.7480  -32.5350    0.5700 C.3    18  VAL18       0.0019
     31  N        -24.5540  -37.0950   -4.1020 N.3    31  ALA31      -0.1245
     32  CA       -24.1040  -36.2170   -3.0230 C.3    31  ALA31       0.1562
     33  C        -23.9070  -34.9070   -3.7890 C.2    31  ALA31       0.2260
     34  O        -23.4340  -34.9130   -4.9130 O.2    31  ALA31      -0.2867
     35  CB       -22.7990  -36.7300   -2.3320 C.3    31  ALA31       0.0290
     36  N        -22.2770  -31.3670   -3.6320 N.3    33  LYS33      -0.1245
     37  CA       -21.3000  -30.5430   -2.9750 C.3    33  LYS33       0.1561
     38  C        -21.3650  -29.0920   -3.4240 C.2    33  LYS33       0.2260
     39  O        -21.3620  -28.8000   -4.6190 O.2    33  LYS33      -0.2867
     40  CB       -19.9100  -31.0790   -3.2460 C.3    33  LYS33       0.0271
     41  CG       -18.8470  -30.2400   -2.5610 C.3    33  LYS33       0.0035
     42  CD       -17.4450  -30.6000   -3.0790 C.3    33  LYS33       0.0206
     43  CE       -16.8280  -31.6560   -2.2020 C.3    33  LYS33       0.1093
     44  NZ       -15.3420  -31.5000   -2.3180 N.3    33  LYS33      -0.1314
     45  N        -14.6490  -41.5320   -6.4920 N.3    66  ILE66      -0.1245
     46  CA       -15.9600  -40.8830   -6.6260 C.3    66  ILE66       0.1561
     47  C        -16.1660  -40.2640   -8.0350 C.2    66  ILE66       0.2260
     48  O        -15.2850  -39.5210   -8.5300 O.2    66  ILE66      -0.2867
     49  CB       -16.0790  -39.7610   -5.5930 C.3    66  ILE66       0.0252
     50  CG1      -17.5480  -39.6890   -5.1490 C.3    66  ILE66       0.0019
     51  CG2      -15.2180  -38.4680   -5.9930 C.3    66  ILE66       0.0019
     52  CD1      -17.8600  -41.0220   -4.4460 C.3    66  ILE66       0.0001
     53  N        -22.1770  -35.6530   -7.3580 N.3    82  LEU82      -0.1231
     54  CA       -21.2120  -36.7320   -7.2400 C.3    82  LEU82       0.1693
     55  C        -21.9740  -38.0240   -7.0180 C.2    82  LEU82       0.2592
     56  O        -23.0850  -37.9780   -6.5530 O.2    82  LEU82      -0.2718
     57  CB       -20.2680  -36.4570   -6.0430 C.3    82  LEU82       0.0284
     58  CG       -19.3930  -35.2410   -6.2150 C.3    82  LEU82       0.0019
     59  CD1      -18.8700  -34.8750   -4.8570 C.3    82  LEU82       0.0001
     60  CD2      -18.2480  -35.6760   -7.1190 C.3    82  LEU82       0.0001
     61  N        -21.3870  -39.1650   -7.3450 N.am   83  GLU83      -0.1966
     62  CA       -21.9240  -40.4740   -6.9200 C.3    83  GLU83       0.1733
     63  C        -22.1550  -40.5050   -5.4300 C.2    83  GLU83       0.2616
     64  O        -21.3790  -39.9080   -4.6530 O.2    83  GLU83      -0.2715
     65  CB       -20.8470  -41.4950   -7.0270 C.3    83  GLU83       0.0429
     66  CG       -20.6810  -42.2850   -8.2820 C.3    83  GLU83       0.1163
     67  CD       -19.5170  -43.2100   -7.9940 C.2    83  GLU83       0.3649
     68  OE1      -18.4430  -42.9330   -8.5220 O.co2  83  GLU83      -0.2457
     69  OE2      -19.6290  -44.0980   -7.1060 O.co2  83  GLU83      -0.2457
     70  N        -23.1570  -41.2340   -5.0020 N.am   84  ARG84      -0.1977
     71  CA       -23.2560  -41.5700   -3.5710 C.3    84  ARG84       0.1597
     72  C        -23.5890  -43.0460   -3.3740 C.2    84  ARG84       0.2287
     73  O        -24.7170  -43.4520   -3.6390 O.2    84  ARG84      -0.2864
     74  CB       -24.3180  -40.7130   -2.8570 C.3    84  ARG84       0.0334
     75  CG       -24.5650  -41.0740   -1.3950 C.3    84  ARG84       0.0492
     76  CD       -25.5030  -40.0450   -0.7250 C.3    84  ARG84       0.2205
     77  NE       -26.8430  -39.8880   -1.3440 N.pl3  84  ARG84      -0.0865
     78  CZ       -27.9150  -40.6460   -1.0410 C.cat  84  ARG84       0.5346
     79  NH1      -27.8290  -41.6350   -0.1380 N.pl3  84  ARG84       0.1354
     80  NH2      -29.0670  -40.3890   -1.5970 N.pl3  84  ARG84       0.1354
     81  N        -23.1930  -45.9560    3.2290 N.3    88  VAL88      -0.1245
     82  CA       -21.8100  -45.5220    3.0840 C.3    88  VAL88       0.1561
     83  C        -21.3140  -45.0530    4.4320 C.2    88  VAL88       0.2260
     84  O        -22.1050  -44.6220    5.2340 O.2    88  VAL88      -0.2867
     85  CB       -21.7230  -44.3740    2.0460 C.3    88  VAL88       0.0252
     86  CG1      -22.4430  -43.1270    2.5800 C.3    88  VAL88       0.0019
     87  CG2      -20.2890  -44.0260    1.7330 C.3    88  VAL88       0.0019
     88  N        -10.5330  -39.7000    6.3730 N.3   133  GLU133     -0.1245
     89  CA       -11.6940  -38.8220    6.1340 C.3   133  GLU133      0.1567
     90  C        -12.0270  -38.6670    4.6350 C.2   133  GLU133      0.2260
     91  O        -13.1380  -38.3140    4.2650 O.2   133  GLU133     -0.2867
     92  CB       -11.4150  -37.4280    6.6940 C.3   133  GLU133      0.0388
     93  CG       -11.2260  -37.4110    8.1940 C.3   133  GLU133      0.1160
     94  CD       -10.8410  -36.0260    8.6630 C.2   133  GLU133      0.3649
     95  OE1       -9.6940  -35.6400    8.5130 O.co2 133  GLU133     -0.2457
     96  OE2      -11.7170  -35.3020    9.1220 O.co2 133  GLU133     -0.2457
     97  N        -14.4250  -43.2150    1.3040 N.3   136  LEU136     -0.1245
     98  CA       -15.7580  -43.7310    1.5770 C.3   136  LEU136      0.1561
     99  C        -15.7290  -45.1980    1.3820 C.2   136  LEU136      0.2260
    100  O        -15.1310  -45.6830    0.4520 O.2   136  LEU136     -0.2867
    101  CB       -16.8540  -43.1710    0.6270 C.3   136  LEU136      0.0270
    102  CG       -16.9260  -41.6440    0.8150 C.3   136  LEU136      0.0019
    103  CD1      -18.0910  -41.1050   -0.0390 C.3   136  LEU136      0.0001
    104  CD2      -17.0160  -41.2470    2.3160 C.3   136  LEU136      0.0001
    105  N        -12.4830  -39.4810   -2.1450 N.3   147  ILE147     -0.1231
    106  CA       -13.3010  -38.3000   -2.3730 C.3   147  ILE147      0.1692
    107  C        -12.4420  -37.0820   -2.0550 C.2   147  ILE147      0.2592
    108  O        -11.3170  -37.1960   -1.5320 O.2   147  ILE147     -0.2718
    109  CB       -14.5720  -38.2810   -1.4550 C.3   147  ILE147      0.0266
    110  CG1      -14.1510  -38.4630   -0.0010 C.3   147  ILE147      0.0019
    111  CG2      -15.5640  -39.3680   -1.8820 C.3   147  ILE147      0.0020
    112  CD1      -15.1580  -37.9500    1.0470 C.3   147  ILE147      0.0001
    113  N        -13.0070  -35.9200   -2.3640 N.am  148  ASP148     -0.1974
    114  CA       -12.4580  -34.6270   -1.9880 C.3   148  ASP148      0.1709
    115  C        -11.0780  -34.3160   -2.6100 C.2   148  ASP148      0.2293
    116  O        -10.0230  -34.2460   -1.9330 O.2   148  ASP148     -0.2864
    117  CB       -12.5470  -34.3790   -0.4840 C.3   148  ASP148      0.1436
    118  CG       -13.9970  -34.0260   -0.0210 C.2   148  ASP148      0.3671
    119  OD1      -14.9220  -33.7460   -0.8550 O.co2 148  ASP148     -0.2456
    120  OD2      -14.2160  -34.0590    1.2010 O.co2 148  ASP148     -0.2456
@<TRIPOS>BOND
     1    48    47    2
     2    68    67   ar
     3    66    67    1
     4    66    65    1
     5    47    46    1
     6    67    69   ar
     7    53    54    1
     8    61    55   am
     9    61    62    1
    10    54    55    1
    11    54    57    1
    12    60    58    1
    13    65    62    1
    14    55    56    2
    15    62    63    1
    16    46    45    1
    17    46    49    1
    18    58    57    1
    19    58    59    1
    20    51    49    1
    21    49    50    1
    22    63    70   am
    23    63    64    2
    24    50    52    1
    25    70    71    1
    26    34    33    2
    27    39    38    2
    28    31    32    1
    29    33    32    1
    30    73    72    2
    31    36    37    1
    32    71    72    1
    33    71    74    1
    34    38    37    1
    35    40    37    1
    36    40    41    1
    37    42    41    1
    38    42    43    1
    39    32    35    1
    40    74    75    1
    41   115   114    1
    42   115   116    2
    43   106   105    1
    44   106   107    1
    45   106   109    1
    46   113   107   am
    47   113   114    1
    48    44    43    1
    49   107   108    2
    50   114   117    1
    51   111   109    1
    52    80    78    1
    53   109   110    1
    54    75    76    1
    55    77    78    2
    56    77    76    1
    57    78    79    1
    58   119   118   ar
    59   117   118    1
    60    16    15    2
    61   103   102    1
    62   118   120   ar
    63   110   112    1
    64    29    28    1
    65   100    99    2
    66    30    28    1
    67   101   102    1
    68   101    98    1
    69   102   104    1
    70    15    14    1
    71    25    28    1
    72    25    26    1
    73    25    24    1
    74    14    17    1
    75    14    13    1
    76    97    98    1
    77    99    98    1
    78    17    18    1
    79    26    27    2
    80    87    85    1
    81     7     6    1
    82    85    86    1
    83    85    82    1
    84    18    19   ar
    85    18    20   ar
    86    19    21   ar
    87    82    81    1
    88    82    83    1
    89     6     5    1
    90     6     8    1
    91    20    22   ar
    92    21    23   ar
    93     5     2    1
    94    91    90    2
    95    83    84    2
    96    90    89    1
    97    12    11    2
    98     1     2    1
    99    23    22   ar
   100     2     3    1
   101     9     3   am
   102     9    10    1
   103    11    10    1
   104     3     4    2
   105    89    88    1
   106    89    92    1
   107    92    93    1
   108    93    94    1
   109    95    94   ar
   110    94    96   ar
