@<TRIPOS>MOLECULE
tmp/3vbvA00.pdb
 139 129 0 0 0
SMALL
GASTEIGER

@<TRIPOS>ATOM
      1  N         16.9070   38.2930   -4.6840 N.3    10  LEU10      -0.1231
      2  CA        18.3030   38.0820   -5.0740 C.3    10  LEU10       0.1693
      3  C         18.4650   36.7860   -5.8130 C.2    10  LEU10       0.2592
      4  O         19.2990   36.6720   -6.6900 O.2    10  LEU10      -0.2718
      5  CB        19.2400   38.1070   -3.8600 C.3    10  LEU10       0.0284
      6  CG        19.3060   39.4400   -3.0710 C.3    10  LEU10       0.0019
      7  CD1       20.2280   39.3660   -1.8350 C.3    10  LEU10       0.0001
      8  CD2       19.7960   40.5390   -3.9930 C.3    10  LEU10       0.0001
      9  N         17.6860   35.7850   -5.4610 N.am   11  GLY11      -0.1957
     10  CA        17.8120   34.5170   -6.1320 C.3    11  GLY11       0.1869
     11  C         16.8480   33.5620   -5.5190 C.2    11  GLY11       0.2309
     12  O         16.2090   33.8570   -4.4550 O.2    11  GLY11      -0.2863
     13  N         17.8930   26.3530   -2.4030 N.3    15  PHE15      -0.1241
     14  CA        18.0300   27.0480   -1.0730 C.3    15  PHE15       0.1605
     15  C         16.7630   27.8110   -0.6330 C.2    15  PHE15       0.2264
     16  O         16.6820   28.2460    0.5050 O.2    15  PHE15      -0.2867
     17  CB        19.2570   28.0040   -1.0380 C.3    15  PHE15       0.0534
     18  CG        19.3210   28.9610   -2.2080 C.ar   15  PHE15      -0.0203
     19  CD1       18.8010   30.2510   -2.1030 C.ar   15  PHE15      -0.0042
     20  CD2       19.8940   28.5590   -3.4380 C.ar   15  PHE15      -0.0042
     21  CE1       18.8590   31.1340   -3.1940 C.ar   15  PHE15      -0.0003
     22  CE2       19.9410   29.4380   -4.5340 C.ar   15  PHE15      -0.0003
     23  CZ        19.4250   30.7310   -4.4040 C.ar   15  PHE15      -0.0000
     24  N         15.6520   34.2050   -1.7040 N.3    18  VAL18      -0.1245
     25  CA        16.4490   35.1330   -0.8560 C.3    18  VAL18       0.1561
     26  C         16.2170   36.4950   -1.3740 C.2    18  VAL18       0.2260
     27  O         16.3600   36.7080   -2.5900 O.2    18  VAL18      -0.2867
     28  CB        17.9480   34.8460   -0.9190 C.3    18  VAL18       0.0252
     29  CG1       18.7600   35.6900    0.0970 C.3    18  VAL18       0.0019
     30  CG2       18.1780   33.3870   -0.5610 C.3    18  VAL18       0.0019
     31  N         19.9060   39.8100    4.3070 N.3    31  ALA31      -0.1245
     32  CA        19.3460   38.9150    3.3040 C.3    31  ALA31       0.1562
     33  C         18.2500   38.1620    4.0630 C.2    31  ALA31       0.2260
     34  O         18.4340   37.7640    5.2290 O.2    31  ALA31      -0.2867
     35  CB        20.4150   37.9360    2.6570 C.3    31  ALA31       0.0290
     36  N         15.8390   35.0570    3.8260 N.3    33  LYS33      -0.1245
     37  CA        15.7880   33.7880    3.1430 C.3    33  LYS33       0.1561
     38  C         14.5730   32.9910    3.5860 C.2    33  LYS33       0.2260
     39  O         14.3870   32.7490    4.7900 O.2    33  LYS33      -0.2867
     40  CB        17.0540   32.9990    3.4210 C.3    33  LYS33       0.0271
     41  CG        17.0750   31.6230    2.7740 C.3    33  LYS33       0.0035
     42  CD        18.4640   31.0170    3.1120 C.3    33  LYS33       0.0206
     43  CE        18.7360   29.6900    2.4490 C.3    33  LYS33       0.1093
     44  NZ        20.1700   29.2520    2.6200 N.3    33  LYS33      -0.1314
     45  N         19.4850   23.7290    9.0450 N.3    52  GLU52      -0.1245
     46  CA        20.2360   24.8930    8.6270 C.3    52  GLU52       0.1567
     47  C         20.3810   25.9230    9.7500 C.2    52  GLU52       0.2260
     48  O         21.4320   26.5590    9.9280 O.2    52  GLU52      -0.2867
     49  CB        19.5660   25.5100    7.3770 C.3    52  GLU52       0.0388
     50  CG        20.3140   26.7090    6.8430 C.3    52  GLU52       0.1160
     51  CD        19.6390   27.2380    5.5600 C.2    52  GLU52       0.3649
     52  OE1       18.6650   26.6130    5.0710 O.co2  52  GLU52      -0.2457
     53  OE2       20.0950   28.2950    5.0720 O.co2  52  GLU52      -0.2457
     54  N         23.7760   27.0940   11.5440 N.3    56  LEU56      -0.1245
     55  CA        24.1260   28.5210   11.5560 C.3    56  LEU56       0.1561
     56  C         24.3300   29.0350   12.9360 C.2    56  LEU56       0.2260
     57  O         25.2030   29.8880   13.1550 O.2    56  LEU56      -0.2867
     58  CB        23.0570   29.3710   10.8220 C.3    56  LEU56       0.0270
     59  CG        23.0810   29.3210    9.2670 C.3    56  LEU56       0.0019
     60  CD1       21.7700   29.8220    8.6760 C.3    56  LEU56       0.0001
     61  CD2       24.3100   29.9870    8.6300 C.3    56  LEU56       0.0001
     62  N         28.6540   33.5640    6.7900 N.3    67  ILE67      -0.1245
     63  CA        27.5200   34.4790    6.9360 C.3    67  ILE67       0.1561
     64  C         26.8840   34.2320    8.3320 C.2    67  ILE67       0.2260
     65  O         26.8400   33.0830    8.8510 O.2    67  ILE67      -0.2867
     66  CB        26.5250   34.3870    5.7590 C.3    67  ILE67       0.0252
     67  CG1       27.0800   35.0750    4.5360 C.3    67  ILE67       0.0019
     68  CG2       25.3090   35.2850    5.8980 C.3    67  ILE67       0.0019
     69  CD1       26.8900   36.5660    4.5290 C.3    67  ILE67       0.0001
     70  N         19.6930   36.9660    7.5370 N.3    83  LEU83      -0.1231
     71  CA        21.1060   36.7190    7.4540 C.3    83  LEU83       0.1693
     72  C         21.8280   38.0350    7.1950 C.2    83  LEU83       0.2592
     73  O         21.2730   38.9730    6.6440 O.2    83  LEU83      -0.2718
     74  CB        21.4080   35.6750    6.3200 C.3    83  LEU83       0.0284
     75  CG        20.8470   34.3140    6.7650 C.3    83  LEU83       0.0019
     76  CD1       20.1390   33.6730    5.6430 C.3    83  LEU83       0.0001
     77  CD2       21.9690   33.4000    7.2620 C.3    83  LEU83       0.0001
     78  N         23.0930   38.0770    7.5570 N.am   84  GLU84      -0.1966
     79  CA        23.9760   39.1560    7.1480 C.3    84  GLU84       0.1733
     80  C         23.9580   39.3590    5.6630 C.2    84  GLU84       0.2616
     81  O         23.8810   38.3700    4.9010 O.2    84  GLU84      -0.2715
     82  CB        25.3880   38.6750    7.3530 C.3    84  GLU84       0.0429
     83  CG        26.1830   39.2480    8.4580 C.3    84  GLU84       0.1163
     84  CD        27.6210   38.7680    8.2260 C.2    84  GLU84       0.3649
     85  OE1       28.3940   39.4120    7.4700 O.co2  84  GLU84      -0.2457
     86  OE2       27.9080   37.6440    8.6600 O.co2  84  GLU84      -0.2457
     87  N         24.1280   40.5960    5.2270 N.am   85  ARG85      -0.1977
     88  CA        24.3340   40.8140    3.7820 C.3    85  ARG85       0.1597
     89  C         25.4260   41.8820    3.5310 C.2    85  ARG85       0.2287
     90  O         25.1970   43.0610    3.7890 O.2    85  ARG85      -0.2864
     91  CB        23.0270   41.2930    3.1030 C.3    85  ARG85       0.0334
     92  CG        23.2030   41.6500    1.6330 C.3    85  ARG85       0.0492
     93  CD        21.9240   42.0440    0.9010 C.3    85  ARG85       0.2205
     94  NE        21.0970   43.1060    1.4820 N.pl3  85  ARG85      -0.0865
     95  CZ        21.2280   44.4010    1.1880 C.cat  85  ARG85       0.5346
     96  NH1       22.1890   44.7950    0.3230 N.pl3  85  ARG85       0.1354
     97  NH2       20.3850   45.3000    1.7160 N.pl3  85  ARG85       0.1354
     98  N         28.3540   43.0650   -2.9700 N.3    89  VAL89      -0.1245
     99  CA        28.6760   41.6720   -2.8380 C.3    89  VAL89       0.1561
    100  C         28.4560   41.0500   -4.2160 C.2    89  VAL89       0.2260
    101  O         27.6800   41.5840   -4.9810 O.2    89  VAL89      -0.2867
    102  CB        27.7720   41.0090   -1.7640 C.3    89  VAL89       0.0252
    103  CG1       26.3270   40.9180   -2.2350 C.3    89  VAL89       0.0019
    104  CG2       28.2330   39.6200   -1.4980 C.3    89  VAL89       0.0019
    105  N         30.2340   34.2330   -1.0090 N.3   137  LEU137     -0.1245
    106  CA        29.9370   35.6090   -1.3120 C.3   137  LEU137      0.1561
    107  C         31.2470   36.3030   -1.1510 C.2   137  LEU137      0.2260
    108  O         32.0010   36.0010   -0.2370 O.2   137  LEU137     -0.2867
    109  CB        28.9150   36.2450   -0.3050 C.3   137  LEU137      0.0270
    110  CG        27.5410   35.5740   -0.4800 C.3   137  LEU137      0.0019
    111  CD1       26.5960   36.3140    0.4570 C.3   137  LEU137      0.0001
    112  CD2       27.0720   35.5740   -1.9850 C.3   137  LEU137      0.0001
    113  N         28.0100   30.6520    2.5250 N.3   148  ILE148     -0.1231
    114  CA        26.5840   30.7630    2.7510 C.3   148  ILE148      0.1692
    115  C         25.9740   29.4180    2.4140 C.2   148  ILE148      0.2592
    116  O         26.6120   28.5310    1.8630 O.2   148  ILE148     -0.2718
    117  CB        25.8540   31.8400    1.8420 C.3   148  ILE148      0.0266
    118  CG1       26.2020   31.6140    0.3730 C.3   148  ILE148      0.0019
    119  CG2       26.3480   33.2520    2.2460 C.3   148  ILE148      0.0020
    120  CD1       25.2820   32.3290   -0.6880 C.3   148  ILE148      0.0001
    121  N         24.7110   29.3190    2.7750 N.am  149  ASP149     -0.1960
    122  CA        23.8560   28.2090    2.4540 C.3   149  ASP149      0.1840
    123  C         24.2710   26.8990    3.0510 C.2   149  ASP149      0.2622
    124  O         24.8550   26.0030    2.3790 O.2   149  ASP149     -0.2715
    125  CB        23.6180   28.0790    0.9880 C.3   149  ASP149      0.1450
    126  CG        22.3740   27.2880    0.7070 C.2   149  ASP149      0.3671
    127  OD1       22.1640   27.1550   -0.5020 O.co2 149  ASP149     -0.2456
    128  OD2       21.6390   26.7770    1.6620 O.co2 149  ASP149     -0.2456
    129  N         23.8860   26.7780    4.3090 N.am  150  PHE150     -0.1974
    130  CA        24.1180   25.5850    5.0820 C.3   150  PHE150      0.1639
    131  C         22.9760   24.5940    4.9940 C.2   150  PHE150      0.2290
    132  O         22.9410   23.6030    5.7590 O.2   150  PHE150     -0.2864
    133  CB        24.3970   25.9710    6.5280 C.3   150  PHE150      0.0560
    134  CG        25.7640   26.5580    6.7220 C.ar  150  PHE150     -0.0200
    135  CD1       26.0650   27.8680    6.3220 C.ar  150  PHE150     -0.0042
    136  CD2       26.7810   25.7930    7.3440 C.ar  150  PHE150     -0.0042
    137  CE1       27.3520   28.4020    6.5020 C.ar  150  PHE150     -0.0003
    138  CE2       28.0390   26.3510    7.5460 C.ar  150  PHE150     -0.0003
    139  CZ        28.3270   27.6350    7.1270 C.ar  150  PHE150     -0.0000
@<TRIPOS>BOND
     1     4     3    2
     2    10    11    1
     3    10     9    1
     4     3     9   am
     5     3     2    1
     6    11    12    2
     7     2     1    1
     8     2     5    1
     9   101   100    2
    10    22    23   ar
    11    22    20   ar
    12    23    21   ar
    13   100    99    1
    14     8     6    1
    15     5     6    1
    16    20    18   ar
    17    21    19   ar
    18     6     7    1
    19    98    99    1
    20    99   102    1
    21    27    26    2
    22    13    14    1
    23   103   102    1
    24    18    19   ar
    25    18    17    1
    26   112   110    1
    27   102   104    1
    28    24    25    1
    29    26    25    1
    30   106   107    1
    31   106   105    1
    32   106   109    1
    33   107   108    2
    34    14    17    1
    35    14    15    1
    36    28    25    1
    37    28    30    1
    38    28    29    1
    39   120   118    1
    40    15    16    2
    41   127   126   ar
    42   110   109    1
    43   110   111    1
    44    96    95    1
    45   118   117    1
    46   126   125    1
    47   126   128   ar
    48    93    94    1
    49    93    92    1
    50   125   122    1
    51    95    94    2
    52    95    97    1
    53    92    91    1
    54   117   119    1
    55   117   114    1
    56   116   115    2
    57   124   123    2
    58   115   114    1
    59   115   121   am
    60    43    44    1
    61    43    42    1
    62   122   121    1
    63   122   123    1
    64   113   114    1
    65    35    32    1
    66    41    42    1
    67    41    40    1
    68   123   129   am
    69    91    88    1
    70    37    40    1
    71    37    38    1
    72    37    36    1
    73    32    33    1
    74    32    31    1
    75    89    88    1
    76    89    90    2
    77    38    39    2
    78    88    87    1
    79    33    34    2
    80   129   130    1
    81    69    67    1
    82    67    66    1
    83    81    80    2
    84   131   130    1
    85   131   132    2
    86    52    51   ar
    87    53    51   ar
    88   130   133    1
    89    87    80   am
    90    51    50    1
    91    76    75    1
    92    80    79    1
    93    66    68    1
    94    66    63    1
    95    74    75    1
    96    74    71    1
    97   135   137   ar
    98   135   134   ar
    99   137   139   ar
   100   133   134    1
   101    73    72    2
   102   134   136   ar
   103    75    77    1
   104    62    63    1
   105    50    49    1
   106    63    64    1
   107   139   138   ar
   108    79    82    1
   109    79    78    1
   110    72    71    1
   111    72    78   am
   112   136   138   ar
   113    82    83    1
   114    49    46    1
   115    71    70    1
   116    85    84   ar
   117    84    83    1
   118    84    86   ar
   119    64    65    2
   120    46    45    1
   121    46    47    1
   122    61    59    1
   123    60    59    1
   124    59    58    1
   125    47    48    2
   126    58    55    1
   127    54    55    1
   128    55    56    1
   129    56    57    2
