@<TRIPOS>MOLECULE
tmp/3vbwA00.pdb
 105 95 0 0 0
SMALL
GASTEIGER

@<TRIPOS>ATOM
      1  N         17.0110   38.2160   -4.6370 N.3    10  LEU10      -0.1245
      2  CA        18.3650   37.8570   -5.1200 C.3    10  LEU10       0.1561
      3  C         18.4660   36.5730   -5.9660 C.2    10  LEU10       0.2260
      4  O         19.4830   36.3300   -6.6430 O.2    10  LEU10      -0.2867
      5  CB        19.3730   37.8290   -3.9630 C.3    10  LEU10       0.0270
      6  CG        19.4730   39.1280   -3.1060 C.3    10  LEU10       0.0019
      7  CD1       20.4350   38.9610   -1.9400 C.3    10  LEU10       0.0001
      8  CD2       19.8350   40.3650   -3.9030 C.3    10  LEU10       0.0001
      9  N         15.5200   34.1740   -1.6360 N.3    14  VAL14      -0.1245
     10  CA        16.2940   34.9800   -0.7340 C.3    14  VAL14       0.1561
     11  C         16.1120   36.4100   -1.2230 C.2    14  VAL14       0.2260
     12  O         16.3000   36.6410   -2.4120 O.2    14  VAL14      -0.2867
     13  CB        17.7840   34.6380   -0.8830 C.3    14  VAL14       0.0252
     14  CG1       18.6700   35.5600   -0.0480 C.3    14  VAL14       0.0019
     15  CG2       18.0130   33.1960   -0.4960 C.3    14  VAL14       0.0019
     16  N         19.8130   39.8650    4.1960 N.3    27  ALA27      -0.1245
     17  CA        19.1920   38.9660    3.2160 C.3    27  ALA27       0.1562
     18  C         18.1830   38.1920    4.0220 C.2    27  ALA27       0.2260
     19  O         18.4650   37.8040    5.1230 O.2    27  ALA27      -0.2867
     20  CB        20.2080   38.0120    2.5470 C.3    27  ALA27       0.0290
     21  N         15.7410   35.0180    3.9760 N.3    29  LYS29      -0.1245
     22  CA        15.6750   33.7790    3.2580 C.3    29  LYS29       0.1561
     23  C         14.4530   33.0140    3.6480 C.2    29  LYS29       0.2260
     24  O         14.2080   32.7950    4.8010 O.2    29  LYS29      -0.2867
     25  CB        16.9320   32.9550    3.5510 C.3    29  LYS29       0.0271
     26  CG        16.9430   31.6820    2.7560 C.3    29  LYS29       0.0035
     27  CD        18.0540   30.7470    3.1710 C.3    29  LYS29       0.0206
     28  CE        18.0370   29.6080    2.1700 C.3    29  LYS29       0.1093
     29  NZ        19.3230   28.9030    2.1190 N.3    29  LYS29      -0.1314
     30  N         19.2510   23.5700    8.9900 N.3    48  GLU48      -0.1245
     31  CA        19.9710   24.7510    8.5370 C.3    48  GLU48       0.1567
     32  C         20.0800   25.8650    9.6120 C.2    48  GLU48       0.2260
     33  O         21.1620   26.4990    9.7920 O.2    48  GLU48      -0.2867
     34  CB        19.3490   25.2780    7.2570 C.3    48  GLU48       0.0388
     35  CG        20.0630   26.4700    6.6480 C.3    48  GLU48       0.1160
     36  CD        19.3590   26.9500    5.4010 C.2    48  GLU48       0.3649
     37  OE1       18.4320   26.2440    4.9890 O.co2  48  GLU48      -0.2457
     38  OE2       19.7590   27.9900    4.8140 O.co2  48  GLU48      -0.2457
     39  N         28.5420   33.8360    6.4720 N.3    63  ILE63      -0.1245
     40  CA        27.4460   34.7930    6.6280 C.3    63  ILE63       0.1561
     41  C         26.6630   34.3840    7.8740 C.2    63  ILE63       0.2260
     42  O         26.2010   33.2100    7.9450 O.2    63  ILE63      -0.2867
     43  CB        26.4530   34.7080    5.4850 C.3    63  ILE63       0.0252
     44  CG1       26.9750   35.4390    4.2590 C.3    63  ILE63       0.0019
     45  CG2       25.0540   35.1390    5.9700 C.3    63  ILE63       0.0019
     46  CD1       27.3710   36.8820    4.4780 C.3    63  ILE63       0.0001
     47  N         19.7470   36.9480    7.5090 N.3    79  LEU79      -0.1231
     48  CA        21.1770   36.7440    7.3890 C.3    79  LEU79       0.1693
     49  C         21.8600   38.0740    7.0750 C.2    79  LEU79       0.2592
     50  O         21.2250   39.0090    6.5920 O.2    79  LEU79      -0.2718
     51  CB        21.4150   35.7560    6.2290 C.3    79  LEU79       0.0284
     52  CG        20.8150   34.4040    6.5830 C.3    79  LEU79       0.0019
     53  CD1       20.2850   33.6450    5.3850 C.3    79  LEU79       0.0001
     54  CD2       21.8860   33.5960    7.2930 C.3    79  LEU79       0.0001
     55  N         23.1610   38.1450    7.3430 N.am   80  GLU80      -0.1966
     56  CA        24.0090   39.2740    6.9300 C.3    80  GLU80       0.1733
     57  C         23.9770   39.4200    5.4290 C.2    80  GLU80       0.2616
     58  O         23.7810   38.4320    4.7190 O.2    80  GLU80      -0.2715
     59  CB        25.4370   39.0230    7.3640 C.3    80  GLU80       0.0429
     60  CG        25.6540   38.9900    8.8670 C.3    80  GLU80       0.1163
     61  CD        27.1250   38.8450    9.1870 C.2    80  GLU80       0.3649
     62  OE1       27.6800   37.7570    9.0040 O.co2  80  GLU80      -0.2457
     63  OE2       27.7630   39.8380    9.5630 O.co2  80  GLU80      -0.2457
     64  N         24.0750   40.6550    4.9560 N.am   81  ARG81      -0.1977
     65  CA        24.3190   40.9360    3.5420 C.3    81  ARG81       0.1597
     66  C         25.3080   42.0810    3.3880 C.2    81  ARG81       0.2287
     67  O         24.9920   43.2040    3.7340 O.2    81  ARG81      -0.2864
     68  CB        23.0430   41.2570    2.7630 C.3    81  ARG81       0.0334
     69  CG        23.3180   41.5490    1.2760 C.3    81  ARG81       0.0492
     70  CD        22.0700   42.0140    0.5290 C.3    81  ARG81       0.2205
     71  NE        21.2120   42.9850    1.2630 N.pl3  81  ARG81      -0.0865
     72  CZ        21.2410   44.3020    1.0700 C.cat  81  ARG81       0.5346
     73  NH1       22.1370   44.7860    0.2170 N.pl3  81  ARG81       0.1354
     74  NH2       20.4210   45.1330    1.7440 N.pl3  81  ARG81       0.1354
     75  N         28.0770   43.1800   -3.0190 N.3    85  VAL85      -0.1245
     76  CA        28.4490   41.7790   -2.9520 C.3    85  VAL85       0.1561
     77  C         28.3710   41.1190   -4.3380 C.2    85  VAL85       0.2260
     78  O         27.6550   41.5660   -5.1940 O.2    85  VAL85      -0.2867
     79  CB        27.5450   41.0670   -1.9330 C.3    85  VAL85       0.0252
     80  CG1       26.0980   40.9440   -2.4620 C.3    85  VAL85       0.0019
     81  CG2       28.1390   39.7250   -1.6080 C.3    85  VAL85       0.0019
     82  N         30.0660   34.1750   -1.2110 N.3   133  LEU133     -0.1245
     83  CA        29.9170   35.5750   -1.4830 C.3   133  LEU133      0.1561
     84  C         31.2300   36.2580   -1.2760 C.2   133  LEU133      0.2260
     85  O         31.9760   35.9420   -0.3310 O.2   133  LEU133     -0.2867
     86  CB        28.8900   36.2360   -0.5960 C.3   133  LEU133      0.0270
     87  CG        27.5390   35.5500   -0.7590 C.3   133  LEU133      0.0019
     88  CD1       26.5430   36.3760    0.0940 C.3   133  LEU133      0.0001
     89  CD2       27.1110   35.3280   -2.2260 C.3   133  LEU133      0.0001
     90  N         27.8480   30.7510    2.3320 N.3   144  ILE144     -0.1231
     91  CA        26.4110   30.7990    2.5490 C.3   144  ILE144      0.1692
     92  C         25.8170   29.4240    2.3200 C.2   144  ILE144      0.2592
     93  O         26.4750   28.5210    1.7940 O.2   144  ILE144     -0.2718
     94  CB        25.7130   31.7710    1.5730 C.3   144  ILE144      0.0266
     95  CG1       26.1130   31.4330    0.1300 C.3   144  ILE144      0.0019
     96  CG2       26.0330   33.2360    1.9310 C.3   144  ILE144      0.0020
     97  CD1       25.2110   32.0310   -0.9380 C.3   144  ILE144      0.0001
     98  N         24.5580   29.2850    2.7390 N.am  145  ASP145     -0.1974
     99  CA        23.7480   28.1180    2.4500 C.3   145  ASP145      0.1709
    100  C         24.1310   26.7920    3.0920 C.2   145  ASP145      0.2293
    101  O         24.6960   25.8850    2.4260 O.2   145  ASP145     -0.2864
    102  CB        23.6090   27.9230    0.9530 C.3   145  ASP145      0.1436
    103  CG        22.3480   27.2060    0.5980 C.2   145  ASP145      0.3671
    104  OD1       22.1180   27.1030   -0.5960 O.co2 145  ASP145     -0.2456
    105  OD2       21.5840   26.7460    1.4860 O.co2 145  ASP145     -0.2456
@<TRIPOS>BOND
     1     4     3    2
     2     3     2    1
     3    78    77    2
     4     2     1    1
     5     2     5    1
     6    77    76    1
     7     5     6    1
     8     8     6    1
     9     6     7    1
    10    75    76    1
    11    76    79    1
    12    80    79    1
    13    12    11    2
    14    89    87    1
    15    79    81    1
    16     9    10    1
    17    83    84    1
    18    83    82    1
    19    83    86    1
    20    84    85    2
    21    11    10    1
    22    97    95    1
    23    13    10    1
    24    13    15    1
    25    13    14    1
    26    87    86    1
    27    87    88    1
    28   104   103   ar
    29    95    94    1
    30    73    72    1
    31    70    71    1
    32    70    69    1
    33   103   102    1
    34   103   105   ar
    35   102    99    1
    36    72    71    2
    37    72    74    1
    38    69    68    1
    39    94    96    1
    40    94    91    1
    41    93    92    2
    42    29    28    1
    43    28    27    1
    44    92    91    1
    45    92    98   am
    46    90    91    1
    47   101   100    2
    48    99    98    1
    49    99   100    1
    50    20    17    1
    51    26    27    1
    52    26    25    1
    53    68    65    1
    54    17    18    1
    55    17    16    1
    56    22    25    1
    57    22    23    1
    58    22    21    1
    59    66    65    1
    60    66    67    2
    61    65    64    1
    62    23    24    2
    63    18    19    2
    64    44    46    1
    65    44    43    1
    66    58    57    2
    67    38    36   ar
    68    64    57   am
    69    37    36   ar
    70    53    52    1
    71    36    35    1
    72    57    56    1
    73    43    45    1
    74    43    40    1
    75    51    52    1
    76    51    48    1
    77    39    40    1
    78    52    54    1
    79    50    49    2
    80    40    41    1
    81    35    34    1
    82    56    55    1
    83    56    59    1
    84    49    55   am
    85    49    48    1
    86    34    31    1
    87    59    60    1
    88    48    47    1
    89    41    42    2
    90    31    30    1
    91    31    32    1
    92    60    61    1
    93    62    61   ar
    94    61    63   ar
    95    32    33    2
