@<TRIPOS>MOLECULE
tmp/3vbxA00.pdb
 123 114 0 0 0
SMALL
GASTEIGER

@<TRIPOS>ATOM
      1  N        -24.7890  -33.8490    4.7090 N.3    10  LEU10      -0.1245
      2  CA       -23.9010  -34.9350    5.1830 C.3    10  LEU10       0.1561
      3  C        -22.7450  -34.3990    5.9980 C.2    10  LEU10       0.2260
      4  O        -22.2370  -35.0480    6.8970 O.2    10  LEU10      -0.2867
      5  CB       -23.3710  -35.8100    4.0090 C.3    10  LEU10       0.0270
      6  CG       -24.5410  -36.4220    3.1490 C.3    10  LEU10       0.0019
      7  CD1      -24.0970  -37.0850    1.7860 C.3    10  LEU10       0.0001
      8  CD2      -25.1790  -37.4390    3.9850 C.3    10  LEU10       0.0001
      9  N        -13.9410  -28.6520    2.3250 N.3    15  PHE15      -0.1241
     10  CA       -14.4000  -29.1480    0.9910 C.3    15  PHE15       0.1605
     11  C        -15.7420  -28.5180    0.5840 C.2    15  PHE15       0.2264
     12  O        -16.2260  -28.7820   -0.5410 O.2    15  PHE15      -0.2867
     13  CB       -14.6000  -30.6740    1.0360 C.3    15  PHE15       0.0534
     14  CG       -15.4570  -31.1240    2.2240 C.ar   15  PHE15      -0.0203
     15  CD1      -16.8480  -31.2340    2.1060 C.ar   15  PHE15      -0.0042
     16  CD2      -14.8520  -31.3870    3.4850 C.ar   15  PHE15      -0.0042
     17  CE1      -17.6630  -31.6200    3.2380 C.ar   15  PHE15      -0.0003
     18  CE2      -15.6540  -31.7750    4.6390 C.ar   15  PHE15      -0.0003
     19  CZ       -17.0700  -31.8990    4.4890 C.ar   15  PHE15      -0.0000
     20  N        -21.9380  -30.6700    1.7410 N.3    18  VAL18      -0.1245
     21  CA       -22.2910  -31.7610    0.8630 C.3    18  VAL18       0.1561
     22  C        -23.6270  -32.2500    1.3660 C.2    18  VAL18       0.2260
     23  O        -23.7720  -32.5170    2.6030 O.2    18  VAL18      -0.2867
     24  CB       -21.2990  -32.9650    0.9880 C.3    18  VAL18       0.0252
     25  CG1      -21.7310  -34.0910    0.0300 C.3    18  VAL18       0.0019
     26  CG2      -19.9050  -32.5560    0.5950 C.3    18  VAL18       0.0019
     27  N        -24.6000  -37.1450   -4.3440 N.3    31  ALA31      -0.1245
     28  CA       -24.1930  -36.2070   -3.2980 C.3    31  ALA31       0.1562
     29  C        -24.0520  -34.9390   -4.0800 C.2    31  ALA31       0.2260
     30  O        -23.6300  -34.9760   -5.2210 O.2    31  ALA31      -0.2867
     31  CB       -22.7940  -36.5980   -2.6140 C.3    31  ALA31       0.0290
     32  N        -22.5040  -31.2970   -3.8330 N.3    33  LYS33      -0.1245
     33  CA       -21.4830  -30.5670   -3.1230 C.3    33  LYS33       0.1561
     34  C        -21.3810  -29.1550   -3.6160 C.2    33  LYS33       0.2260
     35  O        -21.2510  -28.9310   -4.8450 O.2    33  LYS33      -0.2867
     36  CB       -20.1400  -31.2610   -3.3810 C.3    33  LYS33       0.0271
     37  CG       -18.9380  -30.5560   -2.7560 C.3    33  LYS33       0.0035
     38  CD       -17.6830  -31.4570   -3.0440 C.3    33  LYS33       0.0206
     39  CE       -16.3860  -30.9710   -2.4290 C.3    33  LYS33       0.1093
     40  NZ       -15.3410  -32.0370   -2.5770 N.3    33  LYS33      -0.1314
     41  N        -10.8220  -28.5690   -8.9900 N.3    52  GLU52      -0.1245
     42  CA       -11.4440  -29.8140   -8.5170 C.3    52  GLU52       0.1567
     43  C        -12.3180  -30.4030   -9.6460 C.2    52  GLU52       0.2260
     44  O        -12.3480  -31.6020   -9.8500 O.2    52  GLU52      -0.2867
     45  CB       -12.2430  -29.5530   -7.2400 C.3    52  GLU52       0.0388
     46  CG       -13.0950  -30.7110   -6.8380 C.3    52  GLU52       0.1160
     47  CD       -13.9010  -30.4480   -5.5220 C.2    52  GLU52       0.3649
     48  OE1      -13.8790  -29.3520   -5.0050 O.co2  52  GLU52      -0.2457
     49  OE2      -14.5200  -31.3770   -5.0430 O.co2  52  GLU52      -0.2457
     50  N        -15.0270  -41.6760   -6.5280 N.3    67  ILE67      -0.1245
     51  CA       -16.3890  -41.1470   -6.7200 C.3    67  ILE67       0.1561
     52  C        -16.4330  -40.3080   -8.0530 C.2    67  ILE67       0.2260
     53  O        -15.6060  -39.3410   -8.2250 O.2    67  ILE67      -0.2867
     54  CB       -16.8240  -40.2760   -5.4920 C.3    67  ILE67       0.0252
     55  CG1      -17.1440  -41.1140   -4.2900 C.3    67  ILE67       0.0019
     56  CG2      -18.0390  -39.4530   -5.7340 C.3    67  ILE67       0.0019
     57  CD1      -18.2450  -42.1370   -4.4740 C.3    67  ILE67       0.0001
     58  N        -22.1940  -35.6750   -7.5010 N.3    83  LEU83      -0.1231
     59  CA       -21.2420  -36.7320   -7.4010 C.3    83  LEU83       0.1693
     60  C        -22.0250  -38.0120   -7.1750 C.2    83  LEU83       0.2592
     61  O        -23.1520  -37.9850   -6.7390 O.2    83  LEU83      -0.2718
     62  CB       -20.3150  -36.4480   -6.1880 C.3    83  LEU83       0.0284
     63  CG       -19.4370  -35.3180   -6.6380 C.3    83  LEU83       0.0019
     64  CD1      -19.3090  -34.4710   -5.5290 C.3    83  LEU83       0.0001
     65  CD2      -18.0580  -35.8260   -7.0960 C.3    83  LEU83       0.0001
     66  N        -21.4010  -39.1360   -7.4120 N.am   84  GLU84      -0.1966
     67  CA       -21.9820  -40.4390   -7.0480 C.3    84  GLU84       0.1733
     68  C        -22.1510  -40.5740   -5.5660 C.2    84  GLU84       0.2616
     69  O        -21.3800  -39.9790   -4.8070 O.2    84  GLU84      -0.2715
     70  CB       -20.9710  -41.5010   -7.4100 C.3    84  GLU84       0.0429
     71  CG       -20.9710  -41.7870   -8.8560 C.3    84  GLU84       0.1163
     72  CD       -20.1010  -43.0260   -9.1300 C.2    84  GLU84       0.3649
     73  OE1      -18.8950  -43.0180   -8.8020 O.co2  84  GLU84      -0.2457
     74  OE2      -20.6760  -44.0210   -9.5890 O.co2  84  GLU84      -0.2457
     75  N        -23.1310  -41.3220   -5.1300 N.am   85  ARG85      -0.1964
     76  CA       -23.2620  -41.5650   -3.6770 C.3    85  ARG85       0.1714
     77  C        -23.6510  -43.0000   -3.4530 C.2    85  ARG85       0.2458
     78  O        -24.7680  -43.3920   -3.8050 O.2    85  ARG85      -0.2730
     79  CB       -24.3320  -40.6370   -3.0240 C.3    85  ARG85       0.0347
     80  CG       -24.6350  -40.9630   -1.5490 C.3    85  ARG85       0.0492
     81  CD       -25.6420  -40.0010   -0.8890 C.3    85  ARG85       0.2205
     82  NE       -26.9760  -39.9160   -1.5060 N.pl3  85  ARG85      -0.0865
     83  CZ       -28.0100  -40.7220   -1.2070 C.cat  85  ARG85       0.5346
     84  NH1      -27.8880  -41.7620   -0.3400 N.pl3  85  ARG85       0.1354
     85  NH2      -29.1680  -40.5020   -1.7890 N.pl3  85  ARG85       0.1354
     86  N        -22.7220  -43.8090   -2.8970 N.am   86  PRO86      -0.2727
     87  CA       -23.0160  -45.2060   -2.4740 C.3    86  PRO86       0.1402
     88  C        -24.0010  -45.1440   -1.3470 C.2    86  PRO86       0.2269
     89  O        -24.0480  -44.1660   -0.5390 O.2    86  PRO86      -0.2865
     90  CB       -21.6890  -45.7110   -1.9120 C.3    86  PRO86       0.0296
     91  CG       -20.6350  -44.7380   -2.3880 C.3    86  PRO86       0.0237
     92  CD       -21.2790  -43.4660   -2.8010 C.3    86  PRO86       0.0939
     93  N        -23.2320  -46.1320    3.0920 N.3    89  VAL89      -0.1245
     94  CA       -21.8630  -45.6700    2.9450 C.3    89  VAL89       0.1561
     95  C        -21.4090  -45.1850    4.3320 C.2    89  VAL89       0.2260
     96  O        -22.2370  -44.8520    5.1730 O.2    89  VAL89      -0.2867
     97  CB       -21.8030  -44.5170    1.8960 C.3    89  VAL89       0.0252
     98  CG1      -22.5450  -43.2660    2.4510 C.3    89  VAL89       0.0019
     99  CG2      -20.3330  -44.1100    1.5630 C.3    89  VAL89       0.0019
    100  N        -14.5850  -43.2060    1.1160 N.3   137  LEU137     -0.1245
    101  CA       -15.8790  -43.6930    1.4060 C.3   137  LEU137      0.1561
    102  C        -15.8140  -45.1770    1.2150 C.2   137  LEU137      0.2260
    103  O        -15.1800  -45.6730    0.2590 O.2   137  LEU137     -0.2867
    104  CB       -16.9540  -43.0860    0.5180 C.3   137  LEU137      0.0270
    105  CG       -16.9940  -41.5640    0.5710 C.3   137  LEU137      0.0019
    106  CD1      -18.1580  -41.0470   -0.4300 C.3   137  LEU137      0.0001
    107  CD2      -17.2700  -41.1820    2.0740 C.3   137  LEU137      0.0001
    108  N        -12.6280  -39.4620   -2.3880 N.3   148  ILE148     -0.1231
    109  CA       -13.4080  -38.2650   -2.6250 C.3   148  ILE148      0.1692
    110  C        -12.5150  -37.0850   -2.3330 C.2   148  ILE148      0.2588
    111  O        -11.4340  -37.2630   -1.8020 O.2   148  ILE148     -0.2718
    112  CB       -14.6860  -38.1840   -1.6850 C.3   148  ILE148      0.0266
    113  CG1      -14.2570  -38.4520   -0.2240 C.3   148  ILE148      0.0019
    114  CG2      -15.6840  -39.2720   -2.1200 C.3   148  ILE148      0.0020
    115  CD1      -15.3190  -37.8610    0.8830 C.3   148  ILE148      0.0001
    116  N        -13.0120  -35.8980   -2.7040 N.am  149  ASP149     -0.2027
    117  CA       -12.4040  -34.5690   -2.4260 C.3   149  ASP149      0.1395
    118  C        -11.0340  -34.2950   -2.9880 C.3   149  ASP149      0.2041
    119  O         -9.9400  -34.2900   -2.3070 O.3   149  ASP149     -0.2185
    120  CB       -12.5110  -34.0920   -0.9900 C.3   149  ASP149      0.1383
    121  CG       -12.1690  -32.5900   -0.8440 C.2   149  ASP149      0.3667
    122  OD1      -12.3540  -31.7580   -1.8080 O.co2 149  ASP149     -0.2456
    123  OD2      -11.6900  -32.2730    0.2700 O.co2 149  ASP149     -0.2456
@<TRIPOS>BOND
     1    44    43    2
     2    43    42    1
     3    74    72   ar
     4    72    71    1
     5    72    73   ar
     6    41    42    1
     7    71    70    1
     8    42    45    1
     9    53    52    2
    10    52    51    1
    11    58    59    1
    12    66    60   am
    13    66    67    1
    14    70    67    1
    15    59    60    1
    16    59    62    1
    17    45    46    1
    18    60    61    2
    19    65    63    1
    20    67    68    1
    21    46    47    1
    22    51    50    1
    23    51    54    1
    24    63    62    1
    25    63    64    1
    26    56    54    1
    27    68    75   am
    28    68    69    2
    29    47    49   ar
    30    47    48   ar
    31    54    55    1
    32    30    29    2
    33    75    76    1
    34    35    34    2
    35    57    55    1
    36    27    28    1
    37    29    28    1
    38    32    33    1
    39    78    77    2
    40    76    77    1
    41    76    79    1
    42    34    33    1
    43    77    86   am
    44    36    33    1
    45    36    37    1
    46    28    31    1
    47    38    37    1
    48    38    39    1
    49    79    80    1
    50   118   117    1
    51   118   119    1
    52    86    92    1
    53    86    87    1
    54    92    91    1
    55   116   117    1
    56   116   110   am
    57   109   108    1
    58   109   110    1
    59   109   112    1
    60    40    39    1
    61    87    90    1
    62    87    88    1
    63   117   120    1
    64    91    90    1
    65   110   111    2
    66   114   112    1
    67   122   121   ar
    68    85    83    1
    69   112   113    1
    70    80    81    1
    71    82    83    2
    72    82    81    1
    73    88    89    2
    74    83    84    1
    75   120   121    1
    76   121   123   ar
    77    12    11    2
    78   106   105    1
    79   113   115    1
    80    25    24    1
    81   103   102    2
    82   104   105    1
    83   104   101    1
    84   105   107    1
    85    11    10    1
    86    26    24    1
    87    21    24    1
    88    21    22    1
    89    21    20    1
    90    10    13    1
    91    10     9    1
    92    13    14    1
    93   100   101    1
    94   102   101    1
    95    22    23    2
    96    99    97    1
    97     7     6    1
    98    97    98    1
    99    97    94    1
   100    15    14   ar
   101    15    17   ar
   102    14    16   ar
   103    94    93    1
   104    94    95    1
   105     6     8    1
   106     6     5    1
   107    17    19   ar
   108    16    18   ar
   109     5     2    1
   110    95    96    2
   111    19    18   ar
   112     1     2    1
   113     2     3    1
   114     3     4    2
