@<TRIPOS>MOLECULE
tmp/3vbyA00.pdb
 131 121 0 0 0
SMALL
GASTEIGER

@<TRIPOS>ATOM
      1  N         16.9860   38.2270   -4.5920 N.3    10  LEU10      -0.1245
      2  CA        18.3470   37.9890   -5.0470 C.3    10  LEU10       0.1561
      3  C         18.4470   36.7140   -5.8490 C.2    10  LEU10       0.2260
      4  O         19.1170   36.6820   -6.8810 O.2    10  LEU10      -0.2867
      5  CB        19.3540   37.9630   -3.8940 C.3    10  LEU10       0.0270
      6  CG        19.3700   39.2490   -3.0490 C.3    10  LEU10       0.0019
      7  CD1       20.3110   39.1200   -1.8490 C.3    10  LEU10       0.0001
      8  CD2       19.7230   40.4690   -3.9160 C.3    10  LEU10       0.0001
      9  N         17.3440   26.1400   -2.1890 N.3    15  PHE15      -0.1241
     10  CA        17.4370   26.7560   -0.8210 C.3    15  PHE15       0.1605
     11  C         16.1980   27.6270   -0.4610 C.2    15  PHE15       0.2264
     12  O         16.0480   28.0690    0.7050 O.2    15  PHE15      -0.2867
     13  CB        18.6730   27.6430   -0.7200 C.3    15  PHE15       0.0534
     14  CG        18.8780   28.5230   -1.9340 C.ar   15  PHE15      -0.0203
     15  CD1       18.2850   29.7740   -1.9990 C.ar   15  PHE15      -0.0042
     16  CD2       19.6540   28.0700   -3.0200 C.ar   15  PHE15      -0.0042
     17  CE1       18.4370   30.5770   -3.1120 C.ar   15  PHE15      -0.0003
     18  CE2       19.8190   28.8250   -4.1350 C.ar   15  PHE15      -0.0003
     19  CZ        19.2090   30.1070   -4.1820 C.ar   15  PHE15      -0.0000
     20  N         15.7550   34.1620   -1.6710 N.3    18  VAL18      -0.1245
     21  CA        16.5530   35.0690   -0.8180 C.3    18  VAL18       0.1561
     22  C         16.2750   36.4550   -1.2920 C.2    18  VAL18       0.2260
     23  O         16.4880   36.7120   -2.4760 O.2    18  VAL18      -0.2867
     24  CB        18.0960   34.8530   -0.9050 C.3    18  VAL18       0.0252
     25  CG1       18.8410   35.7080    0.1560 C.3    18  VAL18       0.0019
     26  CG2       18.4190   33.4840   -0.6140 C.3    18  VAL18       0.0019
     27  N         19.9250   39.6680    4.2860 N.3    31  ALA31      -0.1245
     28  CA        19.3150   38.7870    3.3010 C.3    31  ALA31       0.1562
     29  C         18.2650   38.0960    4.1110 C.2    31  ALA31       0.2260
     30  O         18.5120   37.7650    5.2870 O.2    31  ALA31      -0.2867
     31  CB        20.3420   37.7360    2.7200 C.3    31  ALA31       0.0290
     32  N         15.7060   34.9580    3.8730 N.3    33  LYS33      -0.1245
     33  CA        15.5630   33.7260    3.1500 C.3    33  LYS33       0.1561
     34  C         14.4080   32.9250    3.6760 C.2    33  LYS33       0.2260
     35  O         14.3280   32.6170    4.8550 O.2    33  LYS33      -0.2867
     36  CB        16.8440   32.8900    3.2260 C.3    33  LYS33       0.0271
     37  CG        16.6990   31.5630    2.4590 C.3    33  LYS33       0.0035
     38  CD        18.0240   30.7640    2.4240 C.3    33  LYS33       0.0206
     39  CE        18.1930   29.8080    3.5680 C.3    33  LYS33       0.1093
     40  NZ        17.1630   28.7020    3.5640 N.3    33  LYS33      -0.1314
     41  N         19.3550   23.6330    9.0320 N.3    51  GLU51      -0.1245
     42  CA        20.1290   24.7870    8.6310 C.3    51  GLU51       0.1567
     43  C         20.2610   25.7650    9.7670 C.2    51  GLU51       0.2260
     44  O         21.3240   26.3680    9.9590 O.2    51  GLU51      -0.2867
     45  CB        19.4820   25.4340    7.4190 C.3    51  GLU51       0.0388
     46  CG        20.2540   26.5400    6.7660 C.3    51  GLU51       0.1160
     47  CD        19.4830   27.1540    5.5500 C.2    51  GLU51       0.3649
     48  OE1       18.2580   26.9340    5.3800 O.co2  51  GLU51      -0.2457
     49  OE2       20.1180   27.8900    4.7830 O.co2  51  GLU51      -0.2457
     50  N         28.4950   33.7270    6.4150 N.3    66  ILE66      -0.1245
     51  CA        27.3330   34.6380    6.5550 C.3    66  ILE66       0.1561
     52  C         26.5840   34.2210    7.8340 C.2    66  ILE66       0.2260
     53  O         26.1570   33.0410    7.9360 O.2    66  ILE66      -0.2867
     54  CB        26.3510   34.5670    5.3570 C.3    66  ILE66       0.0252
     55  CG1       26.9030   35.2180    4.0970 C.3    66  ILE66       0.0019
     56  CG2       24.9880   35.2340    5.6910 C.3    66  ILE66       0.0019
     57  CD1       27.3370   36.7100    4.2520 C.3    66  ILE66       0.0001
     58  N         19.7620   36.9530    7.6680 N.3    82  LEU82      -0.1231
     59  CA        21.2040   36.7240    7.5510 C.3    82  LEU82       0.1693
     60  C         21.9100   38.0310    7.2670 C.2    82  LEU82       0.2592
     61  O         21.3210   38.9790    6.7860 O.2    82  LEU82      -0.2718
     62  CB        21.5200   35.7260    6.4140 C.3    82  LEU82       0.0284
     63  CG        20.8460   34.3770    6.4980 C.3    82  LEU82       0.0019
     64  CD1       20.5260   33.9620    5.1110 C.3    82  LEU82       0.0001
     65  CD2       21.7420   33.3480    7.2600 C.3    82  LEU82       0.0001
     66  N         23.1880   38.0620    7.5600 N.am   83  GLU83      -0.1966
     67  CA        24.0400   39.1520    7.1280 C.3    83  GLU83       0.1733
     68  C         24.0210   39.3440    5.6440 C.2    83  GLU83       0.2616
     69  O         23.8990   38.3680    4.8570 O.2    83  GLU83      -0.2715
     70  CB        25.4630   38.8180    7.4890 C.3    83  GLU83       0.0429
     71  CG        25.6990   38.8310    8.9400 C.3    83  GLU83       0.1163
     72  CD        27.1940   38.7700    9.1900 C.2    83  GLU83       0.3649
     73  OE1       27.8470   37.7560    8.7340 O.co2  83  GLU83      -0.2457
     74  OE2       27.6880   39.7730    9.7910 O.co2  83  GLU83      -0.2457
     75  N         24.1400   40.5880    5.2580 N.am   84  ARG84      -0.1964
     76  CA        24.3510   40.9220    3.8620 C.3    84  ARG84       0.1714
     77  C         25.4430   41.9640    3.7290 C.2    84  ARG84       0.2458
     78  O         25.2480   43.1280    4.0850 O.2    84  ARG84      -0.2730
     79  CB        23.0740   41.4200    3.1600 C.3    84  ARG84       0.0347
     80  CG        23.2740   41.6770    1.6880 C.3    84  ARG84       0.0492
     81  CD        21.9420   42.0010    1.0280 C.3    84  ARG84       0.2205
     82  NE        21.1680   43.0830    1.6830 N.pl3  84  ARG84      -0.0865
     83  CZ        21.2730   44.3650    1.3280 C.cat  84  ARG84       0.5346
     84  NH1       22.1370   44.7020    0.3610 N.pl3  84  ARG84       0.1354
     85  NH2       20.5400   45.3070    1.9000 N.pl3  84  ARG84       0.1354
     86  N         26.6010   41.5280    3.2420 N.am   85  PRO85      -0.2727
     87  CA        27.6910   42.4180    2.7700 C.3    85  PRO85       0.1402
     88  C         27.1920   43.2250    1.5870 C.2    85  PRO85       0.2269
     89  O         26.3150   42.7630    0.8140 O.2    85  PRO85      -0.2865
     90  CB        28.7660   41.4380    2.2580 C.3    85  PRO85       0.0296
     91  CG        28.3140   40.0350    2.6640 C.3    85  PRO85       0.0237
     92  CD        26.8760   40.0790    3.0570 C.3    85  PRO85       0.0939
     93  N         28.1750   42.8630   -2.9380 N.3    88  VAL88      -0.1245
     94  CA        28.5380   41.4590   -2.8380 C.3    88  VAL88       0.1561
     95  C         28.3410   40.8200   -4.1940 C.2    88  VAL88       0.2260
     96  O         27.4760   41.2820   -4.9690 O.2    88  VAL88      -0.2867
     97  CB        27.6780   40.7760   -1.7550 C.3    88  VAL88       0.0252
     98  CG1       26.2480   40.5220   -2.2400 C.3    88  VAL88       0.0019
     99  CG2       28.2930   39.5500   -1.3040 C.3    88  VAL88       0.0019
    100  N         28.2640   29.0940   -3.5670 N.3   134  ASN134     -0.1240
    101  CA        28.0300   29.1740   -2.1450 C.3   134  ASN134      0.1653
    102  C         29.0580   29.9680   -1.4570 C.2   134  ASN134      0.2266
    103  O         29.2460   29.8710   -0.2260 O.2   134  ASN134     -0.2867
    104  CB        27.8290   27.7950   -1.5040 C.3   134  ASN134      0.1155
    105  CG        26.5240   27.1540   -1.9370 C.2   134  ASN134      0.2627
    106  OD1       25.6200   27.8740   -2.3620 O.2   134  ASN134     -0.2716
    107  ND2       26.4040   25.8080   -1.8470 N.am  134  ASN134     -0.0877
    108  N         30.3100   34.0010   -1.1450 N.3   136  LEU136     -0.1245
    109  CA        30.0390   35.3670   -1.4980 C.3   136  LEU136      0.1561
    110  C         31.2910   36.1420   -1.2760 C.2   136  LEU136      0.2260
    111  O         32.0300   35.8630   -0.3460 O.2   136  LEU136     -0.2867
    112  CB        28.9630   35.9270   -0.6030 C.3   136  LEU136      0.0270
    113  CG        27.6030   35.2310   -0.7570 C.3   136  LEU136      0.0019
    114  CD1       26.6160   35.9990    0.2010 C.3   136  LEU136      0.0001
    115  CD2       27.0780   35.1860   -2.2380 C.3   136  LEU136      0.0001
    116  N         27.9340   30.5640    2.3390 N.3   147  ILE147     -0.1231
    117  CA        26.5030   30.6050    2.4700 C.3   147  ILE147      0.1692
    118  C         25.9550   29.2230    2.1850 C.2   147  ILE147      0.2592
    119  O         26.6630   28.3320    1.6630 O.2   147  ILE147     -0.2718
    120  CB        25.8220   31.6280    1.4740 C.3   147  ILE147      0.0266
    121  CG1       26.1270   31.2750    0.0290 C.3   147  ILE147      0.0019
    122  CG2       26.2380   33.0330    1.7960 C.3   147  ILE147      0.0020
    123  CD1       25.2220   31.9730   -1.0320 C.3   147  ILE147      0.0001
    124  N         24.6710   29.0830    2.5000 N.am  148  ASP148     -0.1974
    125  CA        23.8820   27.9020    2.1950 C.3   148  ASP148      0.1709
    126  C         24.3130   26.6420    2.9470 C.2   148  ASP148      0.2293
    127  O         24.9180   25.7590    2.3760 O.2   148  ASP148     -0.2864
    128  CB        23.6660   27.6860    0.6850 C.3   148  ASP148      0.1436
    129  CG        22.5460   26.6920    0.3900 C.2   148  ASP148      0.3671
    130  OD1       22.3090   26.3930   -0.7860 O.co2 148  ASP148     -0.2456
    131  OD2       21.8900   26.1640    1.3110 O.co2 148  ASP148     -0.2456
@<TRIPOS>BOND
     1     4     3    2
     2     3     2    1
     3     2     1    1
     4     2     5    1
     5    96    95    2
     6    95    94    1
     7    19    18   ar
     8    19    17   ar
     9    18    16   ar
    10     8     6    1
    11     5     6    1
    12   100   101    1
    13    17    15   ar
    14     6     7    1
    15    16    14   ar
    16    93    94    1
    17    94    97    1
    18    23    22    2
    19   106   105    2
    20    98    97    1
    21   115   113    1
    22     9    10    1
    23   101   104    1
    24   101   102    1
    25    15    14   ar
    26   105   107   am
    27   105   104    1
    28    14    13    1
    29    97    99    1
    30    20    21    1
    31   109   110    1
    32   109   108    1
    33   109   112    1
    34   102   103    2
    35    22    21    1
    36   110   111    2
    37   123   121    1
    38    24    21    1
    39    24    26    1
    40    24    25    1
    41    10    13    1
    42    10    11    1
    43   130   129   ar
    44   113   112    1
    45   113   114    1
    46    11    12    2
    47   121   120    1
    48    84    83    1
    49   129   128    1
    50   129   131   ar
    51   128   125    1
    52    89    88    2
    53    81    82    1
    54    81    80    1
    55    83    82    2
    56    83    85    1
    57   120   122    1
    58   120   117    1
    59    88    87    1
    60   119   118    2
    61    80    79    1
    62   118   117    1
    63   118   124   am
    64   125   124    1
    65   125   126    1
    66    90    91    1
    67    90    87    1
    68   116   117    1
    69   127   126    2
    70    38    37    1
    71    38    39    1
    72    37    36    1
    73    91    92    1
    74    31    28    1
    75    87    86    1
    76    92    86    1
    77    33    36    1
    78    33    34    1
    79    33    32    1
    80    79    76    1
    81    86    77   am
    82    28    29    1
    83    28    27    1
    84    40    39    1
    85    34    35    2
    86    77    76    1
    87    77    78    2
    88    76    75    1
    89    55    57    1
    90    55    54    1
    91    29    30    2
    92    49    47   ar
    93    69    68    2
    94    64    63    1
    95    75    68   am
    96    54    56    1
    97    54    51    1
    98    48    47   ar
    99    47    46    1
   100    68    67    1
   101    62    63    1
   102    62    59    1
   103    50    51    1
   104    63    65    1
   105    51    52    1
   106    46    45    1
   107    61    60    2
   108    67    70    1
   109    67    66    1
   110    60    59    1
   111    60    66   am
   112    45    42    1
   113    70    71    1
   114    59    58    1
   115    52    53    2
   116    42    41    1
   117    42    43    1
   118    73    72   ar
   119    71    72    1
   120    72    74   ar
   121    43    44    2
