@<TRIPOS>MOLECULE
tmp/3vc1E01.pdb
 260 254 0 0 0
SMALL
GASTEIGER

@<TRIPOS>ATOM
      1  N         42.5630   32.4340   64.3040 N.3    14  TYR14      -0.1227
      2  CA        43.1480   31.6320   65.3610 C.3    14  TYR14       0.1736
      3  C         42.0830   31.3730   66.4360 C.2    14  TYR14       0.2595
      4  O         41.9040   30.2360   66.8840 O.2    14  TYR14      -0.2718
      5  CB        44.3580   32.3290   66.0240 C.3    14  TYR14       0.0548
      6  CG        44.8320   31.5270   67.2490 C.ar   14  TYR14      -0.0200
      7  CD1       45.8180   30.5550   67.1350 C.ar   14  TYR14      -0.0009
      8  CD2       44.2630   31.7250   68.4760 C.ar   14  TYR14      -0.0009
      9  CE1       46.2310   29.7870   68.2480 C.ar   14  TYR14       0.0417
     10  CE2       44.6700   30.9980   69.5890 C.ar   14  TYR14       0.0417
     11  CZ        45.6630   30.0190   69.4640 C.ar   14  TYR14       0.1957
     12  OH        46.0250   29.3010   70.6030 O.3    14  TYR14      -0.2866
     13  N         41.3620   32.4140   66.8340 N.am   15  TRP15      -0.1976
     14  CA        40.4200   32.2570   67.9500 C.3    15  TRP15       0.1640
     15  C         39.1150   31.5700   67.5330 C.2    15  TRP15       0.2290
     16  O         38.5480   30.7960   68.3050 O.2    15  TRP15      -0.2864
     17  CB        40.1670   33.5860   68.6810 C.3    15  TRP15       0.0576
     18  CG        41.3940   33.9060   69.5590 C.ar   15  TRP15       0.0006
     19  CD1       42.3930   34.8360   69.3220 C.ar   15  TRP15       0.0946
     20  CD2       41.7790   33.1970   70.7530 C.ar   15  TRP15       0.0152
     21  NE1       43.3620   34.7570   70.3380 N.ar   15  TRP15      -0.2442
     22  CE2       43.0020   33.7590   71.2120 C.ar   15  TRP15       0.0810
     23  CE3       41.2050   32.1290   71.4750 C.ar   15  TRP15       0.0012
     24  CZ2       43.6440   33.3020   72.3720 C.ar   15  TRP15       0.0191
     25  CZ3       41.8490   31.6760   72.6260 C.ar   15  TRP15       0.0001
     26  CH2       43.0450   32.2710   73.0630 C.ar   15  TRP15       0.0015
     27  N         39.9600   27.8430   67.6160 N.3    18  GLU18      -0.1245
     28  CA        40.4820   27.2380   68.8290 C.3    18  GLU18       0.1567
     29  C         39.4410   26.2910   69.4510 C.2    18  GLU18       0.2260
     30  O         38.2410   26.6030   69.5010 O.2    18  GLU18      -0.2867
     31  CB        40.8770   28.3260   69.8300 C.3    18  GLU18       0.0388
     32  CG        41.7300   27.8030   70.9870 C.3    18  GLU18       0.1160
     33  CD        40.8860   27.1880   72.1260 C.2    18  GLU18       0.3649
     34  OE1       39.7200   27.6110   72.3520 O.co2  18  GLU18      -0.2457
     35  OE2       41.4350   26.3320   72.8360 O.co2  18  GLU18      -0.2457
     36  N         40.5830   23.6090   72.3750 N.3    20  ARG20      -0.1245
     37  CA        41.2570   22.6600   73.3050 C.3    20  ARG20       0.1563
     38  C         40.3270   22.1790   74.4250 C.2    20  ARG20       0.2260
     39  O         39.5960   22.9520   75.0030 O.2    20  ARG20      -0.2867
     40  CB        42.4900   23.3010   73.9870 C.3    20  ARG20       0.0307
     41  CG        43.6780   23.5650   73.0160 C.3    20  ARG20       0.0489
     42  CD        44.2420   22.2520   72.4380 C.3    20  ARG20       0.2205
     43  NE        45.5150   22.5560   71.7800 N.pl3  20  ARG20      -0.0865
     44  CZ        46.4280   21.6700   71.4070 C.cat  20  ARG20       0.5346
     45  NH1       46.2300   20.3710   71.6080 N.pl3  20  ARG20       0.1354
     46  NH2       47.5600   22.0970   70.8200 N.pl3  20  ARG20       0.1354
     47  N         41.4240   21.4000   77.2500 N.3    22  VAL22      -0.1231
     48  CA        41.8880   22.0680   78.4650 C.3    22  VAL22       0.1692
     49  C         41.1580   23.3960   78.7370 C.2    22  VAL22       0.2592
     50  O         41.2230   23.9410   79.8390 O.2    22  VAL22      -0.2718
     51  CB        43.4250   22.2470   78.4730 C.3    22  VAL22       0.0266
     52  CG1       43.7940   23.4720   77.5850 C.3    22  VAL22       0.0020
     53  CG2       43.9470   22.3860   79.9430 C.3    22  VAL22       0.0020
     54  N         40.4410   23.9290   77.7560 N.am   23  ASN23      -0.1974
     55  CA        39.5590   25.0680   78.0230 C.3    23  ASN23       0.1688
     56  C         38.0750   24.7070   78.1910 C.2    23  ASN23       0.2292
     57  O         37.3810   25.2030   79.0980 O.2    23  ASN23      -0.2864
     58  CB        39.7880   26.1280   76.9230 C.3    23  ASN23       0.1181
     59  CG        41.2680   26.5140   76.8780 C.2    23  ASN23       0.2629
     60  OD1       41.8060   26.6540   77.9440 O.2    23  ASN23      -0.2716
     61  ND2       41.9440   26.4730   75.7120 N.am   23  ASN23      -0.0877
     62  N         37.1190   30.2700   80.7560 N.3    34  HIS34      -0.1226
     63  CA        38.3180   31.0950   80.7900 C.3    34  HIS34       0.1752
     64  C         39.3360   30.6850   79.7050 C.2    34  HIS34       0.2596
     65  O         39.4340   29.5060   79.3220 O.2    34  HIS34      -0.2718
     66  CB        39.0220   30.9110   82.1130 C.3    34  HIS34       0.0759
     67  CG        38.2060   31.2740   83.3030 C.ar   34  HIS34       0.0818
     68  ND1       37.5230   32.4760   83.4060 N.ar   34  HIS34      -0.2268
     69  CD2       38.0060   30.6190   84.4750 C.ar   34  HIS34       0.1154
     70  CE1       36.9170   32.5260   84.5860 C.ar   34  HIS34       0.1986
     71  NE2       37.1920   31.4140   85.2470 N.ar   34  HIS34      -0.2212
     72  N         40.0970   31.6830   79.2510 N.am   35  HIS35      -0.1961
     73  CA        41.3060   31.4600   78.4730 C.3    35  HIS35       0.1787
     74  C         42.4930   32.2090   79.0880 C.2    35  HIS35       0.2620
     75  O         42.9980   33.2120   78.5280 O.2    35  HIS35      -0.2715
     76  CB        41.0900   31.9450   77.0420 C.3    35  HIS35       0.0785
     77  CG        40.1790   31.0370   76.2750 C.ar   35  HIS35       0.0821
     78  ND1       40.6530   29.9350   75.5990 N.ar   35  HIS35      -0.2267
     79  CD2       38.8270   30.9970   76.1660 C.ar   35  HIS35       0.1154
     80  CE1       39.6330   29.2670   75.0730 C.ar   35  HIS35       0.1986
     81  NE2       38.5110   29.8870   75.4080 N.ar   35  HIS35      -0.2212
     82  N         42.9590   31.7080   80.2220 N.am   36  HIS36      -0.1959
     83  CA        44.0980   32.3450   80.8910 C.3    36  HIS36       0.1787
     84  C         44.5700   31.3080   81.9020 C.2    36  HIS36       0.2620
     85  O         43.8950   30.2680   82.1080 O.2    36  HIS36      -0.2715
     86  CB        43.7280   33.6730   81.5690 C.3    36  HIS36       0.0785
     87  CG        42.6560   33.5790   82.6240 C.ar   36  HIS36       0.0821
     88  ND1       41.4540   34.2520   82.5180 N.ar   36  HIS36      -0.2267
     89  CD2       42.6040   32.9000   83.8000 C.ar   36  HIS36       0.1154
     90  CE1       40.7090   33.9890   83.5880 C.ar   36  HIS36       0.1986
     91  NE2       41.3820   33.1680   84.3790 N.ar   36  HIS36      -0.2212
     92  N         45.7160   31.5640   82.5020 N.am   37  TYR37      -0.1974
     93  CA        46.3260   30.5440   83.3470 C.3    37  TYR37       0.1639
     94  C         46.0130   30.7510   84.8350 C.2    37  TYR37       0.2290
     95  O         45.3050   31.6960   85.1880 O.2    37  TYR37      -0.2864
     96  CB        47.8080   30.5320   83.0750 C.3    37  TYR37       0.0560
     97  CG        48.0270   30.1170   81.6310 C.ar   37  TYR37      -0.0198
     98  CD1       47.5500   28.8860   81.1610 C.ar   37  TYR37      -0.0009
     99  CD2       48.6350   30.9820   80.7120 C.ar   37  TYR37      -0.0009
    100  CE1       47.7900   28.4910   79.7920 C.ar   37  TYR37       0.0417
    101  CE2       48.8450   30.5960   79.3690 C.ar   37  TYR37       0.0417
    102  CZ        48.3930   29.3770   78.9170 C.ar   37  TYR37       0.1957
    103  OH        48.5950   29.0020   77.5890 O.3    37  TYR37      -0.2866
    104  N         42.4230   28.8920   87.6910 N.3    67  GLU67      -0.1245
    105  CA        42.1490   29.8820   86.6520 C.3    67  GLU67       0.1567
    106  C         41.0900   30.8440   87.1280 C.2    67  GLU67       0.2260
    107  O         41.1870   32.0480   86.8630 O.2    67  GLU67      -0.2867
    108  CB        41.7510   29.2170   85.3230 C.3    67  GLU67       0.0388
    109  CG        42.8220   28.3010   84.7430 C.3    67  GLU67       0.1160
    110  CD        42.4960   27.8120   83.3550 C.2    67  GLU67       0.3649
    111  OE1       41.4260   28.2070   82.8010 O.co2  67  GLU67      -0.2457
    112  OE2       43.3060   27.0290   82.8010 O.co2  67  GLU67      -0.2457
    113  N         45.5550   38.5210   80.0130 N.3   159  GLU159     -0.1245
    114  CA        46.3150   37.8090   78.9760 C.3   159  GLU159      0.1567
    115  C         45.7980   38.0860   77.5560 C.2   159  GLU159      0.2260
    116  O         45.4980   37.1430   76.8050 O.2   159  GLU159     -0.2867
    117  CB        46.3140   36.2950   79.2190 C.3   159  GLU159      0.0388
    118  CG        46.9090   35.8440   80.5720 C.3   159  GLU159      0.1160
    119  CD        46.8960   34.3190   80.6840 C.2   159  GLU159      0.3649
    120  OE1       46.7660   33.6230   79.6490 O.co2 159  GLU159     -0.2457
    121  OE2       46.9980   33.8210   81.8250 O.co2 159  GLU159     -0.2457
    122  N         49.3690   40.7840   74.5010 N.3   162  MET162     -0.1230
    123  CA        50.3920   40.2980   73.5940 C.3   162  MET162      0.1702
    124  C         49.8950   40.1780   72.1580 C.2   162  MET162      0.2592
    125  O         50.5900   39.6290   71.2830 O.2   162  MET162     -0.2718
    126  CB        50.9690   38.9560   74.0740 C.3   162  MET162      0.0401
    127  CG        49.9450   37.8110   74.2070 C.3   162  MET162      0.0596
    128  SD        48.8220   37.9000   75.6380 S.3   162  MET162     -0.1393
    129  CE        50.0160   37.9660   76.9730 C.3   162  MET162      0.0692
    130  N         48.7000   40.6980   71.8840 N.am  163  TYR163     -0.1976
    131  CA        48.2010   40.6850   70.5070 C.3   163  TYR163      0.1639
    132  C         48.1910   42.1030   69.8990 C.2   163  TYR163      0.2290
    133  O         47.7620   42.2750   68.7760 O.2   163  TYR163     -0.2864
    134  CB        46.7780   40.0730   70.4580 C.3   163  TYR163      0.0560
    135  CG        46.7660   38.5800   70.6910 C.ar  163  TYR163     -0.0198
    136  CD1       47.2930   37.7330   69.7330 C.ar  163  TYR163     -0.0009
    137  CD2       46.2400   38.0100   71.8650 C.ar  163  TYR163     -0.0009
    138  CE1       47.3040   36.3390   69.8940 C.ar  163  TYR163      0.0417
    139  CE2       46.2490   36.5820   72.0280 C.ar  163  TYR163      0.0417
    140  CZ        46.7980   35.7810   71.0390 C.ar  163  TYR163      0.1957
    141  OH        46.8430   34.3870   71.0830 O.3   163  TYR163     -0.2866
    142  N         52.0070   37.7480   80.5470 N.3   188  GLY188     -0.1225
    143  CA        53.3500   37.1990   80.6090 C.3   188  GLY188      0.1811
    144  C         54.2400   38.1260   79.8180 C.2   188  GLY188      0.2280
    145  O         53.9830   38.3200   78.6360 O.2   188  GLY188     -0.2866
    146  N         56.6560   30.3330   72.5580 N.3   204  ILE204     -0.1245
    147  CA        55.3310   30.6580   73.0000 C.3   204  ILE204      0.1561
    148  C         54.7070   31.6220   71.9910 C.2   204  ILE204      0.2260
    149  O         53.5700   31.4620   71.6090 O.2   204  ILE204     -0.2867
    150  CB        55.3740   31.2580   74.3950 C.3   204  ILE204      0.0252
    151  CG1       55.7730   30.1820   75.4370 C.3   204  ILE204      0.0019
    152  CG2       54.0150   31.8530   74.8110 C.3   204  ILE204      0.0019
    153  CD1       56.0440   30.8170   76.8010 C.3   204  ILE204      0.0001
    154  N         53.6060   29.5720   69.0610 N.3   207  HIS207     -0.1226
    155  CA        52.5070   28.6840   69.3850 C.3   207  HIS207      0.1752
    156  C         51.1590   29.4220   69.3260 C.2   207  HIS207      0.2596
    157  O         50.2100   28.8580   68.7720 O.2   207  HIS207     -0.2718
    158  CB        52.7740   28.0540   70.7680 C.3   207  HIS207      0.0759
    159  CG        51.6930   27.1300   71.2490 C.ar  207  HIS207      0.0818
    160  ND1       51.6450   25.7980   70.9080 N.ar  207  HIS207     -0.2268
    161  CD2       50.6590   27.3320   72.0950 C.ar  207  HIS207      0.1154
    162  CE1       50.6140   25.2240   71.4950 C.ar  207  HIS207      0.1986
    163  NE2       49.9980   26.1320   72.2240 N.ar  207  HIS207     -0.2212
    164  N         51.0880   30.6480   69.8940 N.am  208  PHE208     -0.1976
    165  CA        49.8500   31.4310   70.0220 C.3   208  PHE208      0.1639
    166  C         49.7130   32.5490   68.9900 C.2   208  PHE208      0.2290
    167  O         48.7600   33.3480   69.0370 O.2   208  PHE208     -0.2864
    168  CB        49.7610   32.0540   71.4250 C.3   208  PHE208      0.0560
    169  CG        49.5730   31.0240   72.5150 C.ar  208  PHE208     -0.0200
    170  CD1       48.3940   30.2790   72.5660 C.ar  208  PHE208     -0.0042
    171  CD2       50.5980   30.7590   73.4400 C.ar  208  PHE208     -0.0042
    172  CE1       48.1970   29.3280   73.5720 C.ar  208  PHE208     -0.0003
    173  CE2       50.3930   29.7830   74.4690 C.ar  208  PHE208     -0.0003
    174  CZ        49.1930   29.0610   74.5020 C.ar  208  PHE208     -0.0000
    175  N         51.4450   35.2220   68.8130 N.3   210  CYS210     -0.1235
    176  CA        51.4160   36.4570   69.5970 C.3   210  CYS210      0.1677
    177  C         52.7550   37.1730   69.6440 C.2   210  CYS210      0.2270
    178  O         53.7350   36.7250   69.0410 O.2   210  CYS210     -0.2867
    179  CB        50.8990   36.1970   71.0420 C.3   210  CYS210      0.0956
    180  SG        51.9290   35.1200   72.1020 S.3   210  CYS210     -0.0801
    181  N         54.8110   38.6890   72.6870 N.3   212  ILE212     -0.1245
    182  CA        55.0910   38.9480   74.0910 C.3   212  ILE212      0.1561
    183  C         55.9900   40.1880   74.2000 C.2   212  ILE212      0.2260
    184  O         56.9990   40.2920   73.4910 O.2   212  ILE212     -0.2867
    185  CB        55.7500   37.7030   74.7230 C.3   212  ILE212      0.0252
    186  CG1       54.6880   36.6060   74.9730 C.3   212  ILE212      0.0019
    187  CG2       56.4540   38.0410   76.0410 C.3   212  ILE212      0.0019
    188  CD1       55.3160   35.2400   75.2940 C.3   212  ILE212      0.0001
    189  N         50.3000   25.7150   89.1560 N.3   242  TYR242     -0.1241
    190  CA        49.3180   25.4060   88.1270 C.3   242  TYR242      0.1605
    191  C         49.9250   24.7000   86.9180 C.2   242  TYR242      0.2264
    192  O         49.3930   23.6810   86.4200 O.2   242  TYR242     -0.2867
    193  CB        48.5730   26.7180   87.7070 C.3   242  TYR242      0.0534
    194  CG        47.8940   26.6130   86.3730 C.ar  242  TYR242     -0.0201
    195  CD1       48.5840   26.8660   85.2020 C.ar  242  TYR242     -0.0009
    196  CD2       46.5540   26.2530   86.2880 C.ar  242  TYR242     -0.0009
    197  CE1       47.9370   26.7480   83.9530 C.ar  242  TYR242      0.0417
    198  CE2       45.9180   26.1330   85.0680 C.ar  242  TYR242      0.0417
    199  CZ        46.5970   26.3950   83.9230 C.ar  242  TYR242      0.1957
    200  OH        45.9260   26.2620   82.7390 O.3   242  TYR242     -0.2866
    201  N         49.2870   20.9290   85.5680 N.3   246  ARG246     -0.1245
    202  CA        48.7700   20.7800   84.2180 C.3   246  ARG246      0.1563
    203  C         49.6530   19.8580   83.3950 C.2   246  ARG246      0.2260
    204  O         49.1760   19.0290   82.5690 O.2   246  ARG246     -0.2867
    205  CB        48.6370   22.1660   83.5780 C.3   246  ARG246      0.0307
    206  CG        48.2860   22.1160   82.1000 C.3   246  ARG246      0.0489
    207  CD        47.9490   23.5430   81.6000 C.3   246  ARG246      0.2205
    208  NE        48.1280   23.5980   80.1520 N.pl3 246  ARG246     -0.0865
    209  CZ        47.4800   24.4180   79.3400 C.cat 246  ARG246      0.5346
    210  NH1       46.6020   25.2600   79.8300 N.pl3 246  ARG246      0.1354
    211  NH2       47.7640   24.4160   78.0330 N.pl3 246  ARG246      0.1354
    212  N         48.7790   20.6670   76.0480 N.3   253  THR253     -0.1218
    213  CA        48.7420   21.1220   74.6540 C.3   253  THR253      0.1862
    214  C         50.0940   21.1020   73.9920 C.2   253  THR253      0.2287
    215  O         50.1840   21.3370   72.7830 O.2   253  THR253     -0.2866
    216  CB        48.2090   22.5600   74.5630 C.3   253  THR253      0.1770
    217  OG1       49.0740   23.4280   75.3260 O.3   253  THR253     -0.2211
    218  CG2       46.8190   22.6490   75.1340 C.3   253  THR253      0.0375
    219  N         52.7450   23.1170   75.1180 N.3   255  ILE255     -0.1245
    220  CA        53.4610   24.3640   75.3910 C.3   255  ILE255      0.1561
    221  C         53.8750   24.4490   76.8740 C.2   255  ILE255      0.2260
    222  O         54.5930   25.3870   77.2880 O.2   255  ILE255     -0.2867
    223  CB        52.5950   25.6230   75.0150 C.3   255  ILE255      0.0252
    224  CG1       53.4850   26.8770   74.8200 C.3   255  ILE255      0.0019
    225  CG2       51.5770   25.9150   76.0710 C.3   255  ILE255      0.0019
    226  CD1       54.5140   26.6830   73.6490 C.3   255  ILE255      0.0001
    227  N         56.6550   27.2870   79.0200 N.3   259  PHE259     -0.1241
    228  CA        56.3160   28.1110   80.1740 C.3   259  PHE259      0.1605
    229  C         57.1600   27.7550   81.3970 C.2   259  PHE259      0.2264
    230  O         57.7640   28.6310   82.0500 O.2   259  PHE259     -0.2867
    231  CB        54.8420   28.0050   80.5470 C.3   259  PHE259      0.0534
    232  CG        53.9410   28.8800   79.7180 C.ar  259  PHE259     -0.0203
    233  CD1       53.5230   30.1080   80.2030 C.ar  259  PHE259     -0.0042
    234  CD2       53.4660   28.4460   78.4880 C.ar  259  PHE259     -0.0042
    235  CE1       52.6510   30.9350   79.4470 C.ar  259  PHE259     -0.0003
    236  CE2       52.6180   29.2470   77.7180 C.ar  259  PHE259     -0.0003
    237  CZ        52.2000   30.4720   78.2030 C.ar  259  PHE259     -0.0000
    238  N         61.2220   34.7610   81.4520 N.3   268  PHE268     -0.1241
    239  CA        59.8110   35.0940   81.2480 C.3   268  PHE268      0.1605
    240  C         59.1690   35.1960   82.6270 C.2   268  PHE268      0.2264
    241  O         59.5810   34.4940   83.5570 O.2   268  PHE268     -0.2867
    242  CB        59.2060   33.9270   80.4500 C.3   268  PHE268      0.0534
    243  CG        57.8460   34.1670   79.9730 C.ar  268  PHE268     -0.0203
    244  CD1       56.8710   33.1850   80.1570 C.ar  268  PHE268     -0.0042
    245  CD2       57.5030   35.3750   79.3450 C.ar  268  PHE268     -0.0042
    246  CE1       55.5700   33.3590   79.7040 C.ar  268  PHE268     -0.0003
    247  CE2       56.1950   35.5210   78.8600 C.ar  268  PHE268     -0.0003
    248  CZ        55.2340   34.5080   79.0680 C.ar  268  PHE268     -0.0000
    249  N         55.3080   36.1920   84.8880 N.3   270  TYR270     -0.1241
    250  CA        53.8640   36.3310   84.8550 C.3   270  TYR270      0.1605
    251  C         53.6030   37.4250   85.8670 C.2   270  TYR270      0.2264
    252  O         54.0680   37.3550   87.0160 O.2   270  TYR270     -0.2867
    253  CB        53.2340   34.9890   85.2980 C.3   270  TYR270      0.0534
    254  CG        51.7500   34.8440   84.9820 C.ar  270  TYR270     -0.0201
    255  CD1       50.8250   34.5580   85.9980 C.ar  270  TYR270     -0.0009
    256  CD2       51.2820   34.9090   83.6800 C.ar  270  TYR270     -0.0009
    257  CE1       49.4570   34.4090   85.6980 C.ar  270  TYR270      0.0417
    258  CE2       49.9140   34.7560   83.3790 C.ar  270  TYR270      0.0417
    259  CZ        49.0220   34.4940   84.4020 C.ar  270  TYR270      0.1957
    260  OH        47.6790   34.3380   84.1220 O.3   270  TYR270     -0.2866
@<TRIPOS>BOND
     1     1     2    1
     2     2     5    1
     3     2     3    1
     4     5     6    1
     5     3    13   am
     6     3     4    2
     7    13    14    1
     8     7     6   ar
     9     7     9   ar
    10     6     8   ar
    11    15    14    1
    12    15    16    2
    13    27    28    1
    14    14    17    1
    15     9    11   ar
    16     8    10   ar
    17    17    18    1
    18   157   156    2
    19   133   132    2
    20   175   176    1
    21    28    29    1
    22    28    31    1
    23   166   167    2
    24   166   165    1
    25   178   177    2
    26   154   155    1
    27    19    18   ar
    28    19    21   ar
    29   156   155    1
    30   156   164   am
    31   155   158    1
    32    29    30    2
    33    11    10   ar
    34    11    12    1
    35    18    20   ar
    36   176   177    1
    37   176   179    1
    38   136   138   ar
    39   136   135   ar
    40    31    32    1
    41   164   165    1
    42   138   140   ar
    43   132   131    1
    44   165   168    1
    45    21    22   ar
    46   134   131    1
    47   134   135    1
    48   131   130    1
    49   135   137   ar
    50    20    22   ar
    51    20    23   ar
    52   158   159    1
    53    46    44    1
    54   160   159   ar
    55   160   162   ar
    56    32    33    1
    57   140   141    1
    58   140   139   ar
    59   179   180    1
    60    22    24   ar
    61   159   161   ar
    62   125   124    2
    63    44    45    1
    64    44    43    2
    65   168   169    1
    66    23    25   ar
    67   162   163   ar
    68   149   148    2
    69    43    42    1
    70   137   139   ar
    71   130   124   am
    72   148   147    1
    73   161   163   ar
    74    33    34   ar
    75    33    35   ar
    76   124   123    1
    77    24    26   ar
    78    36    37    1
    79    42    41    1
    80   169   170   ar
    81   169   171   ar
    82   146   147    1
    83   170   172   ar
    84    25    26   ar
    85   181   182    1
    86   215   214    2
    87   147   150    1
    88    41    40    1
    89    37    40    1
    90    37    38    1
    91   171   173   ar
    92   184   183    2
    93   172   174   ar
    94   123   126    1
    95   123   122    1
    96   226   224    1
    97   214   213    1
    98   126   127    1
    99   182   183    1
   100   182   185    1
   101   127   128    1
   102   150   152    1
   103   150   151    1
   104    38    39    2
   105   173   174   ar
   106   216   213    1
   107   216   218    1
   108   216   217    1
   109   213   212    1
   110   185   186    1
   111   185   187    1
   112   224   223    1
   113   186   188    1
   114   223   220    1
   115   223   225    1
   116    80    81   ar
   117    80    78   ar
   118   219   220    1
   119   220   221    1
   120    81    79   ar
   121   151   153    1
   122    78    77   ar
   123   128   129    1
   124    61    59   am
   125    79    77   ar
   126    77    76    1
   127   116   115    2
   128   221   222    2
   129    59    58    1
   130    59    60    2
   131    58    55    1
   132    76    73    1
   133    47    48    1
   134   115   114    1
   135    52    51    1
   136   103   102    1
   137   236   237   ar
   138   236   234   ar
   139    54    55    1
   140    54    49   am
   141    55    56    1
   142   211   209    1
   143    56    57    2
   144   237   235   ar
   145    48    51    1
   146    48    49    1
   147    51    53    1
   148    73    74    1
   149    73    72    1
   150   234   232   ar
   151    75    74    2
   152   145   144    2
   153    49    50    2
   154   247   248   ar
   155   247   245   ar
   156   102   101   ar
   157   102   100   ar
   158   114   117    1
   159   114   113    1
   160   227   228    1
   161   248   246   ar
   162    74    82   am
   163   117   118    1
   164    72    64   am
   165    65    64    2
   166   209   210    1
   167   209   208    2
   168   245   243   ar
   169   101    99   ar
   170   235   233   ar
   171   120   119   ar
   172   246   244   ar
   173    64    63    1
   174   232   233   ar
   175   232   231    1
   176   100    98   ar
   177   144   143    1
   178   243   244   ar
   179   243   242    1
   180   208   207    1
   181   228   231    1
   182   228   229    1
   183    82    83    1
   184   242   239    1
   185   142   143    1
   186   118   119    1
   187   119   121   ar
   188    99    97   ar
   189    62    63    1
   190    63    66    1
   191    83    86    1
   192    83    84    1
   193    98    97   ar
   194   239   238    1
   195   239   240    1
   196   229   230    2
   197    86    87    1
   198   207   206    1
   199    97    96    1
   200    84    85    2
   201    84    92   am
   202   206   205    1
   203    66    67    1
   204    92    93    1
   205    88    87   ar
   206    88    90   ar
   207   204   203    2
   208    87    89   ar
   209   240   241    2
   210   200   199    1
   211   112   110   ar
   212   111   110   ar
   213    96    93    1
   214    67    68   ar
   215    67    69   ar
   216    93    94    1
   217   110   109    1
   218   258   256   ar
   219   258   259   ar
   220   203   202    1
   221    68    70   ar
   222   205   202    1
   223    90    91   ar
   224   256   254   ar
   225    89    91   ar
   226   199   197   ar
   227   199   198   ar
   228   197   195   ar
   229   260   259    1
   230   202   201    1
   231   259   257   ar
   232    69    71   ar
   233    70    71   ar
   234   109   108    1
   235    94    95    2
   236   250   249    1
   237   250   253    1
   238   250   251    1
   239   254   253    1
   240   254   255   ar
   241   198   196   ar
   242   195   194   ar
   243   108   105    1
   244   257   255   ar
   245   251   252    2
   246   196   194   ar
   247   194   193    1
   248   192   191    2
   249   105   106    1
   250   105   104    1
   251   107   106    2
   252   191   190    1
   253   193   190    1
   254   190   189    1
