@<TRIPOS>MOLECULE
tmp/3vc2D00.pdb
 217 212 0 0 0
SMALL
GASTEIGER

@<TRIPOS>ATOM
      1  N         52.6940   81.8430   55.2790 N.3    18  GLN18      -0.1245
      2  CA        51.8720   81.1420   54.3010 C.3    18  GLN18       0.1566
      3  C         51.1410   82.1240   53.3850 C.2    18  GLN18       0.2260
      4  O         50.8350   81.8040   52.2360 O.2    18  GLN18      -0.2867
      5  CB        50.9190   80.1650   54.9770 C.3    18  GLN18       0.0367
      6  CG        51.6610   79.0000   55.6180 C.3    18  GLN18       0.0905
      7  CD        50.7420   77.8870   56.0840 C.2    18  GLN18       0.2608
      8  OE1       49.5210   77.9550   55.9110 O.2    18  GLN18      -0.2717
      9  NE2       51.3320   76.8370   56.6680 N.am   18  GLN18      -0.0878
     10  N         53.5310   82.7670   50.6560 N.3    21  ILE21      -0.1245
     11  CA        53.5970   81.6390   49.7280 C.3    21  ILE21       0.1561
     12  C         52.3640   81.5780   48.8240 C.2    21  ILE21       0.2260
     13  O         52.4790   81.2660   47.6340 O.2    21  ILE21      -0.2867
     14  CB        53.8110   80.3020   50.4830 C.3    21  ILE21       0.0252
     15  CG1       55.1020   80.3770   51.3130 C.3    21  ILE21       0.0019
     16  CG2       53.8720   79.1150   49.5190 C.3    21  ILE21       0.0019
     17  CD1       56.3140   80.8250   50.5060 C.3    21  ILE21       0.0001
     18  N         52.7730   81.9600   44.6060 N.3    25  TRP25      -0.1241
     19  CA        52.2670   81.0400   43.5980 C.3    25  TRP25       0.1605
     20  C         51.1010   81.5950   42.7940 C.2    25  TRP25       0.2264
     21  O         50.9840   81.3240   41.6030 O.2    25  TRP25      -0.2867
     22  CB        51.9630   79.6710   44.2130 C.3    25  TRP25       0.0550
     23  CG        53.2290   78.9750   44.5950 C.ar   25  TRP25       0.0003
     24  CD1       53.6920   78.7230   45.8630 C.ar   25  TRP25       0.0946
     25  CD2       54.2240   78.4650   43.6930 C.ar   25  TRP25       0.0152
     26  NE1       54.9080   78.0830   45.7960 N.ar   25  TRP25      -0.2442
     27  CE2       55.2540   77.9130   44.4770 C.ar   25  TRP25       0.0810
     28  CE3       54.3370   78.4220   42.2970 C.ar   25  TRP25       0.0012
     29  CZ2       56.3860   77.3260   43.9130 C.ar   25  TRP25       0.0191
     30  CZ3       55.4690   77.8440   41.7350 C.ar   25  TRP25       0.0001
     31  CH2       56.4720   77.2950   42.5430 C.ar   25  TRP25       0.0015
     32  N         51.2430   69.9470   33.6400 N.3    43  TYR43      -0.1227
     33  CA        51.9680   71.1020   34.1700 C.3    43  TYR43       0.1736
     34  C         52.5890   70.8170   35.5350 C.2    43  TYR43       0.2595
     35  O         51.8800   70.6220   36.5340 O.2    43  TYR43      -0.2718
     36  CB        51.0490   72.3390   34.2260 C.3    43  TYR43       0.0548
     37  CG        50.6990   72.8360   32.8380 C.ar   43  TYR43      -0.0200
     38  CD1       51.3830   73.9060   32.2710 C.ar   43  TYR43      -0.0009
     39  CD2       49.7040   72.2070   32.0800 C.ar   43  TYR43      -0.0009
     40  CE1       51.0810   74.3480   30.9910 C.ar   43  TYR43       0.0417
     41  CE2       49.4070   72.6320   30.7990 C.ar   43  TYR43       0.0417
     42  CZ        50.1020   73.6990   30.2570 C.ar   43  TYR43       0.1957
     43  OH        49.8040   74.1310   28.9820 O.3    43  TYR43      -0.2866
     44  N         53.9180   70.8030   35.5650 N.am   44  HIS44      -0.1961
     45  CA        54.6740   70.4230   36.7540 C.3    44  HIS44       0.1787
     46  C         55.4180   71.6210   37.3230 C.2    44  HIS44       0.2620
     47  O         55.6810   72.5850   36.6140 O.2    44  HIS44      -0.2715
     48  CB        55.7130   69.3440   36.4170 C.3    44  HIS44       0.0785
     49  CG        55.1390   68.0980   35.8120 C.ar   44  HIS44       0.0821
     50  ND1       54.1160   67.3840   36.4010 N.ar   44  HIS44      -0.2267
     51  CD2       55.4750   67.4170   34.6880 C.ar   44  HIS44       0.1154
     52  CE1       53.8390   66.3240   35.6600 C.ar   44  HIS44       0.1986
     53  NE2       54.6490   66.3200   34.6140 N.ar   44  HIS44      -0.2212
     54  N         55.7520   71.5440   38.6100 N.am   45  HIS45      -0.1959
     55  CA        56.6540   72.4820   39.2600 C.3    45  HIS45       0.1787
     56  C         57.6420   71.6740   40.0960 C.2    45  HIS45       0.2620
     57  O         57.6710   71.7740   41.3240 O.2    45  HIS45      -0.2715
     58  CB        55.8860   73.4430   40.1760 C.3    45  HIS45       0.0785
     59  CG        55.1380   74.5080   39.4430 C.ar   45  HIS45       0.0821
     60  ND1       55.7480   75.6520   38.9720 N.ar   45  HIS45      -0.2267
     61  CD2       53.8330   74.6060   39.0960 C.ar   45  HIS45       0.1154
     62  CE1       54.8510   76.4040   38.3580 C.ar   45  HIS45       0.1986
     63  NE2       53.6840   75.7870   38.4110 N.ar   45  HIS45      -0.2212
     64  N         58.4460   70.8600   39.4290 N.am   46  HIS46      -0.1973
     65  CA        59.4770   70.0880   40.1120 C.3    46  HIS46       0.1656
     66  C         60.5380   69.7700   39.0720 C.2    46  HIS46       0.2291
     67  O         60.3440   70.0280   37.8900 O.2    46  HIS46      -0.2864
     68  CB        58.9030   68.8060   40.7360 C.3    46  HIS46       0.0771
     69  CG        58.2330   67.8930   39.7490 C.ar   46  HIS46       0.0820
     70  ND1       56.8850   67.6060   39.7960 N.ar   46  HIS46      -0.2267
     71  CD2       58.7270   67.2030   38.6900 C.ar   46  HIS46       0.1154
     72  CE1       56.5750   66.7860   38.8050 C.ar   46  HIS46       0.1986
     73  NE2       57.6760   66.5170   38.1240 N.ar   46  HIS46      -0.2212
     74  N         47.7200   64.6370   47.0180 N.3    99  ASP99      -0.1239
     75  CA        48.8860   65.4120   46.5900 C.3    99  ASP99       0.1674
     76  C         48.9710   66.6790   47.4550 C.2    99  ASP99       0.2266
     77  O         48.1940   67.6170   47.2790 O.2    99  ASP99      -0.2867
     78  CB        48.7550   65.7570   45.0920 C.3    99  ASP99       0.1410
     79  CG        49.9770   66.4400   44.5310 C.2    99  ASP99       0.3668
     80  OD1       50.6960   67.1030   45.3090 O.co2  99  ASP99      -0.2456
     81  OD2       50.2200   66.3190   43.2960 O.co2  99  ASP99      -0.2456
     82  N         50.4050   70.0440   48.4580 N.3   101  GLY101     -0.1210
     83  CA        51.1560   71.0980   47.7990 C.3   101  GLY101      0.1956
     84  C         51.1860   70.7930   46.3130 C.2   101  GLY101      0.2612
     85  O         52.2460   70.5070   45.7450 O.2   101  GLY101     -0.2717
     86  N         50.0200   70.8520   45.6790 N.am  102  CYS102     -0.1956
     87  CA        49.8300   70.1860   44.3870 C.3   102  CYS102      0.1843
     88  C         50.1750   70.9990   43.1450 C.2   102  CYS102      0.2626
     89  O         50.1420   70.4670   42.0370 O.2   102  CYS102     -0.2714
     90  CB        48.4020   69.6380   44.2620 C.3   102  CYS102      0.0997
     91  SG        47.0560   70.8800   44.3070 S.3   102  CYS102     -0.0797
     92  N         50.4970   72.2780   43.3110 N.am  103  GLY103     -0.1940
     93  CA        50.8290   73.0990   42.1550 C.3   103  GLY103      0.2014
     94  C         49.6740   73.1990   41.1650 C.2   103  GLY103      0.2638
     95  O         48.5210   73.4070   41.5640 O.2   103  GLY103     -0.2714
     96  N         49.9850   73.0590   39.8740 N.am  104  ARG104     -0.1977
     97  CA        48.9870   73.1850   38.8150 C.3   104  ARG104      0.1597
     98  C         48.3210   71.8620   38.4790 C.2   104  ARG104      0.2287
     99  O         47.4660   71.8200   37.6000 O.2   104  ARG104     -0.2864
    100  CB        49.6030   73.7890   37.5510 C.3   104  ARG104      0.0334
    101  CG        49.8550   75.3050   37.6340 C.3   104  ARG104      0.0492
    102  CD        50.2250   75.8650   36.2460 C.3   104  ARG104      0.2205
    103  NE        50.1900   77.3240   36.2190 N.pl3 104  ARG104     -0.0865
    104  CZ        51.2530   78.0940   36.4240 C.cat 104  ARG104      0.5346
    105  NH1       51.1410   79.4200   36.3870 N.pl3 104  ARG104      0.1354
    106  NH2       52.4340   77.5330   36.6610 N.pl3 104  ARG104      0.1354
    107  N         49.6040   68.6510   37.4560 N.3   106  GLY106     -0.1210
    108  CA        50.1090   67.6800   36.4920 C.3   106  GLY106      0.1956
    109  C         50.3150   66.2970   37.0890 C.2   106  GLY106      0.2612
    110  O         50.0140   65.2860   36.4580 O.2   106  GLY106     -0.2717
    111  N         50.8220   66.2440   38.3160 N.am  107  SER107     -0.1952
    112  CA        51.0250   64.9600   39.0000 C.3   107  SER107      0.1924
    113  C         49.7220   64.2440   39.3220 C.2   107  SER107      0.2314
    114  O         49.6610   63.0180   39.3270 O.2   107  SER107     -0.2863
    115  CB        51.8450   65.1390   40.2870 C.3   107  SER107      0.2116
    116  OG        53.2040   65.4180   39.9690 O.3   107  SER107     -0.2180
    117  N         45.9140   69.6680   47.5060 N.3   122  VAL122     -0.1231
    118  CA        45.7610   70.9020   48.2620 C.3   122  VAL122      0.1692
    119  C         46.9070   71.8480   47.9360 C.2   122  VAL122      0.2593
    120  O         48.0620   71.4250   47.8080 O.2   122  VAL122     -0.2718
    121  CB        45.6690   70.6360   49.7870 C.3   122  VAL122      0.0266
    122  CG1       44.4150   69.8530   50.1000 C.3   122  VAL122      0.0020
    123  CG2       46.8980   69.8770   50.2840 C.3   122  VAL122      0.0020
    124  N         46.5730   73.1230   47.7570 N.am  123  THR123     -0.1939
    125  CA        47.5570   74.1610   47.4710 C.3   123  THR123      0.2028
    126  C         47.1420   75.4610   48.1690 C.2   123  THR123      0.2642
    127  O         45.9660   75.6340   48.5220 O.2   123  THR123     -0.2714
    128  CB        47.7100   74.3910   45.9590 C.3   123  THR123      0.1808
    129  OG1       48.6020   75.4880   45.7240 O.3   123  THR123     -0.2208
    130  CG2       46.3730   74.6830   45.3170 C.3   123  THR123      0.0379
    131  N         48.0990   76.3630   48.3880 N.am  124  LEU124     -0.1963
    132  CA        47.7920   77.6570   49.0040 C.3   124  LEU124      0.1728
    133  C         47.3320   78.6430   47.9380 C.2   124  LEU124      0.2616
    134  O         46.9010   79.7460   48.2540 O.2   124  LEU124     -0.2715
    135  CB        49.0080   78.2380   49.7280 C.3   124  LEU124      0.0311
    136  CG        49.4850   77.5680   51.0240 C.3   124  LEU124      0.0022
    137  CD1       50.7220   78.2810   51.5520 C.3   124  LEU124      0.0001
    138  CD2       48.3760   77.5690   52.0960 C.3   124  LEU124      0.0001
    139  N         47.4460   78.2480   46.6750 N.am  125  SER125     -0.1950
    140  CA        47.1820   79.1610   45.5640 C.3   125  SER125      0.1924
    141  C         45.8430   78.9150   44.8620 C.2   125  SER125      0.2314
    142  O         45.6460   77.8890   44.2080 O.2   125  SER125     -0.2863
    143  CB        48.3110   79.0660   44.5330 C.3   125  SER125      0.2116
    144  OG        47.9630   79.7570   43.3480 O.3   125  SER125     -0.2180
    145  N         46.3990   78.3990   41.1060 N.3   128  GLN128     -0.1245
    146  CA        46.8090   77.0290   40.7930 C.3   128  GLN128      0.1566
    147  C         45.6390   76.0570   40.9060 C.2   128  GLN128      0.2260
    148  O         45.4580   75.2030   40.0570 O.2   128  GLN128     -0.2867
    149  CB        47.9360   76.5940   41.7360 C.3   128  GLN128      0.0367
    150  CG        49.2590   77.3320   41.5250 C.3   128  GLN128      0.0905
    151  CD        50.4000   76.7120   42.3340 C.2   128  GLN128      0.2608
    152  OE1       50.1720   76.1240   43.3950 O.2   128  GLN128     -0.2717
    153  NE2       51.6270   76.8270   41.8280 N.am  128  GLN128     -0.0878
    154  N         43.9480   75.0440   50.3340 N.3   150  CYS150     -0.1221
    155  CA        43.9690   74.5510   51.7090 C.3   150  CYS150      0.1808
    156  C         45.3860   74.4130   52.2280 C.2   150  CYS150      0.2601
    157  O         46.2950   74.0630   51.4790 O.2   150  CYS150     -0.2717
    158  CB        43.2750   73.2000   51.7920 C.3   150  CYS150      0.0970
    159  SG        42.9190   72.6710   53.4600 S.3   150  CYS150     -0.0800
    160  N         45.5640   74.7240   53.5070 N.am  151  ASN151     -0.1960
    161  CA        46.8230   74.5050   54.2060 C.3   151  ASN151      0.1819
    162  C         47.0370   72.9990   54.4280 C.2   151  ASN151      0.2621
    163  O         46.2650   72.3470   55.1390 O.2   151  ASN151     -0.2715
    164  CB        46.7880   75.2530   55.5390 C.3   151  ASN151      0.1195
    165  CG        48.0030   74.9830   56.4100 C.2   151  ASN151      0.2630
    166  OD1       49.0650   74.5810   55.9260 O.2   151  ASN151     -0.2716
    167  ND2       47.8530   75.2330   57.7170 N.am  151  ASN151     -0.0877
    168  N         48.0660   72.4400   53.7970 N.am  152  MET152     -0.1977
    169  CA        48.2980   70.9900   53.8810 C.3   152  MET152      0.1605
    170  C         48.6100   70.4990   55.2940 C.2   152  MET152      0.2287
    171  O         48.6240   69.2970   55.5360 O.2   152  MET152     -0.2864
    172  CB        49.3890   70.5310   52.9000 C.3   152  MET152      0.0413
    173  CG        50.8150   70.9680   53.2540 C.3   152  MET152      0.0598
    174  SD        51.8910   70.7750   51.8170 S.3   152  MET152     -0.1393
    175  CE        53.3810   71.5660   52.4200 C.3   152  MET152      0.0692
    176  N         55.6430   66.4270   46.5360 N.3   168  ASN168     -0.1225
    177  CA        56.6520   66.5170   45.4830 C.3   168  ASN168      0.1785
    178  C         57.1930   67.9430   45.4600 C.2   168  ASN168      0.2597
    179  O         56.5300   68.8720   44.9800 O.2   168  ASN168     -0.2718
    180  CB        56.0860   66.1040   44.1190 C.3   168  ASN168      0.1169
    181  CG        57.1770   65.9110   43.0610 C.2   168  ASN168      0.2627
    182  OD1       58.2950   66.4060   43.2070 O.2   168  ASN168     -0.2716
    183  ND2       56.8500   65.1860   41.9910 N.am  168  ASN168     -0.0877
    184  N         58.3900   68.1140   46.0090 N.am  169  GLU169     -0.1965
    185  CA        58.9950   69.4360   46.1280 C.3   169  GLU169      0.1733
    186  C         58.0600   70.4720   46.7450 C.2   169  GLU169      0.2617
    187  O         57.8270   71.5410   46.1490 O.2   169  GLU169     -0.2715
    188  CB        59.4700   69.9180   44.7650 C.3   169  GLU169      0.0429
    189  CG        60.7180   69.1780   44.2840 C.3   169  GLU169      0.1163
    190  CD        61.2620   69.7760   43.0270 C.2   169  GLU169      0.3649
    191  OE1       61.1250   71.0120   42.8530 O.co2 169  GLU169     -0.2457
    192  OE2       61.8040   69.0170   42.2000 O.co2 169  GLU169     -0.2457
    193  N         57.5430   70.1720   47.9390 N.am  170  SER170     -0.1950
    194  CA        56.7160   71.1350   48.6700 C.3   170  SER170      0.1924
    195  C         56.9270   71.0630   50.1780 C.2   170  SER170      0.2314
    196  O         56.3460   71.8510   50.9280 O.2   170  SER170     -0.2863
    197  CB        55.2340   70.9340   48.3440 C.3   170  SER170      0.2116
    198  OG        54.7720   69.6510   48.7610 O.3   170  SER170     -0.2180
    199  N         58.2830   74.2350   52.6410 N.3   173  TYR173     -0.1227
    200  CA        57.4710   75.4120   52.9830 C.3   173  TYR173      0.1736
    201  C         56.7890   75.2420   54.3280 C.2   173  TYR173      0.2595
    202  O         55.9820   76.0820   54.7420 O.2   173  TYR173     -0.2718
    203  CB        56.3840   75.6560   51.9290 C.3   173  TYR173      0.0548
    204  CG        56.9140   75.9890   50.5540 C.ar  173  TYR173     -0.0200
    205  CD1       57.3820   77.2720   50.2560 C.ar  173  TYR173     -0.0009
    206  CD2       56.9380   75.0270   49.5530 C.ar  173  TYR173     -0.0009
    207  CE1       57.8710   77.5850   48.9900 C.ar  173  TYR173      0.0417
    208  CE2       57.4190   75.3220   48.2900 C.ar  173  TYR173      0.0417
    209  CZ        57.8740   76.6010   48.0100 C.ar  173  TYR173      0.1957
    210  OH        58.3540   76.8760   46.7610 O.3   173  TYR173     -0.2866
    211  N         57.0900   74.1400   55.0010 N.am  174  VAL174     -0.1980
    212  CA        56.4460   73.8450   56.2740 C.3   174  VAL174      0.1595
    213  C         57.3760   73.1300   57.2380 C.2   174  VAL174      0.2287
    214  O         58.4070   72.5470   56.8480 O.2   174  VAL174     -0.2864
    215  CB        55.2010   72.9430   56.0910 C.3   174  VAL174      0.0276
    216  CG1       54.1140   73.6570   55.2870 C.3   174  VAL174      0.0022
    217  CG2       55.6060   71.6270   55.4410 C.3   174  VAL174      0.0022
@<TRIPOS>BOND
     1    43    42    1
     2    42    41   ar
     3    42    40   ar
     4    41    39   ar
     5    40    38   ar
     6    39    37   ar
     7    38    37   ar
     8    37    36    1
     9    32    33    1
    10    33    36    1
    11    33    34    1
    12    53    51   ar
    13    53    52   ar
    14    51    49   ar
    15    34    44   am
    16    34    35    2
    17    44    45    1
    18    52    50   ar
    19    49    50   ar
    20    49    48    1
    21   103   102    1
    22   103   104    2
    23   102   101    1
    24   105   104    1
    25    48    45    1
    26   104   106    1
    27   110   109    2
    28   108   109    1
    29   108   107    1
    30    47    46    2
    31    45    46    1
    32   109   111   am
    33    46    54   am
    34   100   101    1
    35   100    97    1
    36    99    98    2
    37    67    66    2
    38    73    71   ar
    39    73    72   ar
    40   111   112    1
    41    62    63   ar
    42    62    60   ar
    43    63    61   ar
    44    98    97    1
    45    54    55    1
    46    71    69   ar
    47    72    70   ar
    48    97    96    1
    49    60    59   ar
    50   112   113    1
    51   112   115    1
    52    66    65    1
    53    61    59   ar
    54    55    56    1
    55    55    58    1
    56   113   114    2
    57    64    56   am
    58    64    65    1
    59    59    58    1
    60    69    70   ar
    61    69    68    1
    62    96    94   am
    63   116   115    1
    64   148   147    2
    65    56    57    2
    66    65    68    1
    67   146   147    1
    68   146   145    1
    69   146   149    1
    70    94    95    2
    71    94    93    1
    72   150   149    1
    73   150   151    1
    74    21    20    2
    75    30    28   ar
    76    30    31   ar
    77   153   151   am
    78   183   181   am
    79    89    88    2
    80    93    92    1
    81   192   190   ar
    82    28    25   ar
    83   151   152    2
    84    31    29   ar
    85    20    19    1
    86   191   190   ar
    87   190   189    1
    88   181   182    2
    89   181   180    1
    90    88    92   am
    91    88    87    1
    92    81    79   ar
    93   144   143    1
    94    19    22    1
    95    19    18    1
    96    25    27   ar
    97    25    23   ar
    98    29    27   ar
    99   180   177    1
   100   142   141    2
   101    22    23    1
   102    90    91    1
   103    90    87    1
   104   189   188    1
   105    87    86    1
   106    27    26   ar
   107    79    78    1
   108    79    80   ar
   109   143   140    1
   110    23    24   ar
   111   188   185    1
   112   141   140    1
   113   179   178    2
   114    78    75    1
   115   130   128    1
   116   178   177    1
   117   178   184   am
   118   177   176    1
   119   140   139    1
   120    86    84   am
   121   129   128    1
   122    85    84    2
   123    26    24   ar
   124   128   125    1
   125   184   185    1
   126   185   186    1
   127   187   186    2
   128    84    83    1
   129    75    74    1
   130    75    76    1
   131   139   133   am
   132   186   193   am
   133   210   209    1
   134    77    76    2
   135   125   124    1
   136   125   126    1
   137   117   118    1
   138    13    12    2
   139   124   119   am
   140    83    82    1
   141   120   119    2
   142   119   118    1
   143   133   134    2
   144   133   132    1
   145   193   194    1
   146   209   208   ar
   147   209   207   ar
   148   126   131   am
   149   126   127    2
   150   118   121    1
   151   208   206   ar
   152   197   194    1
   153   197   198    1
   154   131   132    1
   155   194   195    1
   156    12    11    1
   157   207   205   ar
   158   132   135    1
   159    16    14    1
   160   206   204   ar
   161    11    14    1
   162    11    10    1
   163   135   136    1
   164   121   122    1
   165   121   123    1
   166   195   196    2
   167   205   204   ar
   168   154   155    1
   169    14    15    1
   170    17    15    1
   171   204   203    1
   172   136   137    1
   173   136   138    1
   174   157   156    2
   175   155   158    1
   176   155   156    1
   177   158   159    1
   178   174   175    1
   179   174   173    1
   180   203   200    1
   181   156   160   am
   182     4     3    2
   183   199   200    1
   184   172   173    1
   185   172   169    1
   186   200   201    1
   187     3     2    1
   188   160   161    1
   189   168   169    1
   190   168   162   am
   191   169   170    1
   192   161   162    1
   193   161   164    1
   194     2     5    1
   195     2     1    1
   196   201   202    2
   197   201   211   am
   198   162   163    2
   199     5     6    1
   200   211   212    1
   201   216   215    1
   202   170   171    2
   203   217   215    1
   204   164   165    1
   205     6     7    1
   206     8     7    2
   207   166   165    2
   208     7     9   am
   209   215   212    1
   210   212   213    1
   211   165   167   am
   212   214   213    2
