@<TRIPOS>MOLECULE
tmp/3vc2D01.pdb
 229 222 0 0 0
SMALL
GASTEIGER

@<TRIPOS>ATOM
      1  N         52.7730   81.9600   44.6060 N.3    25  TRP25      -0.1241
      2  CA        52.2670   81.0400   43.5980 C.3    25  TRP25       0.1605
      3  C         51.1010   81.5950   42.7940 C.2    25  TRP25       0.2264
      4  O         50.9840   81.3240   41.6030 O.2    25  TRP25      -0.2867
      5  CB        51.9630   79.6710   44.2130 C.3    25  TRP25       0.0550
      6  CG        53.2290   78.9750   44.5950 C.ar   25  TRP25       0.0003
      7  CD1       53.6920   78.7230   45.8630 C.ar   25  TRP25       0.0946
      8  CD2       54.2240   78.4650   43.6930 C.ar   25  TRP25       0.0152
      9  NE1       54.9080   78.0830   45.7960 N.ar   25  TRP25      -0.2442
     10  CE2       55.2540   77.9130   44.4770 C.ar   25  TRP25       0.0810
     11  CE3       54.3370   78.4220   42.2970 C.ar   25  TRP25       0.0012
     12  CZ2       56.3860   77.3260   43.9130 C.ar   25  TRP25       0.0191
     13  CZ3       55.4690   77.8440   41.7350 C.ar   25  TRP25       0.0001
     14  CH2       56.4720   77.2950   42.5430 C.ar   25  TRP25       0.0015
     15  N         56.0880   81.5710   35.0650 N.3    30  ARG30      -0.1245
     16  CA        57.3490   81.5490   34.3310 C.3    30  ARG30       0.1563
     17  C         57.2690   80.6390   33.1120 C.2    30  ARG30       0.2260
     18  O         56.6810   79.5460   33.1680 O.2    30  ARG30      -0.2867
     19  CB        58.4970   81.1200   35.2470 C.3    30  ARG30       0.0307
     20  CG        58.7270   82.0690   36.4180 C.3    30  ARG30       0.0489
     21  CD        59.9590   81.6820   37.2060 C.3    30  ARG30       0.2205
     22  NE        59.7320   80.5120   38.0470 N.pl3  30  ARG30      -0.0865
     23  CZ        59.3120   80.5670   39.3100 C.cat  30  ARG30       0.5346
     24  NH1       59.0660   81.7490   39.8850 N.pl3  30  ARG30       0.1354
     25  NH2       59.1350   79.4390   40.0000 N.pl3  30  ARG30       0.1354
     26  N         59.5370   78.8200   31.8530 N.3    32  VAL32      -0.1231
     27  CA        60.2140   77.5450   32.0870 C.3    32  VAL32       0.1692
     28  C         59.2730   76.5150   32.7270 C.2    32  VAL32       0.2592
     29  O         59.6180   75.3320   32.8150 O.2    32  VAL32      -0.2718
     30  CB        61.4930   77.7050   32.9560 C.3    32  VAL32       0.0266
     31  CG1       61.1310   78.0180   34.4110 C.3    32  VAL32       0.0020
     32  CG2       62.3430   76.4430   32.8970 C.3    32  VAL32       0.0020
     33  N         58.1010   76.9720   33.1810 N.am   33  ASN33      -0.1974
     34  CA        57.0520   76.0790   33.6730 C.3    33  ASN33       0.1688
     35  C         55.8930   75.9100   32.6880 C.2    33  ASN33       0.2292
     36  O         55.4270   74.7900   32.4400 O.2    33  ASN33      -0.2864
     37  CB        56.5270   76.5700   35.0250 C.3    33  ASN33       0.1181
     38  CG        57.6130   76.5990   36.0790 C.2    33  ASN33       0.2629
     39  OD1       58.4220   75.6760   36.1570 O.2    33  ASN33      -0.2716
     40  ND2       57.6560   77.6630   36.8800 N.am   33  ASN33      -0.0877
     41  N         55.7520   71.5440   38.6100 N.3    45  HIS45      -0.1226
     42  CA        56.6540   72.4820   39.2600 C.3    45  HIS45       0.1752
     43  C         57.6420   71.6740   40.0960 C.2    45  HIS45       0.2596
     44  O         57.6710   71.7740   41.3240 O.2    45  HIS45      -0.2718
     45  CB        55.8860   73.4430   40.1760 C.3    45  HIS45       0.0759
     46  CG        55.1380   74.5080   39.4430 C.ar   45  HIS45       0.0818
     47  ND1       55.7480   75.6520   38.9720 N.ar   45  HIS45      -0.2268
     48  CD2       53.8330   74.6060   39.0960 C.ar   45  HIS45       0.1154
     49  CE1       54.8510   76.4040   38.3580 C.ar   45  HIS45       0.1986
     50  NE2       53.6840   75.7870   38.4110 N.ar   45  HIS45      -0.2212
     51  N         58.4460   70.8600   39.4290 N.am   46  HIS46      -0.1961
     52  CA        59.4770   70.0880   40.1120 C.3    46  HIS46       0.1787
     53  C         60.5380   69.7700   39.0720 C.2    46  HIS46       0.2620
     54  O         60.3440   70.0280   37.8900 O.2    46  HIS46      -0.2715
     55  CB        58.9030   68.8060   40.7360 C.3    46  HIS46       0.0785
     56  CG        58.2330   67.8930   39.7490 C.ar   46  HIS46       0.0821
     57  ND1       56.8850   67.6060   39.7960 N.ar   46  HIS46      -0.2267
     58  CD2       58.7270   67.2030   38.6900 C.ar   46  HIS46       0.1154
     59  CE1       56.5750   66.7860   38.8050 C.ar   46  HIS46       0.1986
     60  NE2       57.6760   66.5170   38.1240 N.ar   46  HIS46      -0.2212
     61  N         61.6550   69.2010   39.4970 N.am   47  TYR47      -0.1974
     62  CA        62.7680   69.0630   38.5860 C.3    47  TYR47       0.1639
     63  C         62.8010   67.6970   37.8880 C.2    47  TYR47       0.2290
     64  O         61.9440   66.8560   38.1380 O.2    47  TYR47      -0.2864
     65  CB        64.0530   69.4610   39.2990 C.3    47  TYR47       0.0560
     66  CG        63.9270   70.8730   39.8120 C.ar   47  TYR47      -0.0198
     67  CD1       63.6280   71.9020   38.9430 C.ar   47  TYR47      -0.0009
     68  CD2       64.0560   71.1710   41.1600 C.ar   47  TYR47      -0.0009
     69  CE1       63.4990   73.2010   39.3880 C.ar   47  TYR47       0.0417
     70  CE2       63.9150   72.4740   41.6260 C.ar   47  TYR47       0.0417
     71  CZ        63.6350   73.4830   40.7280 C.ar   47  TYR47       0.1957
     72  OH        63.5010   74.7820   41.1470 O.3    47  TYR47      -0.2866
     73  N         61.1030   65.9540   33.7340 N.3    77  GLU77      -0.1245
     74  CA        60.2170   66.3280   34.8440 C.3    77  GLU77       0.1567
     75  C         59.0900   65.3170   35.0140 C.2    77  GLU77       0.2260
     76  O         58.7320   64.9460   36.1380 O.2    77  GLU77      -0.2867
     77  CB        59.6670   67.7540   34.6510 C.3    77  GLU77       0.0388
     78  CG        60.7600   68.8030   34.7550 C.3    77  GLU77       0.1160
     79  CD        60.2300   70.2270   34.7890 C.2    77  GLU77       0.3649
     80  OE1       59.0050   70.4060   34.6870 O.co2  77  GLU77      -0.2457
     81  OE2       61.0430   71.1700   34.9160 O.co2  77  GLU77      -0.2457
     82  N         58.3900   68.1140   46.0090 N.3   169  GLU169     -0.1245
     83  CA        58.9950   69.4360   46.1280 C.3   169  GLU169      0.1567
     84  C         58.0600   70.4720   46.7450 C.2   169  GLU169      0.2260
     85  O         57.8270   71.5410   46.1490 O.2   169  GLU169     -0.2867
     86  CB        59.4700   69.9180   44.7650 C.3   169  GLU169      0.0388
     87  CG        60.7180   69.1780   44.2840 C.3   169  GLU169      0.1160
     88  CD        61.2620   69.7760   43.0270 C.2   169  GLU169      0.3649
     89  OE1       61.1250   71.0120   42.8530 O.co2 169  GLU169     -0.2457
     90  OE2       61.8040   69.0170   42.2000 O.co2 169  GLU169     -0.2457
     91  N         59.4850   71.8930   51.7600 N.3   172  MET172     -0.1230
     92  CA        60.3490   72.9920   52.2040 C.3   172  MET172      0.1702
     93  C         59.6110   74.3000   52.5360 C.2   172  MET172      0.2592
     94  O         60.2460   75.3460   52.7230 O.2   172  MET172     -0.2718
     95  CB        61.4930   73.2480   51.2020 C.3   172  MET172      0.0401
     96  CG        61.0870   73.6650   49.7740 C.3   172  MET172      0.0596
     97  SD        60.3810   72.2990   48.7960 S.3   172  MET172     -0.1393
     98  CE        61.8050   71.1910   48.7540 C.3   172  MET172      0.0692
     99  N         58.2830   74.2350   52.6410 N.am  173  TYR173     -0.1976
    100  CA        57.4710   75.4120   52.9830 C.3   173  TYR173      0.1639
    101  C         56.7890   75.2420   54.3280 C.2   173  TYR173      0.2290
    102  O         55.9820   76.0820   54.7420 O.2   173  TYR173     -0.2864
    103  CB        56.3840   75.6560   51.9290 C.3   173  TYR173      0.0560
    104  CG        56.9140   75.9890   50.5540 C.ar  173  TYR173     -0.0198
    105  CD1       57.3820   77.2720   50.2560 C.ar  173  TYR173     -0.0009
    106  CD2       56.9380   75.0270   49.5530 C.ar  173  TYR173     -0.0009
    107  CE1       57.8710   77.5850   48.9900 C.ar  173  TYR173      0.0417
    108  CE2       57.4190   75.3220   48.2900 C.ar  173  TYR173      0.0417
    109  CZ        57.8740   76.6010   48.0100 C.ar  173  TYR173      0.1957
    110  OH        58.3540   76.8760   46.7610 O.3   173  TYR173     -0.2866
    111  N         64.5640   68.4170   47.9590 N.3   198  GLY198     -0.1225
    112  CA        65.9430   68.8570   48.0260 C.3   198  GLY198      0.1811
    113  C         66.2300   69.1600   49.4920 C.2   198  GLY198      0.2280
    114  O         65.5920   70.0340   50.0840 O.2   198  GLY198     -0.2866
    115  N         69.1950   79.3780   47.3020 N.3   214  ILE214     -0.1245
    116  CA        67.9640   78.7100   46.8700 C.3   214  ILE214      0.1561
    117  C         66.7890   79.0920   47.7840 C.2   214  ILE214      0.2260
    118  O         65.6900   79.3930   47.3030 O.2   214  ILE214     -0.2867
    119  CB        68.1410   77.1540   46.7910 C.3   214  ILE214      0.0252
    120  CG1       69.3150   76.8050   45.8570 C.3   214  ILE214      0.0019
    121  CG2       66.8450   76.4780   46.3270 C.3   214  ILE214      0.0019
    122  CD1       69.6730   75.3300   45.7810 C.3   214  ILE214      0.0001
    123  N         65.7900   82.6260   46.9030 N.3   217  HIS217     -0.1226
    124  CA        65.1580   82.6350   45.5870 C.3   217  HIS217      0.1752
    125  C         63.6830   82.2150   45.6340 C.2   217  HIS217      0.2596
    126  O         62.8410   82.8320   44.9750 O.2   217  HIS217     -0.2718
    127  CB        65.9470   81.7320   44.6280 C.3   217  HIS217      0.0759
    128  CG        65.4010   81.6940   43.2300 C.ar  217  HIS217      0.0818
    129  ND1       65.7290   82.6360   42.2760 N.ar  217  HIS217     -0.2268
    130  CD2       64.5740   80.8120   42.6180 C.ar  217  HIS217      0.1154
    131  CE1       65.1040   82.3500   41.1460 C.ar  217  HIS217      0.1986
    132  NE2       64.4000   81.2450   41.3260 N.ar  217  HIS217     -0.2212
    133  N         63.3710   81.1770   46.4100 N.am  218  PHE218     -0.1976
    134  CA        62.0070   80.6240   46.4490 C.3   218  PHE218      0.1639
    135  C         61.2460   81.0040   47.7280 C.2   218  PHE218      0.2290
    136  O         60.0910   80.6220   47.9050 O.2   218  PHE218     -0.2864
    137  CB        62.0270   79.0950   46.3210 C.3   218  PHE218      0.0560
    138  CG        62.4790   78.5940   44.9750 C.ar  218  PHE218     -0.0200
    139  CD1       61.6890   78.7800   43.8480 C.ar  218  PHE218     -0.0042
    140  CD2       63.6890   77.9280   44.8360 C.ar  218  PHE218     -0.0042
    141  CE1       62.1050   78.3130   42.5980 C.ar  218  PHE218     -0.0003
    142  CE2       64.1030   77.4480   43.5940 C.ar  218  PHE218     -0.0003
    143  CZ        63.3080   77.6460   42.4810 C.ar  218  PHE218     -0.0000
    144  N         61.7810   79.7970   50.6040 N.3   220  CYS220     -0.1235
    145  CA        61.4880   78.5090   51.2540 C.3   220  CYS220      0.1677
    146  C         62.4600   78.2360   52.3970 C.2   220  CYS220      0.2270
    147  O         63.2880   79.0880   52.7260 O.2   220  CYS220     -0.2867
    148  CB        61.5070   77.3510   50.2430 C.3   220  CYS220      0.0956
    149  SG        63.0800   77.1090   49.3810 S.3   220  CYS220     -0.0801
    150  N         64.6280   75.0580   53.1820 N.3   222  ILE222     -0.1245
    151  CA        65.1980   73.7330   52.9710 C.3   222  ILE222      0.1561
    152  C         65.6410   73.0630   54.2830 C.2   222  ILE222      0.2260
    153  O         66.3960   73.6320   55.0660 O.2   222  ILE222     -0.2867
    154  CB        66.3520   73.8160   51.9610 C.3   222  ILE222      0.0252
    155  CG1       65.7760   74.0280   50.5520 C.3   222  ILE222      0.0019
    156  CG2       67.2230   72.5690   52.0220 C.3   222  ILE222      0.0019
    157  CD1       66.7910   74.5110   49.5180 C.3   222  ILE222      0.0001
    158  N         69.6140   67.0180   34.0250 N.3   252  TYR252     -0.1241
    159  CA        68.5290   67.9790   33.8290 C.3   252  TYR252      0.1605
    160  C         68.9840   69.4280   34.0460 C.2   252  TYR252      0.2264
    161  O         68.6630   70.3040   33.2440 O.2   252  TYR252     -0.2867
    162  CB        67.3560   67.6400   34.7550 C.3   252  TYR252      0.0534
    163  CG        66.3420   68.7500   34.9320 C.ar  252  TYR252     -0.0201
    164  CD1       66.5010   69.7230   35.9310 C.ar  252  TYR252     -0.0009
    165  CD2       65.2120   68.8190   34.1240 C.ar  252  TYR252     -0.0009
    166  CE1       65.5710   70.7380   36.0960 C.ar  252  TYR252      0.0417
    167  CE2       64.2690   69.8410   34.2860 C.ar  252  TYR252      0.0417
    168  CZ        64.4530   70.7930   35.2640 C.ar  252  TYR252      0.1957
    169  OH        63.5110   71.8010   35.4170 O.3   252  TYR252     -0.2866
    170  N         69.3490   72.4670   31.3920 N.3   256  ARG256     -0.1245
    171  CA        68.5320   73.6550   31.6310 C.3   256  ARG256      0.1563
    172  C         69.3980   74.9230   31.6510 C.2   256  ARG256      0.2260
    173  O         68.9670   76.0000   31.2190 O.2   256  ARG256     -0.2867
    174  CB        67.7670   73.4970   32.9530 C.3   256  ARG256      0.0307
    175  CG        66.9810   74.7270   33.3740 C.3   256  ARG256      0.0489
    176  CD        66.0850   74.4030   34.5600 C.3   256  ARG256      0.2205
    177  NE        65.7130   75.6100   35.2850 N.pl3 256  ARG256     -0.0865
    178  CZ        64.5780   75.7590   35.9600 C.cat 256  ARG256      0.5346
    179  NH1       63.6850   74.7790   35.9740 N.pl3 256  ARG256      0.1354
    180  NH2       64.3280   76.8980   36.6030 N.pl3 256  ARG256      0.1354
    181  N         66.1630   80.6690   34.9590 N.3   263  THR263     -0.1218
    182  CA        65.5880   81.6100   35.9170 C.3   263  THR263      0.1862
    183  C         66.6520   82.2800   36.7830 C.2   263  THR263      0.2287
    184  O         66.3500   83.1910   37.5570 O.2   263  THR263     -0.2866
    185  CB        64.5630   80.9260   36.8300 C.3   263  THR263      0.1770
    186  OG1       65.1730   79.8060   37.4820 O.3   263  THR263     -0.2211
    187  CG2       63.3740   80.4430   36.0310 C.3   263  THR263      0.0375
    188  N         68.6460   80.5670   38.9980 N.3   265  ILE265     -0.1245
    189  CA        69.0110   79.7360   40.1550 C.3   265  ILE265      0.1561
    190  C         69.7800   78.4710   39.7530 C.2   265  ILE265      0.2260
    191  O         70.2200   77.6890   40.6010 O.2   265  ILE265     -0.2867
    192  CB        67.7860   79.3630   40.9990 C.3   265  ILE265      0.0252
    193  CG1       68.2100   79.0510   42.4430 C.3   265  ILE265      0.0019
    194  CG2       66.9970   78.2080   40.3510 C.3   265  ILE265      0.0019
    195  CD1       69.0240   80.1610   43.0850 C.3   265  ILE265      0.0001
    196  N         72.0110   75.3040   42.4100 N.3   269  PHE269     -0.1241
    197  CA        71.7030   73.8730   42.3670 C.3   269  PHE269      0.1605
    198  C         72.9020   73.0500   41.8880 C.2   269  PHE269      0.2264
    199  O         73.3650   72.1340   42.5730 O.2   269  PHE269     -0.2867
    200  CB        70.5170   73.6150   41.4340 C.3   269  PHE269      0.0534
    201  CG        69.1750   73.8240   42.0760 C.ar  269  PHE269     -0.0203
    202  CD1       68.5110   72.7620   42.6800 C.ar  269  PHE269     -0.0042
    203  CD2       68.5680   75.0790   42.0670 C.ar  269  PHE269     -0.0042
    204  CE1       67.2520   72.9440   43.2710 C.ar  269  PHE269     -0.0003
    205  CE2       67.3170   75.2750   42.6520 C.ar  269  PHE269     -0.0003
    206  CZ        66.6570   74.2050   43.2630 C.ar  269  PHE269     -0.0000
    207  N         74.2210   70.0440   49.1740 N.3   278  PHE278     -0.1241
    208  CA        72.7930   69.9200   48.8890 C.3   278  PHE278      0.1605
    209  C         72.5460   68.5980   48.1810 C.2   278  PHE278      0.2264
    210  O         73.4080   68.1010   47.4670 O.2   278  PHE278     -0.2867
    211  CB        72.3820   71.0840   47.9900 C.3   278  PHE278      0.0534
    212  CG        70.9040   71.2490   47.8090 C.ar  278  PHE278     -0.0203
    213  CD1       70.3800   71.4600   46.5430 C.ar  278  PHE278     -0.0042
    214  CD2       70.0440   71.2510   48.8940 C.ar  278  PHE278     -0.0042
    215  CE1       69.0190   71.6290   46.3490 C.ar  278  PHE278     -0.0003
    216  CE2       68.6720   71.4110   48.7050 C.ar  278  PHE278     -0.0003
    217  CZ        68.1690   71.6080   47.4310 C.ar  278  PHE278     -0.0000
    218  N         69.3510   65.7470   46.3730 N.3   280  TYR280     -0.1241
    219  CA        68.0130   65.5250   45.8540 C.3   280  TYR280      0.1605
    220  C         67.6640   64.0850   46.1760 C.2   280  TYR280      0.2264
    221  O         68.3590   63.1690   45.7510 O.2   280  TYR280     -0.2867
    222  CB        68.0160   65.7530   44.3450 C.3   280  TYR280      0.0534
    223  CG        66.6620   66.0200   43.7170 C.ar  280  TYR280     -0.0201
    224  CD1       66.1700   65.1910   42.7090 C.ar  280  TYR280     -0.0009
    225  CD2       65.8820   67.1120   44.1200 C.ar  280  TYR280     -0.0009
    226  CE1       64.9530   65.4370   42.1100 C.ar  280  TYR280      0.0417
    227  CE2       64.6480   67.3590   43.5380 C.ar  280  TYR280      0.0417
    228  CZ        64.1970   66.5190   42.5200 C.ar  280  TYR280      0.1957
    229  OH        62.9840   66.7490   41.9190 O.3   280  TYR280     -0.2866
@<TRIPOS>BOND
     1   173   172    2
     2   170   171    1
     3   171   172    1
     4   171   174    1
     5    26    27    1
     6    27    28    1
     7    27    30    1
     8    36    35    2
     9    35    34    1
    10    28    29    2
    11    28    33   am
    12    32    30    1
    13   174   175    1
    14    30    31    1
    15    17    18    2
    16    17    16    1
    17    33    34    1
    18   161   160    2
    19   175   176    1
    20    34    37    1
    21    73    74    1
    22   159   158    1
    23   159   160    1
    24   159   162    1
    25   165   167   ar
    26   165   163   ar
    27   167   168   ar
    28    16    15    1
    29    16    19    1
    30   176   177    1
    31    77    78    1
    32    77    74    1
    33    80    79   ar
    34   162   163    1
    35    78    79    1
    36    79    81   ar
    37    74    75    1
    38   163   164   ar
    39   181   182    1
    40    75    76    2
    41    37    38    1
    42    19    20    1
    43   168   169    1
    44   168   166   ar
    45   177   178    2
    46   182   183    1
    47   182   185    1
    48   164   166   ar
    49   178   179    1
    50   178   180    1
    51   187   185    1
    52    38    39    2
    53    38    40   am
    54    20    21    1
    55   183   184    2
    56   185   186    1
    57    21    22    1
    58    63    64    2
    59    63    62    1
    60    54    53    2
    61    22    23    2
    62    60    58   ar
    63    60    59   ar
    64    49    50   ar
    65    49    47   ar
    66    50    48   ar
    67    62    65    1
    68    62    61    1
    69    41    42    1
    70    58    56   ar
    71    59    57   ar
    72    67    69   ar
    73    67    66   ar
    74    47    46   ar
    75   188   189    1
    76    53    61   am
    77    53    52    1
    78    48    46   ar
    79    42    43    1
    80    42    45    1
    81    65    66    1
    82    23    24    1
    83    23    25    1
    84    69    71   ar
    85    51    43   am
    86    51    52    1
    87    46    45    1
    88    56    57   ar
    89    56    55    1
    90   190   189    1
    91   190   191    2
    92    66    68   ar
    93    43    44    2
    94    52    55    1
    95   189   192    1
    96   194   192    1
    97    71    72    1
    98    71    70   ar
    99   192   193    1
   100   131   132   ar
   101   131   129   ar
   102    68    70   ar
   103   132   130   ar
   104   200   201    1
   105   200   197    1
   106     4     3    2
   107    13    11   ar
   108    13    14   ar
   109   198   197    1
   110   198   199    2
   111   229   228    1
   112   203   201   ar
   113   203   205   ar
   114   201   202   ar
   115   226   228   ar
   116   226   224   ar
   117    90    88   ar
   118   129   128   ar
   119    11     8   ar
   120   197   196    1
   121   193   195    1
   122   143   141   ar
   123   143   142   ar
   124   228   227   ar
   125    14    12   ar
   126   141   139   ar
   127   130   128   ar
   128   205   206   ar
   129   202   204   ar
   130   224   223   ar
   131     3     2    1
   132    89    88   ar
   133    88    87    1
   134   128   127    1
   135   206   204   ar
   136   227   225   ar
   137   142   140   ar
   138     2     5    1
   139     2     1    1
   140     8    10   ar
   141     8     6   ar
   142   223   225   ar
   143   223   222    1
   144   139   138   ar
   145    12    10   ar
   146     5     6    1
   147    87    86    1
   148   222   219    1
   149    10     9   ar
   150     6     7   ar
   151   127   124    1
   152    86    83    1
   153   140   138   ar
   154   126   125    2
   155   138   137    1
   156   124   125    1
   157   124   123    1
   158   125   133   am
   159   221   220    2
   160   122   120    1
   161     9     7   ar
   162   219   220    1
   163   219   218    1
   164   120   119    1
   165    82    83    1
   166    83    84    1
   167    85    84    2
   168   137   134    1
   169   121   119    1
   170   215   213   ar
   171   215   217   ar
   172   133   134    1
   173   134   135    1
   174   213   212   ar
   175   110   109    1
   176   119   116    1
   177   116   115    1
   178   116   117    1
   179   118   117    2
   180   217   216   ar
   181   210   209    2
   182   135   136    2
   183   212   211    1
   184   212   214   ar
   185   111   112    1
   186   211   208    1
   187   109   108   ar
   188   109   107   ar
   189   112   113    1
   190   209   208    1
   191   108   106   ar
   192   216   214   ar
   193    98    97    1
   194    97    96    1
   195   208   207    1
   196   107   105   ar
   197   149   148    1
   198   113   114    2
   199   157   155    1
   200   106   104   ar
   201    96    95    1
   202   148   145    1
   203   105   104   ar
   204   155   154    1
   205   104   103    1
   206   144   145    1
   207    95    92    1
   208   145   146    1
   209    91    92    1
   210   103   100    1
   211   154   156    1
   212   154   151    1
   213    92    93    1
   214   146   147    2
   215    93    99   am
   216    93    94    2
   217    99   100    1
   218   151   150    1
   219   151   152    1
   220   100   101    1
   221   152   153    2
   222   101   102    2
