@<TRIPOS>MOLECULE
tmp/3vc4A00.pdb
 150 140 0 0 0
SMALL
GASTEIGER

@<TRIPOS>ATOM
      1  N         42.0750    4.2870   -4.6080 N.3    12  LEU12      -0.1245
      2  CA        42.5970    2.9890   -5.0270 C.3    12  LEU12       0.1561
      3  C         41.5520    2.2420   -5.8230 C.2    12  LEU12       0.2260
      4  O         41.8980    1.4710   -6.7240 O.2    12  LEU12      -0.2867
      5  CB        43.1290    2.1590   -3.8630 C.3    12  LEU12       0.0270
      6  CG        44.3630    2.7620   -3.1560 C.3    12  LEU12       0.0019
      7  CD1       44.6260    2.0720   -1.8190 C.3    12  LEU12       0.0001
      8  CD2       45.5990    2.6890   -4.0360 C.3    12  LEU12       0.0001
      9  N         31.8570   -2.3760   -2.5170 N.3    17  PHE17      -0.1241
     10  CA        32.4950   -2.2340   -1.2020 C.3    17  PHE17       0.1605
     11  C         32.5720   -0.7620   -0.7670 C.2    17  PHE17       0.2264
     12  O         32.9160   -0.5090    0.3990 O.2    17  PHE17      -0.2867
     13  CB        33.9400   -2.8010   -1.2360 C.3    17  PHE17       0.0534
     14  CG        34.7600   -2.2670   -2.3970 C.ar   17  PHE17      -0.0203
     15  CD1       35.4620   -1.0550   -2.2720 C.ar   17  PHE17      -0.0042
     16  CD2       34.7570   -2.9390   -3.6320 C.ar   17  PHE17      -0.0042
     17  CE1       36.1910   -0.5040   -3.3750 C.ar   17  PHE17      -0.0003
     18  CE2       35.4680   -2.4250   -4.7330 C.ar   17  PHE17      -0.0003
     19  CZ        36.2020   -1.1890   -4.6030 C.ar   17  PHE17      -0.0000
     20  N         37.7650    3.4980   -1.7960 N.3    20  VAL20      -0.1245
     21  CA        38.9270    3.2720   -0.9070 C.3    20  VAL20       0.1561
     22  C         40.0770    4.1480   -1.3600 C.2    20  VAL20       0.2260
     23  O         40.4140    4.0780   -2.5210 O.2    20  VAL20      -0.2867
     24  CB        39.4250    1.7790   -0.9530 C.3    20  VAL20       0.0252
     25  CG1       40.6720    1.5450   -0.1050 C.3    20  VAL20       0.0019
     26  CG2       38.3500    0.8280   -0.5350 C.3    20  VAL20       0.0019
     27  N         44.8580    2.5750    4.4130 N.3    33  ALA33      -0.1245
     28  CA        43.8370    2.6540    3.3770 C.3    33  ALA33       0.1562
     29  C         42.6430    3.2060    4.1040 C.2    33  ALA33       0.2260
     30  O         42.4380    2.8640    5.2640 O.2    33  ALA33      -0.2867
     31  CB        43.5210    1.2880    2.7660 C.3    33  ALA33       0.0290
     32  N         38.6440    3.7740    3.8140 N.3    35  LYS35      -0.1245
     33  CA        37.5270    3.1380    3.1450 C.3    35  LYS35       0.1561
     34  C         36.2030    3.7480    3.6000 C.2    35  LYS35       0.2260
     35  O         35.8850    3.7180    4.7690 O.2    35  LYS35      -0.2867
     36  CB        37.5350    1.6560    3.4500 C.3    35  LYS35       0.0271
     37  CG        36.3030    0.9370    2.8170 C.3    35  LYS35       0.0035
     38  CD        36.2760   -0.5580    3.2400 C.3    35  LYS35       0.0206
     39  CE        35.2760   -1.3860    2.4220 C.3    35  LYS35       0.1093
     40  NZ        35.3870   -2.8780    2.5780 N.3    35  LYS35      -0.1314
     41  N         30.6530   -5.3170    9.1680 N.3    57  GLU57      -0.1245
     42  CA        32.0380   -5.3080    8.7610 C.3    57  GLU57       0.1567
     43  C         32.9610   -4.8980    9.8710 C.2    57  GLU57       0.2260
     44  O         34.0830   -5.4500   10.0380 O.2    57  GLU57      -0.2867
     45  CB        32.2010   -4.3790    7.5320 C.3    57  GLU57       0.0388
     46  CG        33.5910   -4.3020    6.9820 C.3    57  GLU57       0.1160
     47  CD        33.6890   -3.5430    5.6260 C.2    57  GLU57       0.3649
     48  OE1       32.6610   -3.1100    5.0550 O.co2  57  GLU57      -0.2457
     49  OE2       34.8210   -3.4160    5.1220 O.co2  57  GLU57      -0.2457
     50  N         35.7390   -7.1860   11.6460 N.3    61  LEU61      -0.1245
     51  CA        37.1640   -6.7630   11.6050 C.3    61  LEU61       0.1561
     52  C         37.7310   -6.6890   13.0030 C.2    61  LEU61       0.2260
     53  O         38.8870   -7.0180   13.2240 O.2    61  LEU61      -0.2867
     54  CB        37.3830   -5.3930   10.9100 C.3    61  LEU61       0.0270
     55  CG        37.3600   -5.3200    9.3670 C.3    61  LEU61       0.0019
     56  CD1       37.0120   -3.9530    8.8410 C.3    61  LEU61       0.0001
     57  CD2       38.6410   -5.8390    8.6720 C.3    61  LEU61       0.0001
     58  N         43.7100   -8.4390    7.0870 N.3    72  ILE72      -0.1245
     59  CA        43.8510   -6.9910    7.2210 C.3    72  ILE72       0.1561
     60  C         43.4920   -6.5500    8.6760 C.2    72  ILE72       0.2260
     61  O         42.4640   -7.0640    9.2470 O.2    72  ILE72      -0.2867
     62  CB        42.9590   -6.2810    6.1810 C.3    72  ILE72       0.0252
     63  CG1       43.3800   -4.8200    5.9800 C.3    72  ILE72       0.0019
     64  CG2       41.4390   -6.3760    6.5380 C.3    72  ILE72       0.0019
     65  CD1       44.3180   -4.6480    4.8480 C.3    72  ILE72       0.0001
     66  N         42.5480    1.1860    7.5760 N.3    88  LEU88      -0.1231
     67  CA        43.0520   -0.1900    7.5070 C.3    88  LEU88       0.1693
     68  C         44.5290   -0.0720    7.2410 C.2    88  LEU88       0.2592
     69  O         44.9700    0.8960    6.6450 O.2    88  LEU88      -0.2718
     70  CB        42.3510   -1.0200    6.3760 C.3    88  LEU88       0.0284
     71  CG        40.8770   -1.1090    6.6930 C.3    88  LEU88       0.0019
     72  CD1       39.9780   -0.9870    5.4740 C.3    88  LEU88       0.0001
     73  CD2       40.5320   -2.3650    7.5290 C.3    88  LEU88       0.0001
     74  N         45.2900   -1.0460    7.6750 N.am   89  GLU89      -0.1966
     75  CA        46.7250   -1.0520    7.3920 C.3    89  GLU89       0.1733
     76  C         46.9760   -1.1540    5.8980 C.2    89  GLU89       0.2616
     77  O         46.1580   -1.6630    5.1600 O.2    89  GLU89      -0.2715
     78  CB        47.3650   -2.2480    8.0870 C.3    89  GLU89       0.0429
     79  CG        47.1750   -3.5170    7.2500 C.3    89  GLU89       0.1163
     80  CD        47.7440   -4.7840    7.9050 C.2    89  GLU89       0.3649
     81  OE1       46.9260   -5.6890    8.1520 O.co2  89  GLU89      -0.2457
     82  OE2       48.9860   -4.8880    8.1080 O.co2  89  GLU89      -0.2457
     83  N         48.0820   -0.6610    5.4120 N.am   90  ARG90      -0.1964
     84  CA        48.3260   -0.8150    3.9900 C.3    90  ARG90       0.1714
     85  C         49.7690   -1.1720    3.7990 C.2    90  ARG90       0.2458
     86  O         50.6560   -0.3960    4.1320 O.2    90  ARG90      -0.2730
     87  CB        47.9720    0.4600    3.2120 C.3    90  ARG90       0.0347
     88  CG        48.4440    0.4650    1.7690 C.3    90  ARG90       0.0492
     89  CD        47.9730    1.7500    1.0070 C.3    90  ARG90       0.2205
     90  NE        48.4560    3.0130    1.5650 N.pl3  90  ARG90      -0.0865
     91  CZ        49.6400    3.5560    1.2480 C.cat  90  ARG90       0.5346
     92  NH1       50.4730    2.9040    0.4160 N.pl3  90  ARG90       0.1354
     93  NH2       50.0040    4.7360    1.7630 N.pl3  90  ARG90       0.1354
     94  N         50.0090   -2.3940    3.3480 N.am   91  PRO91      -0.2727
     95  CA        51.3560   -2.8350    2.9820 C.3    91  PRO91       0.1402
     96  C         51.8200   -2.0710    1.7480 C.2    91  PRO91       0.2269
     97  O         51.0120   -1.5490    0.9870 O.2    91  PRO91      -0.2865
     98  CB        51.1700   -4.3260    2.6710 C.3    91  PRO91       0.0296
     99  CG        49.6930   -4.5160    2.4270 C.3    91  PRO91       0.0237
    100  CD        48.9680   -3.4290    3.1590 C.3    91  PRO91       0.0939
    101  N         52.4810   -3.1280   -2.7440 N.3    94  VAL94      -0.1245
    102  CA        51.4050   -4.0820   -2.7360 C.3    94  VAL94       0.1561
    103  C         50.7130   -4.2900   -4.1150 C.2    94  VAL94       0.2260
    104  O         50.6780   -3.4190   -4.9610 O.2    94  VAL94      -0.2867
    105  CB        50.3540   -3.6390   -1.6900 C.3    94  VAL94       0.0252
    106  CG1       49.6010   -2.3580   -2.1780 C.3    94  VAL94       0.0019
    107  CG2       49.3890   -4.7810   -1.4510 C.3    94  VAL94       0.0019
    108  N         47.1160   -6.6660   -5.6390 N.3    96  ASP96      -0.1239
    109  CA        46.1020   -7.6770   -5.3860 C.3    96  ASP96       0.1674
    110  C         46.2830   -8.9450   -6.2570 C.2    96  ASP96       0.2266
    111  O         47.0520   -8.9440   -7.2370 O.2    96  ASP96      -0.2867
    112  CB        44.6650   -7.0950   -5.3460 C.3    96  ASP96       0.1410
    113  CG        44.0790   -6.7680   -6.7260 C.2    96  ASP96       0.3668
    114  OD1       44.4330   -7.4230   -7.7350 O.co2  96  ASP96      -0.2456
    115  OD2       43.1730   -5.8750   -6.7770 O.co2  96  ASP96      -0.2456
    116  N         45.5450   -9.4130   -1.0390 N.3   142  LEU142     -0.1245
    117  CA        46.6790   -8.5260   -1.2580 C.3   142  LEU142      0.1561
    118  C         47.9430   -9.3050   -1.0400 C.2   142  LEU142      0.2260
    119  O         48.0040  -10.1120   -0.1540 O.2   142  LEU142     -0.2867
    120  CB        46.6910   -7.3580   -0.2660 C.3   142  LEU142      0.0270
    121  CG        45.4110   -6.5760   -0.3810 C.3   142  LEU142      0.0019
    122  CD1       45.4730   -5.2970    0.5340 C.3   142  LEU142      0.0001
    123  CD2       45.1690   -6.2400   -1.9380 C.3   142  LEU142      0.0001
    124  N         41.2400   -9.5250    2.6860 N.3   153  ILE153     -0.1231
    125  CA        40.7180   -8.1740    2.8800 C.3   153  ILE153      0.1692
    126  C         39.2660   -8.1790    2.5330 C.2   153  ILE153      0.2592
    127  O         38.8000   -9.1220    1.8790 O.2   153  ILE153     -0.2718
    128  CB        41.4170   -7.0900    1.9410 C.3   153  ILE153      0.0266
    129  CG1       41.1880   -7.3760    0.4520 C.3   153  ILE153      0.0019
    130  CG2       42.8840   -6.9300    2.2440 C.3   153  ILE153      0.0020
    131  CD1       41.4890   -6.1600   -0.4550 C.3   153  ILE153      0.0001
    132  N         38.5650   -7.1200    2.9460 N.am  154  ASP154     -0.1960
    133  CA        37.1870   -6.8360    2.5530 C.3   154  ASP154      0.1840
    134  C         36.1510   -7.7700    3.1870 C.2   154  ASP154      0.2622
    135  O         35.6870   -8.7360    2.5580 O.2   154  ASP154     -0.2715
    136  CB        37.0410   -6.7600    1.0440 C.3   154  ASP154      0.1450
    137  CG        35.7390   -6.0570    0.6050 C.2   154  ASP154      0.3671
    138  OD1       35.5570   -5.8620   -0.6150 O.co2 154  ASP154     -0.2456
    139  OD2       34.8720   -5.7470    1.4380 O.co2 154  ASP154     -0.2456
    140  N         35.7440   -7.4250    4.4190 N.am  155  PHE155     -0.1974
    141  CA        34.8000   -8.2440    5.1390 C.3   155  PHE155      0.1639
    142  C         33.4050   -7.7190    4.9670 C.2   155  PHE155      0.2290
    143  O         32.5260   -8.0590    5.7330 O.2   155  PHE155     -0.2864
    144  CB        35.1780   -8.3490    6.6440 C.3   155  PHE155      0.0560
    145  CG        36.4070   -9.2030    6.9010 C.ar  155  PHE155     -0.0200
    146  CD1       37.6580   -8.7980    6.4790 C.ar  155  PHE155     -0.0042
    147  CD2       36.2870  -10.4550    7.5460 C.ar  155  PHE155     -0.0042
    148  CE1       38.7950   -9.5790    6.7040 C.ar  155  PHE155     -0.0003
    149  CE2       37.3940  -11.2430    7.7610 C.ar  155  PHE155     -0.0003
    150  CZ        38.6590  -10.8130    7.3300 C.ar  155  PHE155     -0.0000
@<TRIPOS>BOND
     1   114   113   ar
     2   111   110    2
     3   115   113   ar
     4   113   112    1
     5     4     3    2
     6   110   109    1
     7     3     2    1
     8   108   109    1
     9   109   112    1
    10     2     1    1
    11     2     5    1
    12   104   103    2
    13    18    19   ar
    14    18    16   ar
    15    19    17   ar
    16   103   102    1
    17     8     6    1
    18     5     6    1
    19    16    14   ar
    20    17    15   ar
    21     6     7    1
    22   101   102    1
    23   102   105    1
    24    23    22    2
    25     9    10    1
    26    14    15   ar
    27    14    13    1
    28   106   105    1
    29   123   121    1
    30    20    21    1
    31   105   107    1
    32    22    21    1
    33   117   118    1
    34   117   116    1
    35   117   120    1
    36    13    10    1
    37    10    11    1
    38   118   119    2
    39    24    21    1
    40    24    26    1
    41    24    25    1
    42    11    12    2
    43   138   137   ar
    44   131   129    1
    45   121   120    1
    46   121   122    1
    47    92    91    1
    48   129   128    1
    49   137   136    1
    50   137   139   ar
    51    97    96    2
    52    89    90    1
    53    89    88    1
    54   136   133    1
    55    91    90    2
    56    91    93    1
    57    96    95    1
    58    88    87    1
    59   127   126    2
    60   128   130    1
    61   128   125    1
    62    39    40    1
    63    39    38    1
    64    99    98    1
    65    99   100    1
    66   126   125    1
    67   126   132   am
    68   133   132    1
    69   133   134    1
    70   135   134    2
    71    98    95    1
    72   124   125    1
    73    31    28    1
    74    37    38    1
    75    37    36    1
    76    95    94    1
    77    33    36    1
    78    33    34    1
    79    33    32    1
    80   100    94    1
    81   134   140   am
    82    87    84    1
    83    94    85   am
    84    28    29    1
    85    28    27    1
    86    34    35    2
    87    85    84    1
    88    85    86    2
    89    84    83    1
    90    29    30    2
    91   140   141    1
    92    65    63    1
    93   142   141    1
    94   142   143    2
    95    48    47   ar
    96    49    47   ar
    97   141   144    1
    98    77    76    2
    99    83    76   am
   100    72    71    1
   101    47    46    1
   102    76    75    1
   103    63    62    1
   104    62    64    1
   105    62    59    1
   106    70    71    1
   107    70    67    1
   108   146   148   ar
   109   146   145   ar
   110   144   145    1
   111    69    68    2
   112    71    73    1
   113   148   150   ar
   114   145   147   ar
   115    46    45    1
   116    58    59    1
   117    59    60    1
   118    68    67    1
   119    68    74   am
   120    79    80    1
   121    79    78    1
   122   150   149   ar
   123    75    74    1
   124    75    78    1
   125    67    66    1
   126    45    42    1
   127   147   149   ar
   128    80    82   ar
   129    80    81   ar
   130    57    55    1
   131    60    61    2
   132    42    41    1
   133    42    43    1
   134    56    55    1
   135    55    54    1
   136    43    44    2
   137    54    51    1
   138    51    50    1
   139    51    52    1
   140    52    53    2
