@<TRIPOS>MOLECULE
tmp/3vcaA00.pdb
 82 77 0 0 0
SMALL
GASTEIGER

@<TRIPOS>ATOM
      1  N         -2.6520   30.6690   28.7880 N.3    56  THR56      -0.1203
      2  CA        -2.8670   31.6060   27.6880 C.3    56  THR56       0.1994
      3  C         -1.6440   32.4820   27.4380 C.2    56  THR56       0.2618
      4  O         -0.8650   32.7650   28.3540 O.2    56  THR56      -0.2717
      5  CB        -4.0840   32.5420   27.9290 C.3    56  THR56       0.1784
      6  OG1       -3.8850   33.3000   29.1320 O.3    56  THR56      -0.2211
      7  CG2       -5.3880   31.7570   28.0280 C.3    56  THR56       0.0376
      8  N         -1.4980   32.9320   26.1950 N.am   57  LEU57      -0.1965
      9  CA        -0.4470   33.8710   25.8430 C.3    57  LEU57       0.1728
     10  C         -0.8190   34.6590   24.6040 C.2    57  LEU57       0.2616
     11  O         -1.6560   34.2310   23.8040 O.2    57  LEU57      -0.2715
     12  CB         0.8930   33.1650   25.5920 C.3    57  LEU57       0.0311
     13  CG         1.0740   32.3080   24.3390 C.3    57  LEU57       0.0022
     14  CD1        2.5530   32.1910   23.9800 C.3    57  LEU57       0.0001
     15  CD2        0.4490   30.9320   24.5160 C.3    57  LEU57       0.0001
     16  N         -0.1730   35.8080   24.4490 N.am   58  ARG58      -0.1977
     17  CA        -0.3400   36.6400   23.2670 C.3    58  ARG58       0.1597
     18  C          0.9330   36.5210   22.4350 C.2    58  ARG58       0.2287
     19  O          2.0320   36.4580   22.9950 O.2    58  ARG58      -0.2864
     20  CB        -0.5690   38.0950   23.6950 C.3    58  ARG58       0.0334
     21  CG        -1.1730   39.0120   22.6400 C.3    58  ARG58       0.0492
     22  CD        -1.6680   40.3000   23.3020 C.3    58  ARG58       0.2205
     23  NE        -1.8270   41.4070   22.3650 N.pl3  58  ARG58      -0.0865
     24  CZ        -0.9460   42.3930   22.2130 C.cat  58  ARG58       0.5346
     25  NH1        0.1770   42.4060   22.9280 N.pl3  58  ARG58       0.1354
     26  NH2       -1.1850   43.3640   21.3420 N.pl3  58  ARG58       0.1354
     27  N         -4.1200   35.7840   20.0770 N.3    63  GLU63      -0.1245
     28  CA        -4.4210   35.2920   21.4150 C.3    63  GLU63       0.1567
     29  C         -4.5210   33.7740   21.3510 C.2    63  GLU63       0.2260
     30  O         -5.3990   33.2320   20.6740 O.2    63  GLU63      -0.2867
     31  CB        -5.7490   35.8770   21.9290 C.3    63  GLU63       0.0388
     32  CG        -5.7300   37.3860   22.1610 C.3    63  GLU63       0.1160
     33  CD        -5.0550   37.7670   23.4670 C.2    63  GLU63       0.3649
     34  OE1       -4.5160   36.8710   24.1590 O.co2  63  GLU63      -0.2457
     35  OE2       -5.0780   38.9660   23.8130 O.co2  63  GLU63      -0.2457
     36  N         -7.7510   31.6990   20.8440 N.3    79  ASN79      -0.1240
     37  CA        -8.5790   32.0260   21.9960 C.3    79  ASN79       0.1653
     38  C         -9.5610   33.1130   21.5900 C.2    79  ASN79       0.2266
     39  O         -9.5690   34.2050   22.1580 O.2    79  ASN79      -0.2867
     40  CB        -7.6490   32.4860   23.1320 C.3    79  ASN79       0.1155
     41  CG        -8.3440   32.6160   24.4730 C.2    79  ASN79       0.2627
     42  OD1       -9.4740   32.1500   24.6780 O.2    79  ASN79      -0.2716
     43  ND2       -7.6510   33.2470   25.4140 N.am   79  ASN79      -0.0877
     44  N        -12.5510   36.6030   23.8050 N.3    87  LEU87      -0.1245
     45  CA       -11.6410   35.6860   24.4650 C.3    87  LEU87       0.1561
     46  C        -12.5020   34.6850   25.2100 C.2    87  LEU87       0.2260
     47  O        -13.5430   35.0490   25.7610 O.2    87  LEU87      -0.2867
     48  CB       -10.8030   36.3900   25.5270 C.3    87  LEU87       0.0270
     49  CG        -9.7790   37.4350   25.1330 C.3    87  LEU87       0.0019
     50  CD1       -9.1090   37.9590   26.4190 C.3    87  LEU87       0.0001
     51  CD2       -8.7350   36.8390   24.2070 C.3    87  LEU87       0.0001
     52  N        -10.7590   32.0760   27.3890 N.3    89  CYS89      -0.1221
     53  CA       -10.0060   31.9980   28.6350 C.3    89  CYS89       0.1808
     54  C         -9.3210   33.3200   28.9240 C.2    89  CYS89       0.2601
     55  O         -8.4970   33.7960   28.1410 O.2    89  CYS89      -0.2717
     56  CB        -8.9810   30.8810   28.5430 C.3    89  CYS89       0.0970
     57  SG        -9.7340   29.2730   28.3540 S.3    89  CYS89      -0.0800
     58  N         -9.6700   33.9230   30.0530 N.am   90  LYS90      -0.1965
     59  CA        -9.1830   35.2570   30.3710 C.3    90  LYS90       0.1728
     60  C         -7.9670   35.2120   31.2960 C.2    90  LYS90       0.2616
     61  O         -7.1150   36.1010   31.2640 O.2    90  LYS90      -0.2715
     62  CB       -10.3190   36.0960   30.9730 C.3    90  LYS90       0.0311
     63  CG       -11.5330   36.1760   30.0430 C.3    90  LYS90       0.0038
     64  CD       -12.8220   36.5870   30.7510 C.3    90  LYS90       0.0206
     65  CE       -12.7960   38.0480   31.1640 C.3    90  LYS90       0.1093
     66  NZ       -14.1910   38.5700   31.3380 N.3    90  LYS90      -0.1314
     67  N         -7.8730   34.1550   32.0940 N.am   91  ALA91      -0.1963
     68  CA        -6.7830   34.0340   33.0490 C.3    91  ALA91       0.1728
     69  C         -5.5130   33.5250   32.3780 C.2    91  ALA91       0.2616
     70  O         -5.5630   32.8880   31.3240 O.2    91  ALA91      -0.2715
     71  CB        -7.1860   33.1120   34.1900 C.3    91  ALA91       0.0334
     72  N         -4.3710   33.8120   32.9910 N.am   92  ARG92      -0.1977
     73  CA        -3.0940   33.3260   32.4920 C.3    92  ARG92       0.1597
     74  C         -3.0180   31.7920   32.5380 C.2    92  ARG92       0.2287
     75  O         -2.4180   31.1650   31.6710 O.2    92  ARG92      -0.2864
     76  CB        -1.9480   33.9520   33.2950 C.3    92  ARG92       0.0334
     77  CG        -0.5760   33.3380   33.0390 C.3    92  ARG92       0.0492
     78  CD        -0.0150   33.7120   31.6690 C.3    92  ARG92       0.2205
     79  NE         0.2100   35.1500   31.5330 N.pl3  92  ARG92      -0.0865
     80  CZ        -0.4040   35.9200   30.6370 C.cat  92  ARG92       0.5346
     81  NH1       -0.1440   37.2210   30.5860 N.pl3  92  ARG92       0.1354
     82  NH2       -1.2840   35.3880   29.7950 N.pl3  92  ARG92       0.1354
@<TRIPOS>BOND
     1    27    28    1
     2    30    29    2
     3    36    37    1
     4    26    24    1
     5    29    28    1
     6    28    31    1
     7    38    37    1
     8    38    39    2
     9    31    32    1
    10    37    40    1
    11    32    33    1
    12    24    23    2
    13    24    25    1
    14    23    22    1
    15    18    19    2
    16    18    17    1
    17    21    22    1
    18    21    20    1
    19    40    41    1
    20    17    20    1
    21    17    16    1
    22    33    35   ar
    23    33    34   ar
    24    11    10    2
    25    44    45    1
    26    14    13    1
    27    51    49    1
    28    13    15    1
    29    13    12    1
    30    16    10   am
    31    45    46    1
    32    45    48    1
    33    41    42    2
    34    41    43   am
    35    10     9    1
    36    49    48    1
    37    49    50    1
    38    46    47    2
    39    12     9    1
    40     9     8    1
    41     8     3   am
    42    52    53    1
    43     3     2    1
    44     3     4    2
    45     2     5    1
    46     2     1    1
    47     5     7    1
    48     5     6    1
    49    55    54    2
    50    57    56    1
    51    56    53    1
    52    53    54    1
    53    54    58   am
    54    82    80    1
    55    63    64    1
    56    63    62    1
    57    58    59    1
    58    59    62    1
    59    59    60    1
    60    81    80    1
    61    80    79    2
    62    64    65    1
    63    65    66    1
    64    61    60    2
    65    60    67   am
    66    70    69    2
    67    79    78    1
    68    78    77    1
    69    75    74    2
    70    67    68    1
    71    69    72   am
    72    69    68    1
    73    73    74    1
    74    73    72    1
    75    73    76    1
    76    77    76    1
    77    68    71    1
