@<TRIPOS>MOLECULE
tmp/3vcpA00.pdb
 128 123 0 0 0
SMALL
GASTEIGER

@<TRIPOS>ATOM
      1  N        -25.0310   39.5740   22.1810 N.3   193  ASN193     -0.1225
      2  CA       -24.8320   40.0740   23.5270 C.3   193  ASN193      0.1785
      3  C        -23.5130   39.5590   24.1050 C.2   193  ASN193      0.2597
      4  O        -22.8010   40.2720   24.8090 O.2   193  ASN193     -0.2718
      5  CB       -25.9970   39.6360   24.4140 C.3   193  ASN193      0.1169
      6  CG       -25.7670   39.9570   25.8760 C.2   193  ASN193      0.2627
      7  OD1      -25.4310   39.0830   26.6700 O.2   193  ASN193     -0.2716
      8  ND2      -25.9350   41.2180   26.2320 N.am  193  ASN193     -0.0877
      9  N        -23.1770   38.3200   23.7780 N.am  194  ASN194     -0.1974
     10  CA       -21.9130   37.7350   24.2240 C.3   194  ASN194      0.1688
     11  C        -20.6580   38.2880   23.5270 C.2   194  ASN194      0.2292
     12  O        -19.5900   38.3320   24.1240 O.2   194  ASN194     -0.2864
     13  CB       -21.9600   36.2170   24.0770 C.3   194  ASN194      0.1181
     14  CG       -20.6620   35.5540   24.4890 C.2   194  ASN194      0.2629
     15  OD1      -19.9330   35.0140   23.6420 O.2   194  ASN194     -0.2716
     16  ND2      -20.3550   35.5980   25.7950 N.am  194  ASN194     -0.0877
     17  N        -19.8300   41.3120   22.6040 N.3   196  GLU196     -0.1231
     18  CA       -19.4130   42.6700   22.9330 C.3   196  GLU196      0.1699
     19  C        -19.4490   42.9370   24.4230 C.2   196  GLU196      0.2592
     20  O        -20.2090   42.3020   25.1600 O.2   196  GLU196     -0.2718
     21  CB       -20.2810   43.6890   22.2040 C.3   196  GLU196      0.0402
     22  CG       -21.7760   43.4360   22.3010 C.3   196  GLU196      0.1161
     23  CD       -22.4110   44.1210   23.5090 C.2   196  GLU196      0.3649
     24  OE1      -23.6640   44.1820   23.5800 O.co2 196  GLU196     -0.2457
     25  OE2      -21.6600   44.6000   24.3830 O.co2 196  GLU196     -0.2457
     26  N        -18.6250   43.8770   24.8760 N.am  197  CYS197     -0.1970
     27  CA       -18.7160   44.3270   26.2600 C.3   197  CYS197      0.1712
     28  C        -19.1030   45.7890   26.2720 C.2   197  CYS197      0.2296
     29  O        -18.8470   46.5290   27.2300 O.2   197  CYS197     -0.2864
     30  CB       -17.4230   44.0550   27.0380 C.3   197  CYS197      0.0983
     31  SG       -17.7110   43.0540   28.5570 S.3   197  CYS197     -0.0798
     32  N        -21.9650   46.7240   26.6190 N.3   199  HIS199     -0.1226
     33  CA       -23.0240   46.8610   27.6100 C.3   199  HIS199      0.1752
     34  C        -22.5210   46.5570   29.0230 C.2   199  HIS199      0.2596
     35  O        -23.2950   46.5690   29.9780 O.2   199  HIS199     -0.2718
     36  CB       -24.1530   45.8880   27.2770 C.3   199  HIS199      0.0759
     37  CG       -23.7770   44.4600   27.4790 C.ar  199  HIS199      0.0818
     38  ND1      -23.1590   43.7090   26.5060 N.ar  199  HIS199     -0.2268
     39  CD2      -23.8880   43.6550   28.5620 C.ar  199  HIS199      0.1154
     40  CE1      -22.9170   42.4980   26.9750 C.ar  199  HIS199      0.1986
     41  NE2      -23.3580   42.4370   28.2180 N.ar  199  HIS199     -0.2212
     42  N        -21.2320   46.2790   29.1630 N.am  200  CYS200     -0.1970
     43  CA       -20.7260   45.7350   30.4340 C.3   200  CYS200      0.1712
     44  C        -20.6570   46.6870   31.6370 C.2   200  CYS200      0.2296
     45  O        -21.0830   46.3220   32.7280 O.2   200  CYS200     -0.2864
     46  CB       -19.3890   45.0170   30.2360 C.3   200  CYS200      0.0983
     47  SG       -19.5660   43.4330   29.3440 S.3   200  CYS200     -0.0798
     48  N        -23.1140   44.9890   34.4050 N.3   204  HIS204     -0.1241
     49  CA       -22.4090   43.9070   35.0880 C.3   204  HIS204      0.1621
     50  C        -21.4970   44.4150   36.1990 C.2   204  HIS204      0.2264
     51  O        -20.2700   44.3720   36.0500 O.2   204  HIS204     -0.2867
     52  CB       -21.5490   43.0970   34.1030 C.3   204  HIS204      0.0745
     53  CG       -22.3250   42.3810   33.0390 C.ar  204  HIS204      0.0817
     54  ND1      -23.5490   41.7910   33.2710 N.ar  204  HIS204     -0.2268
     55  CD2      -22.0240   42.1220   31.7440 C.ar  204  HIS204      0.1154
     56  CE1      -23.9720   41.2100   32.1630 C.ar  204  HIS204      0.1986
     57  NE2      -23.0680   41.4020   31.2200 N.ar  204  HIS204     -0.2212
     58  N        -19.1570   41.3190   37.4870 N.3   207  LEU207     -0.1245
     59  CA       -18.1810   40.9060   36.4810 C.3   207  LEU207      0.1561
     60  C        -17.0730   41.9360   36.3180 C.2   207  LEU207      0.2260
     61  O        -15.8960   41.5860   36.2200 O.2   207  LEU207     -0.2867
     62  CB       -18.8360   40.6660   35.1210 C.3   207  LEU207      0.0270
     63  CG       -17.8050   40.1110   34.1330 C.3   207  LEU207      0.0019
     64  CD1      -17.3060   38.7730   34.6340 C.3   207  LEU207      0.0001
     65  CD2      -18.3580   39.9960   32.7130 C.3   207  LEU207      0.0001
     66  N        -13.1790   41.4080   35.1760 N.3   211  PHE211     -0.1241
     67  CA       -13.1220   41.2390   33.7210 C.3   211  PHE211      0.1605
     68  C        -13.0370   42.5870   32.9890 C.2   211  PHE211      0.2264
     69  O        -13.9220   43.4300   33.1350 O.2   211  PHE211     -0.2867
     70  CB       -14.3440   40.4460   33.2570 C.3   211  PHE211      0.0534
     71  CG       -14.3800   40.1740   31.7800 C.ar  211  PHE211     -0.0203
     72  CD1      -13.8100   39.0200   31.2570 C.ar  211  PHE211     -0.0042
     73  CD2      -15.0160   41.0580   30.9130 C.ar  211  PHE211     -0.0042
     74  CE1      -13.8520   38.7560   29.8950 C.ar  211  PHE211     -0.0003
     75  CE2      -15.0670   40.7940   29.5450 C.ar  211  PHE211     -0.0003
     76  CZ       -14.4820   39.6410   29.0400 C.ar  211  PHE211     -0.0000
     77  N        -13.0710   41.2710   25.1880 N.3   218  ALA218     -0.1245
     78  CA       -14.3200   40.5690   24.8850 C.3   218  ALA218      0.1562
     79  C        -14.7440   40.6370   23.4070 C.2   218  ALA218      0.2260
     80  O        -15.7650   40.0580   23.0260 O.2   218  ALA218     -0.2867
     81  CB       -15.4490   41.0890   25.7860 C.3   218  ALA218      0.0290
     82  N        -10.1670   32.8440   26.6730 N.3   288  LEU288     -0.1245
     83  CA       -11.4390   32.9260   25.9720 C.3   288  LEU288      0.1561
     84  C        -11.4420   32.0150   24.7540 C.2   288  LEU288      0.2260
     85  O        -10.5330   32.0560   23.9170 O.2   288  LEU288     -0.2867
     86  CB       -11.7120   34.3620   25.5320 C.3   288  LEU288      0.0270
     87  CG       -11.7360   35.3750   26.6760 C.3   288  LEU288      0.0019
     88  CD1      -12.1150   36.7260   26.1110 C.3   288  LEU288      0.0001
     89  CD2      -12.7140   34.9410   27.7790 C.3   288  LEU288      0.0001
     90  N        -14.6380   30.2570   29.3730 N.3   298  HIS298     -0.1241
     91  CA       -13.5900   30.9620   30.1260 C.3   298  HIS298      0.1621
     92  C        -12.8000   29.9850   30.9800 C.2   298  HIS298      0.2264
     93  O        -13.3040   29.4760   31.9850 O.2   298  HIS298     -0.2867
     94  CB       -14.1870   32.0050   31.0550 C.3   298  HIS298      0.0745
     95  CG       -14.9410   33.0830   30.3500 C.ar  298  HIS298      0.0817
     96  ND1      -14.5780   34.4080   30.4200 N.ar  298  HIS298     -0.2268
     97  CD2      -16.0380   33.0310   29.5590 C.ar  298  HIS298      0.1154
     98  CE1      -15.4250   35.1290   29.7110 C.ar  298  HIS298      0.1986
     99  NE2      -16.3190   34.3170   29.1770 N.ar  298  HIS298     -0.2212
    100  N        -20.8320   34.8260   38.0260 N.3   344  TRP344     -0.1241
    101  CA       -21.3730   34.4860   36.7280 C.3   344  TRP344      0.1605
    102  C        -22.8630   34.1210   36.7940 C.2   344  TRP344      0.2264
    103  O        -23.5910   34.2720   35.8180 O.2   344  TRP344     -0.2867
    104  CB       -20.5200   33.4260   36.0230 C.3   344  TRP344      0.0550
    105  CG       -19.4750   34.0400   35.1230 C.ar  344  TRP344      0.0003
    106  CD1      -18.1420   34.1980   35.3930 C.ar  344  TRP344      0.0946
    107  CD2      -19.6870   34.5990   33.8130 C.ar  344  TRP344      0.0152
    108  NE1      -17.5120   34.8040   34.3260 N.ar  344  TRP344     -0.2442
    109  CE2      -18.4400   35.0670   33.3500 C.ar  344  TRP344      0.0810
    110  CE3      -20.8110   34.7540   32.9940 C.ar  344  TRP344      0.0012
    111  CZ2      -18.2850   35.6740   32.0990 C.ar  344  TRP344      0.0191
    112  CZ3      -20.6570   35.3530   31.7480 C.ar  344  TRP344      0.0001
    113  CH2      -19.4020   35.8020   31.3120 C.ar  344  TRP344      0.0015
    114  N        -24.0340   37.6130   36.4460 N.3   347  THR347     -0.1218
    115  CA       -23.7890   38.1000   35.0850 C.3   347  THR347      0.1862
    116  C        -24.7860   37.4690   34.1120 C.2   347  THR347      0.2287
    117  O        -25.4050   38.1590   33.2900 O.2   347  THR347     -0.2866
    118  CB       -22.3480   37.8180   34.6450 C.3   347  THR347      0.1770
    119  OG1      -21.4480   38.4060   35.5900 O.3   347  THR347     -0.2211
    120  CG2      -22.0740   38.4030   33.2690 C.3   347  THR347      0.0375
    121  N        -27.5250   39.3030   31.7610 N.3   351  ASP351     -0.1239
    122  CA       -27.5590   39.0980   30.3150 C.3   351  ASP351      0.1674
    123  C        -28.9360   38.6190   29.8600 C.2   351  ASP351      0.2266
    124  O        -29.4700   39.1020   28.8580 O.2   351  ASP351     -0.2867
    125  CB       -26.4770   38.1090   29.8950 C.3   351  ASP351      0.1410
    126  CG       -25.0920   38.7360   29.9000 C.2   351  ASP351      0.3668
    127  OD1      -24.9990   39.9230   29.5570 O.co2 351  ASP351     -0.2456
    128  OD2      -24.1020   38.0530   30.2420 O.co2 351  ASP351     -0.2456
@<TRIPOS>BOND
     1     1     2    1
     2    21    22    1
     3    21    18    1
     4    22    23    1
     5    17    18    1
     6    18    19    1
     7    80    79    2
     8    79    78    1
     9    23    24   ar
    10    23    25   ar
    11    11    12    2
    12    11    10    1
    13     2     3    1
    14     2     5    1
    15    15    14    2
    16     9     3   am
    17     9    10    1
    18    85    84    2
    19    13    10    1
    20    13    14    1
    21     3     4    2
    22     5     6    1
    23    19    26   am
    24    19    20    2
    25    14    16   am
    26    84    83    1
    27    26    27    1
    28    78    77    1
    29    78    81    1
    30    86    83    1
    31    86    87    1
    32     6     8   am
    33     6     7    2
    34    83    82    1
    35    88    87    1
    36    27    28    1
    37    27    30    1
    38    28    29    2
    39    38    40   ar
    40    38    37   ar
    41    32    33    1
    42    87    89    1
    43    40    41   ar
    44    30    31    1
    45    36    37    1
    46    36    33    1
    47    37    39   ar
    48    33    34    1
    49    41    39   ar
    50    31    47    1
    51   124   123    2
    52    34    42   am
    53    34    35    2
    54    76    75   ar
    55    76    74   ar
    56    42    43    1
    57    99    97   ar
    58    99    98   ar
    59    47    46    1
    60    90    91    1
    61    75    73   ar
    62   127   126   ar
    63    97    95   ar
    64    98    96   ar
    65   123   122    1
    66   125   126    1
    67   125   122    1
    68    74    72   ar
    69   126   128   ar
    70    91    92    1
    71    91    94    1
    72    46    43    1
    73   122   121    1
    74    95    96   ar
    75    95    94    1
    76    43    44    1
    77    73    71   ar
    78    92    93    2
    79    57    55   ar
    80    57    56   ar
    81    72    71   ar
    82   113   112   ar
    83   113   111   ar
    84    44    45    2
    85    55    53   ar
    86   112   110   ar
    87    71    70    1
    88   111   109   ar
    89    56    54   ar
    90    65    63    1
    91    68    69    2
    92    68    67    1
    93   110   107   ar
    94    53    54   ar
    95    53    52    1
    96    70    67    1
    97   120   118    1
    98   117   116    2
    99   109   107   ar
   100   109   108   ar
   101    67    66    1
   102   107   105   ar
   103    52    49    1
   104   116   115    1
   105    63    64    1
   106    63    62    1
   107   108   106   ar
   108    48    49    1
   109   118   115    1
   110   118   119    1
   111   115   114    1
   112    49    50    1
   113    62    59    1
   114   105   106   ar
   115   105   104    1
   116   103   102    2
   117   104   101    1
   118    51    50    2
   119    61    60    2
   120    60    59    1
   121    59    58    1
   122   101   102    1
   123   101   100    1
