@<TRIPOS>MOLECULE
tmp/3vcxB01.pdb
 125 120 0 0 0
SMALL
GASTEIGER

@<TRIPOS>ATOM
      1  N          4.5160   45.9490   81.5790 N.3    22  HIS22      -0.1226
      2  CA         5.1130   45.0190   82.5630 C.3    22  HIS22       0.1752
      3  C          6.4140   44.3900   82.1070 C.2    22  HIS22       0.2596
      4  O          7.1260   43.8530   82.9540 O.2    22  HIS22      -0.2718
      5  CB         4.1040   43.9290   82.8610 C.3    22  HIS22       0.0759
      6  CG         2.8330   44.4690   83.4100 C.ar   22  HIS22       0.0818
      7  ND1        2.7950   45.1780   84.5880 N.ar   22  HIS22      -0.2268
      8  CD2        1.5610   44.4260   82.9370 C.ar   22  HIS22       0.1154
      9  CE1        1.5460   45.5740   84.8170 C.ar   22  HIS22       0.1986
     10  NE2        0.7860   45.1220   83.8360 N.ar   22  HIS22      -0.2212
     11  N          6.7640   44.4580   80.8310 N.am   23  PHE23      -0.1976
     12  CA         7.9110   43.7050   80.3130 C.3    23  PHE23       0.1639
     13  C          8.9310   44.5770   79.5770 C.2    23  PHE23       0.2290
     14  O          9.7790   44.0560   78.8810 O.2    23  PHE23      -0.2864
     15  CB         7.4140   42.4950   79.4910 C.3    23  PHE23       0.0560
     16  CG         6.7630   41.4540   80.3540 C.ar   23  PHE23      -0.0200
     17  CD1        7.5690   40.6030   81.1260 C.ar   23  PHE23      -0.0042
     18  CD2        5.4110   41.3550   80.5060 C.ar   23  PHE23      -0.0042
     19  CE1        6.9860   39.6690   81.9790 C.ar   23  PHE23      -0.0003
     20  CE2        4.8430   40.4120   81.3770 C.ar   23  PHE23      -0.0003
     21  CZ         5.6410   39.5630   82.0960 C.ar   23  PHE23      -0.0000
     22  N          8.7970   46.6160   77.0890 N.3    25  PHE25      -0.1241
     23  CA         8.7110   46.8020   75.6430 C.3    25  PHE25       0.1605
     24  C          8.2570   48.2020   75.2870 C.2    25  PHE25       0.2264
     25  O          7.5460   48.8970   76.0500 O.2    25  PHE25      -0.2867
     26  CB         7.7210   45.8170   75.0190 C.3    25  PHE25       0.0534
     27  CG         8.2360   44.4110   74.9110 C.ar   25  PHE25      -0.0203
     28  CD1        8.9300   44.0190   73.7870 C.ar   25  PHE25      -0.0042
     29  CD2        7.9830   43.4590   75.9270 C.ar   25  PHE25      -0.0042
     30  CE1        9.3980   42.7190   73.6430 C.ar   25  PHE25      -0.0003
     31  CE2        8.4340   42.1480   75.7770 C.ar   25  PHE25      -0.0003
     32  CZ         9.1430   41.7750   74.6500 C.ar   25  PHE25      -0.0000
     33  N         12.1880   45.4290   73.0410 N.3    39  SER39      -0.1217
     34  CA        12.6720   45.8060   74.3810 C.3    39  SER39       0.1889
     35  C         13.5640   47.0130   74.2630 C.2    39  SER39       0.2288
     36  O         14.4850   47.0700   73.4690 O.2    39  SER39      -0.2866
     37  CB        13.4400   44.6310   74.9350 C.3    39  SER39       0.2089
     38  OG        14.1430   45.0850   76.0940 O.3    39  SER39      -0.2183
     39  N         15.6390   47.9940   76.6200 N.3    41  GLU41      -0.1231
     40  CA        16.9100   47.6960   77.2420 C.3    41  GLU41       0.1699
     41  C         17.7060   46.6010   76.4790 C.2    41  GLU41       0.2592
     42  O         18.9360   46.5780   76.5610 O.2    41  GLU41      -0.2718
     43  CB        16.6580   47.4480   78.7520 C.3    41  GLU41       0.0402
     44  CG        16.1160   48.7800   79.4710 C.3    41  GLU41       0.1161
     45  CD        15.5230   48.5690   80.8670 C.2    41  GLU41       0.3649
     46  OE1       15.2050   47.3970   81.2220 O.co2  41  GLU41      -0.2457
     47  OE2       15.3840   49.5360   81.6490 O.co2  41  GLU41      -0.2457
     48  N         17.0270   45.6950   75.7420 N.am   42  ASP42      -0.1974
     49  CA        17.6980   44.7410   74.8600 C.3    42  ASP42       0.1709
     50  C         17.0260   44.7310   73.4890 C.2    42  ASP42       0.2293
     51  O         16.0530   43.9830   73.2590 O.2    42  ASP42      -0.2864
     52  CB        17.6990   43.3130   75.4220 C.3    42  ASP42       0.1436
     53  CG        18.4920   42.3160   74.5170 C.2    42  ASP42       0.3671
     54  OD1       19.0450   42.6680   73.4280 O.co2  42  ASP42      -0.2456
     55  OD2       18.5900   41.1280   74.9210 O.co2  42  ASP42      -0.2456
     56  N         15.3400   41.7960   71.4340 N.3    45  VAL45      -0.1245
     57  CA        14.1100   41.1320   71.8510 C.3    45  VAL45       0.1561
     58  C         12.8980   41.8250   71.2490 C.2    45  VAL45       0.2260
     59  O         12.6370   42.9990   71.5130 O.2    45  VAL45      -0.2867
     60  CB        13.9850   41.1570   73.3850 C.3    45  VAL45       0.0252
     61  CG1       12.6550   40.6090   73.8630 C.3    45  VAL45       0.0019
     62  CG2       15.1970   40.3560   74.0060 C.3    45  VAL45       0.0019
     63  N         11.9390   34.1440   78.8610 N.3    72  PHE72      -0.1227
     64  CA        12.8680   35.2730   79.0600 C.3    72  PHE72       0.1736
     65  C         13.8560   34.9260   80.1510 C.2    72  PHE72       0.2595
     66  O         13.4410   34.6150   81.2550 O.2    72  PHE72      -0.2718
     67  CB        12.1110   36.4810   79.5320 C.3    72  PHE72       0.0547
     68  CG        11.1130   37.0350   78.5400 C.ar   72  PHE72      -0.0202
     69  CD1       11.5480   37.9470   77.5420 C.ar   72  PHE72      -0.0042
     70  CD2        9.7870   36.6590   78.5530 C.ar   72  PHE72      -0.0042
     71  CE1       10.6280   38.5070   76.6270 C.ar   72  PHE72      -0.0003
     72  CE2        8.8480   37.1870   77.6770 C.ar   72  PHE72      -0.0003
     73  CZ         9.2390   38.1450   76.7090 C.ar   72  PHE72      -0.0000
     74  N         15.1470   35.0390   79.9100 N.am   73  GLU73      -0.1965
     75  CA        16.1580   34.8820   80.9490 C.3    73  GLU73       0.1733
     76  C         16.3640   36.2050   81.6190 C.2    73  GLU73       0.2616
     77  O         16.5470   37.2310   80.9670 O.2    73  GLU73      -0.2715
     78  CB        17.4780   34.4120   80.3380 C.3    73  GLU73       0.0429
     79  CG        17.4900   32.9870   79.8670 C.3    73  GLU73       0.1163
     80  CD        18.8400   32.5050   79.2890 C.2    73  GLU73       0.3649
     81  OE1       19.7640   33.3310   79.0730 O.co2  73  GLU73      -0.2457
     82  OE2       18.9140   31.2850   79.0090 O.co2  73  GLU73      -0.2457
     83  N         16.3590   36.2020   82.9600 N.am   74  VAL74      -0.1977
     84  CA        16.5870   37.4250   83.7410 C.3    74  VAL74       0.1596
     85  C         17.5610   37.1400   84.8750 C.2    74  VAL74       0.2287
     86  O         17.7630   35.9980   85.2600 O.2    74  VAL74      -0.2864
     87  CB        15.2680   37.9050   84.3600 C.3    74  VAL74       0.0276
     88  CG1       14.2080   38.1010   83.3120 C.3    74  VAL74       0.0022
     89  CG2       14.7790   36.8990   85.4450 C.3    74  VAL74       0.0022
     90  N         11.2850   39.9960   90.0390 N.3    80  GLU80      -0.1245
     91  CA        10.2830   40.1300   88.9800 C.3    80  GLU80       0.1567
     92  C          8.9570   39.5410   89.4140 C.2    80  GLU80       0.2260
     93  O          7.8920   40.1440   89.1820 O.2    80  GLU80      -0.2867
     94  CB        10.7600   39.4380   87.7010 C.3    80  GLU80       0.0388
     95  CG        12.0600   39.9850   87.1200 C.3    80  GLU80       0.1160
     96  CD        12.0860   41.5050   86.9080 C.2    80  GLU80       0.3649
     97  OE1       11.0340   42.1360   86.6840 O.co2  80  GLU80      -0.2457
     98  OE2       13.2040   42.0670   86.9780 O.co2  80  GLU80      -0.2457
     99  N          7.1550   42.0270   91.7800 N.3    83  ARG83      -0.1231
    100  CA         6.5760   43.1450   91.0580 C.3    83  ARG83       0.1694
    101  C          5.3540   42.6990   90.2820 C.2    83  ARG83       0.2591
    102  O          4.2960   43.3370   90.3670 O.2    83  ARG83      -0.2718
    103  CB         7.6630   43.8110   90.2010 C.3    83  ARG83       0.0321
    104  CG         7.1450   44.9300   89.2790 C.3    83  ARG83       0.0489
    105  CD         8.2810   45.5040   88.3580 C.3    83  ARG83       0.2205
    106  NE         8.8960   44.5030   87.4650 N.pl3  83  ARG83      -0.0865
    107  CZ         8.4310   44.1470   86.2480 C.cat  83  ARG83       0.5346
    108  NH1        7.3200   44.6890   85.7260 N.pl3  83  ARG83       0.1354
    109  NH2        9.0860   43.2290   85.5370 N.pl3  83  ARG83       0.1354
    110  N          5.4660   41.6030   89.5400 N.am   84  LEU84      -0.1980
    111  CA         4.3370   41.1420   88.7470 C.3    84  LEU84       0.1596
    112  C          3.1500   40.6220   89.5200 C.2    84  LEU84       0.2287
    113  O          2.0020   40.9170   89.1680 O.2    84  LEU84      -0.2864
    114  CB         4.8080   40.1350   87.6830 C.3    84  LEU84       0.0297
    115  CG         5.9040   40.7300   86.7590 C.3    84  LEU84       0.0022
    116  CD1        6.4990   39.6250   85.8610 C.3    84  LEU84       0.0001
    117  CD2        5.3600   41.8530   85.8910 C.3    84  LEU84       0.0001
    118  N          9.7960   33.1090   83.2090 N.3   115  ILE115     -0.1245
    119  CA        10.8500   34.0550   83.6000 C.3   115  ILE115      0.1561
    120  C         11.8980   33.2760   84.3670 C.2   115  ILE115      0.2260
    121  O         11.6300   32.7640   85.4610 O.2   115  ILE115     -0.2867
    122  CB        10.2140   35.2110   84.3940 C.3   115  ILE115      0.0252
    123  CG1        9.2310   35.9380   83.4580 C.3   115  ILE115      0.0019
    124  CG2       11.2890   36.1420   84.9920 C.3   115  ILE115      0.0019
    125  CD1        8.3290   36.9370   84.1170 C.3   115  ILE115      0.0001
@<TRIPOS>BOND
     1    58    59    2
     2    58    57    1
     3    56    57    1
     4    57    60    1
     5    33    34    1
     6    51    50    2
     7    60    61    1
     8    60    62    1
     9    54    53   ar
    10    36    35    2
    11    50    49    1
    12    30    28   ar
    13    30    32   ar
    14    28    27   ar
    15    35    34    1
    16    34    37    1
    17    53    55   ar
    18    53    52    1
    19    32    31   ar
    20    49    52    1
    21    49    48    1
    22    27    26    1
    23    27    29   ar
    24    37    38    1
    25    26    23    1
    26    24    23    1
    27    24    25    2
    28    23    22    1
    29    48    41   am
    30    31    29   ar
    31    41    42    2
    32    41    40    1
    33    39    40    1
    34    71    73   ar
    35    71    69   ar
    36    73    72   ar
    37    40    43    1
    38    69    68   ar
    39    72    70   ar
    40    68    70   ar
    41    68    67    1
    42    43    44    1
    43    63    64    1
    44    14    13    2
    45    82    80   ar
    46    64    67    1
    47    64    65    1
    48    81    80   ar
    49    80    79    1
    50    44    45    1
    51    15    12    1
    52    15    16    1
    53    13    12    1
    54    79    78    1
    55    74    65   am
    56    74    75    1
    57    65    66    2
    58    12    11    1
    59    78    75    1
    60    16    18   ar
    61    16    17   ar
    62    18    20   ar
    63    11     3   am
    64    45    46   ar
    65    45    47   ar
    66    75    76    1
    67    77    76    2
    68    17    19   ar
    69    20    21   ar
    70     1     2    1
    71    76    83   am
    72    19    21   ar
    73     3     2    1
    74     3     4    2
    75     2     5    1
    76     5     6    1
    77     8     6   ar
    78     8    10   ar
    79    83    84    1
    80   118   119    1
    81    88    87    1
    82     6     7   ar
    83   123   125    1
    84   123   122    1
    85   119   120    1
    86   119   122    1
    87    84    87    1
    88    84    85    1
    89    10     9   ar
    90    87    89    1
    91   120   121    2
    92   122   124    1
    93     7     9   ar
    94    85    86    2
    95   109   107    1
    96   108   107    1
    97   116   115    1
    98   117   115    1
    99   107   106    2
   100    97    96   ar
   101   115   114    1
   102    96    98   ar
   103    96    95    1
   104    95    94    1
   105   106   105    1
   106   114   111    1
   107    94    91    1
   108   105   104    1
   109   111   112    1
   110   111   110    1
   111    91    92    1
   112    91    90    1
   113   113   112    2
   114    93    92    2
   115   104   103    1
   116   110   101   am
   117   103   100    1
   118   101   102    2
   119   101   100    1
   120   100    99    1
