@<TRIPOS>MOLECULE
tmp/3vcxA00.pdb
 121 116 0 0 0
SMALL
GASTEIGER

@<TRIPOS>ATOM
      1  N         14.9870   20.0480   58.9860 N.3    22  GLN22      -0.1231
      2  CA        15.1190   19.7910   57.5450 C.3    22  GLN22       0.1698
      3  C         15.0460   21.0400   56.6610 C.2    22  GLN22       0.2592
      4  O         15.8190   21.1670   55.6940 O.2    22  GLN22      -0.2718
      5  CB        14.0180   18.8230   57.1210 C.3    22  GLN22       0.0381
      6  CG        14.0650   18.3980   55.6100 C.3    22  GLN22       0.0905
      7  CD        13.0880   17.2570   55.3610 C.2    22  GLN22       0.2608
      8  OE1       12.4500   16.7550   56.3130 O.2    22  GLN22      -0.2717
      9  NE2       12.9360   16.8520   54.0850 N.am   22  GLN22      -0.0878
     10  N         14.1420   21.9560   56.9910 N.am   23  HIS23      -0.1962
     11  CA        13.8460   23.0470   56.0560 C.3    23  HIS23       0.1787
     12  C         14.3110   24.4140   56.4900 C.2    23  HIS23       0.2620
     13  O         14.3820   25.3090   55.6450 O.2    23  HIS23      -0.2715
     14  CB        12.3320   23.0880   55.8070 C.3    23  HIS23       0.0785
     15  CG        11.7980   21.8180   55.2450 C.ar   23  HIS23       0.0821
     16  ND1       12.1580   21.3370   53.9960 N.ar   23  HIS23      -0.2267
     17  CD2       10.9230   20.9150   55.7600 C.ar   23  HIS23       0.1154
     18  CE1       11.5080   20.2070   53.7760 C.ar   23  HIS23       0.1986
     19  NE2       10.7530   19.9330   54.8280 N.ar   23  HIS23      -0.2212
     20  N         14.5810   24.6350   57.7880 N.am   24  PHE24      -0.1960
     21  CA        14.8390   25.9910   58.3060 C.3    24  PHE24       0.1771
     22  C         16.1670   26.1760   59.0260 C.2    24  PHE24       0.2620
     23  O         16.3430   27.1750   59.7560 O.2    24  PHE24      -0.2715
     24  CB        13.6710   26.4830   59.1390 C.3    24  PHE24       0.0574
     25  CG        12.4310   26.6840   58.3150 C.ar   24  PHE24      -0.0200
     26  CD1       12.3260   27.8180   57.4790 C.ar   24  PHE24      -0.0042
     27  CD2       11.4240   25.7340   58.2360 C.ar   24  PHE24      -0.0042
     28  CE1       11.2140   27.9700   56.6300 C.ar   24  PHE24      -0.0003
     29  CE2       10.3110   25.9250   57.3830 C.ar   24  PHE24      -0.0003
     30  CZ        10.2180   27.0330   56.5800 C.ar   24  PHE24      -0.0000
     31  N         17.0960   25.2590   58.7940 N.am   25  GLY25      -0.1940
     32  CA        18.4770   25.4640   59.2070 C.3    25  GLY25       0.2014
     33  C         18.6980   25.3210   60.7040 C.2    25  GLY25       0.2638
     34  O         19.6950   25.8560   61.2040 O.2    25  GLY25      -0.2714
     35  N         17.8140   24.6290   61.4040 N.am   26  PHE26      -0.1973
     36  CA        17.9440   24.3660   62.8520 C.3    26  PHE26       0.1639
     37  C         18.6800   23.0780   63.1140 C.2    26  PHE26       0.2290
     38  O         18.6460   22.1360   62.2990 O.2    26  PHE26      -0.2864
     39  CB        16.5540   24.2880   63.4830 C.3    26  PHE26       0.0560
     40  CG        15.9200   25.6340   63.6680 C.ar   26  PHE26      -0.0200
     41  CD1       16.1440   26.3840   64.8080 C.ar   26  PHE26      -0.0042
     42  CD2       15.0250   26.1300   62.6790 C.ar   26  PHE26      -0.0042
     43  CE1       15.5410   27.6020   65.0180 C.ar   26  PHE26      -0.0003
     44  CE2       14.3900   27.3600   62.8820 C.ar   26  PHE26      -0.0003
     45  CZ        14.6480   28.1170   64.0630 C.ar   26  PHE26      -0.0000
     46  N         19.3700   27.7400   65.5450 N.3    40  SER40      -0.1217
     47  CA        19.8640   27.8890   64.1750 C.3    40  SER40       0.1889
     48  C         21.3530   27.6100   64.1300 C.2    40  SER40       0.2288
     49  O         22.1150   28.1030   64.9580 O.2    40  SER40      -0.2866
     50  CB        19.6280   29.3340   63.7340 C.3    40  SER40       0.2089
     51  OG        20.1850   29.5790   62.4280 O.3    40  SER40      -0.2183
     52  N         23.4270   28.7660   61.9960 N.3    42  GLU42      -0.1231
     53  CA        24.1480   29.9640   61.5980 C.3    42  GLU42       0.1699
     54  C         23.9930   31.1410   62.5450 C.2    42  GLU42       0.2592
     55  O         24.6490   32.1270   62.3970 O.2    42  GLU42      -0.2718
     56  CB        23.7060   30.3410   60.1840 C.3    42  GLU42       0.0402
     57  CG        24.2600   29.3120   59.1520 C.3    42  GLU42       0.1161
     58  CD        23.9940   29.6870   57.6900 C.2    42  GLU42       0.3649
     59  OE1       23.2470   30.6820   57.4410 O.co2  42  GLU42      -0.2457
     60  OE2       24.5670   28.9800   56.8130 O.co2  42  GLU42      -0.2457
     61  N         23.0770   31.0570   63.5200 N.am   43  ASP43      -0.1974
     62  CA        22.8780   32.1490   64.4750 C.3    43  ASP43       0.1709
     63  C         22.3720   31.5810   65.7950 C.2    43  ASP43       0.2293
     64  O         21.1580   31.3240   65.9450 O.2    43  ASP43      -0.2864
     65  CB        21.8420   33.1700   63.9430 C.3    43  ASP43       0.1436
     66  CG        21.7650   34.4060   64.8350 C.2    43  ASP43       0.3671
     67  OD1       22.3790   34.3970   65.9510 O.co2  43  ASP43      -0.2456
     68  OD2       21.1320   35.4190   64.3800 O.co2  43  ASP43      -0.2456
     69  N         18.9880   32.5030   67.4610 N.3    46  VAL46      -0.1245
     70  CA        17.6730   32.0960   66.9240 C.3    46  VAL46       0.1561
     71  C         17.4320   30.7000   67.4770 C.2    46  VAL46       0.2260
     72  O         18.1080   29.7340   67.1240 O.2    46  VAL46      -0.2867
     73  CB        17.7580   32.1190   65.3690 C.3    46  VAL46       0.0252
     74  CG1       16.5160   31.4780   64.8010 C.3    46  VAL46       0.0019
     75  CG2       17.9480   33.6010   64.8530 C.3    46  VAL46       0.0019
     76  N         11.0830   35.2750   59.9790 N.3    73  PHE73      -0.1241
     77  CA        12.5310   35.1900   59.7760 C.3    73  PHE73       0.1605
     78  C         12.9070   36.1350   58.6360 C.2    73  PHE73       0.2264
     79  O         12.3640   36.0500   57.5240 O.2    73  PHE73      -0.2867
     80  CB        12.8830   33.7640   59.2570 C.3    73  PHE73       0.0534
     81  CG        12.6140   32.6270   60.2160 C.ar   73  PHE73      -0.0203
     82  CD1       13.5810   32.2380   61.1280 C.ar   73  PHE73      -0.0042
     83  CD2       11.3950   31.9890   60.2350 C.ar   73  PHE73      -0.0042
     84  CE1       13.3240   31.1730   62.0030 C.ar   73  PHE73      -0.0003
     85  CE2       11.1250   30.9350   61.0720 C.ar   73  PHE73      -0.0003
     86  CZ        12.1010   30.5220   61.9590 C.ar   73  PHE73      -0.0000
     87  N         15.5530   37.1660   55.8550 N.3    75  VAL75      -0.1245
     88  CA        16.5150   36.4800   54.9950 C.3    75  VAL75       0.1561
     89  C         16.9430   37.4430   53.8780 C.2    75  VAL75       0.2260
     90  O         16.1870   38.3520   53.4820 O.2    75  VAL75      -0.2867
     91  CB        15.9190   35.1360   54.4030 C.3    75  VAL75       0.0252
     92  CG1       15.3590   34.2430   55.4770 C.3    75  VAL75       0.0019
     93  CG2       14.8640   35.4440   53.3820 C.3    75  VAL75       0.0019
     94  N         14.4740   31.1910   48.6890 N.3    81  GLU81      -0.1245
     95  CA        13.9040   30.3540   49.7260 C.3    81  GLU81       0.1567
     96  C         12.5190   29.8360   49.3230 C.2    81  GLU81       0.2260
     97  O         12.1710   28.6780   49.5900 O.2    81  GLU81      -0.2867
     98  CB        13.7710   31.1200   51.0700 C.3    81  GLU81       0.0388
     99  CG        15.0530   31.6690   51.6680 C.3    81  GLU81       0.1160
    100  CD        16.1860   30.6620   51.7460 C.2    81  GLU81       0.3649
    101  OE1       15.9560   29.4430   51.9330 O.co2  81  GLU81      -0.2457
    102  OE2       17.3350   31.1170   51.6180 O.co2  81  GLU81      -0.2457
    103  N         12.9600   26.8460   46.8770 N.3    84  ARG84      -0.1245
    104  CA        13.3850   25.6060   47.5530 C.3    84  ARG84       0.1563
    105  C         12.2010   25.0170   48.3210 C.2    84  ARG84       0.2260
    106  O         11.9030   23.7970   48.2510 O.2    84  ARG84      -0.2867
    107  CB        14.5560   25.9310   48.5040 C.3    84  ARG84       0.0307
    108  CG        15.0910   24.7390   49.2970 C.3    84  ARG84       0.0489
    109  CD        16.2980   25.1720   50.2120 C.3    84  ARG84       0.2205
    110  NE        15.9440   26.2200   51.2040 N.pl3  84  ARG84      -0.0865
    111  CZ        15.3990   26.0380   52.4290 C.cat  84  ARG84       0.5346
    112  NH1       15.0810   24.8550   52.9280 N.pl3  84  ARG84       0.1354
    113  NH2       15.1570   27.0930   53.1880 N.pl3  84  ARG84       0.1354
    114  N          8.6900   34.5870   55.6860 N.3   116  ILE116     -0.1245
    115  CA        10.0750   34.7390   55.2550 C.3   116  ILE116      0.1561
    116  C         10.2270   36.0440   54.5040 C.2   116  ILE116      0.2260
    117  O          9.6060   36.2470   53.4490 O.2   116  ILE116     -0.2867
    118  CB        10.4510   33.5360   54.4310 C.3   116  ILE116      0.0252
    119  CG1       10.4340   32.3220   55.3540 C.3   116  ILE116      0.0019
    120  CG2       11.8480   33.6880   53.8490 C.3   116  ILE116      0.0019
    121  CD1       10.3250   31.0430   54.6770 C.3   116  ILE116      0.0001
@<TRIPOS>BOND
     1   103   104    1
     2   104   105    1
     3   104   107    1
     4   106   105    2
     5   107   108    1
     6    94    95    1
     7   108   109    1
     8    96    97    2
     9    96    95    1
    10    95    98    1
    11   109   110    1
    12    98    99    1
    13   110   111    2
    14   102   100   ar
    15    99   100    1
    16   100   101   ar
    17   111   112    1
    18   111   113    1
    19    93    91    1
    20   117   116    2
    21    90    89    2
    22    18    16   ar
    23    18    19   ar
    24   120   118    1
    25    89    88    1
    26    16    15   ar
    27     9     7   am
    28    91    88    1
    29    91    92    1
    30   118   115    1
    31   118   119    1
    32   116   115    1
    33   121   119    1
    34    19    17   ar
    35    88    87    1
    36    15    17   ar
    37    15    14    1
    38   115   114    1
    39     7     6    1
    40     7     8    2
    41     6     5    1
    42    13    12    2
    43     4     3    2
    44    14    11    1
    45    11    12    1
    46    11    10    1
    47    12    20   am
    48    30    28   ar
    49    30    29   ar
    50    28    26   ar
    51     3    10   am
    52     3     2    1
    53    60    58   ar
    54     5     2    1
    55    29    27   ar
    56    59    58   ar
    57    26    25   ar
    58    79    78    2
    59     2     1    1
    60    58    57    1
    61    20    21    1
    62    27    25   ar
    63    21    22    1
    64    21    24    1
    65    25    24    1
    66    78    77    1
    67    31    22   am
    68    31    32    1
    69    22    23    2
    70    57    56    1
    71    32    33    1
    72    80    77    1
    73    80    81    1
    74    77    76    1
    75    56    53    1
    76    81    83   ar
    77    81    82   ar
    78    83    85   ar
    79    33    34    2
    80    33    35   am
    81    85    86   ar
    82    82    84   ar
    83    35    36    1
    84    53    52    1
    85    53    54    1
    86    86    84   ar
    87    38    37    2
    88    55    54    2
    89    51    50    1
    90    54    61   am
    91    42    44   ar
    92    42    40   ar
    93    36    37    1
    94    36    39    1
    95    44    45   ar
    96    39    40    1
    97    61    62    1
    98    40    41   ar
    99    50    47    1
   100    65    62    1
   101    65    66    1
   102    45    43   ar
   103    48    47    1
   104    48    49    2
   105    47    46    1
   106    68    66   ar
   107    62    63    1
   108    74    73    1
   109    41    43   ar
   110    66    67   ar
   111    75    73    1
   112    73    70    1
   113    63    64    2
   114    70    69    1
   115    70    71    1
   116    72    71    2
