@<TRIPOS>MOLECULE
tmp/3vcyA01.pdb
 235 229 0 0 0
SMALL
GASTEIGER

@<TRIPOS>ATOM
      1  N        -14.4520  -14.1000   22.3140 N.3    23  LYS23      -0.1231
      2  CA       -15.1280  -12.7950   22.2800 C.3    23  LYS23       0.1693
      3  C        -14.8130  -12.0820   20.9650 C.2    23  LYS23       0.2592
      4  O        -15.7080  -11.5820   20.2920 O.2    23  LYS23      -0.2718
      5  CB       -14.6650  -11.9270   23.4580 C.3    23  LYS23       0.0285
      6  CG       -14.8680  -10.4240   23.3060 C.3    23  LYS23       0.0035
      7  CD       -13.9110   -9.6780   24.2180 C.3    23  LYS23       0.0206
      8  CE       -14.1780   -8.1870   24.2360 C.3    23  LYS23       0.1093
      9  NZ       -13.3090   -7.5120   23.2360 N.3    23  LYS23      -0.1314
     10  N        -13.5370  -12.0840   20.5810 N.am   24  ASN24      -0.1974
     11  CA       -13.1040  -11.3160   19.4180 C.3    24  ASN24       0.1688
     12  C        -13.4290  -11.9750   18.0680 C.2    24  ASN24       0.2292
     13  O        -13.1380  -11.4060   17.0300 O.2    24  ASN24      -0.2864
     14  CB       -11.6320  -10.8870   19.5500 C.3    24  ASN24       0.1181
     15  CG       -11.4160   -9.8680   20.6670 C.2    24  ASN24       0.2629
     16  OD1      -12.3800   -9.3040   21.2050 O.2    24  ASN24      -0.2716
     17  ND2      -10.1500   -9.6120   21.0140 N.am   24  ASN24      -0.0877
     18  N        -18.0120  -11.3370   18.3260 N.3    27  LEU27      -0.1245
     19  CA       -18.4870   -9.9670   18.0720 C.3    27  LEU27       0.1561
     20  C        -18.5450   -9.5860   16.5850 C.2    27  LEU27       0.2260
     21  O        -19.6010   -9.1490   16.1260 O.2    27  LEU27      -0.2867
     22  CB       -17.7230   -8.9140   18.8880 C.3    27  LEU27       0.0270
     23  CG       -17.7160   -8.9400   20.4150 C.3    27  LEU27       0.0019
     24  CD1      -16.8840   -7.7970   21.0130 C.3    27  LEU27       0.0001
     25  CD2      -19.1230   -8.9580   20.9900 C.3    27  LEU27       0.0001
     26  N        -16.8640   -0.1110   21.5260 N.3    92  ARG92      -0.1231
     27  CA       -16.4360    0.4660   20.2600 C.3    92  ARG92       0.1694
     28  C        -16.5190   -0.5270   19.0950 C.2    92  ARG92       0.2591
     29  O        -16.5310   -0.1150   17.9470 O.2    92  ARG92      -0.2718
     30  CB       -15.0610    1.1340   20.3800 C.3    92  ARG92       0.0321
     31  CG       -13.9660    0.2620   20.9610 C.3    92  ARG92       0.0489
     32  CD       -12.6200    0.9790   20.9720 C.3    92  ARG92       0.2205
     33  NE       -12.1170    1.1800   19.6060 N.pl3  92  ARG92      -0.0865
     34  CZ       -11.7740    2.3560   19.0740 C.cat  92  ARG92       0.5346
     35  NH1      -11.8370    3.4870   19.7820 N.pl3  92  ARG92       0.1354
     36  NH2      -11.3360    2.3940   17.8090 N.pl3  92  ARG92       0.1354
     37  N        -16.6250   -1.8220   19.4050 N.am   93  ALA93      -0.1980
     38  CA       -16.8500   -2.8790   18.4000 C.3    93  ALA93       0.1597
     39  C        -18.1250   -2.6690   17.5790 C.2    93  ALA93       0.2287
     40  O        -18.2840   -3.3000   16.5310 O.2    93  ALA93      -0.2864
     41  CB       -16.8530   -4.2620   19.0450 C.3    93  ALA93       0.0319
     42  N        -18.3170   -1.9080   13.7850 N.3    96  TRP96      -0.1241
     43  CA       -18.4580   -2.9980   12.7990 C.3    96  TRP96       0.1605
     44  C        -19.7990   -3.0900   12.1380 C.2    96  TRP96       0.2264
     45  O        -19.9850   -3.9070   11.2390 O.2    96  TRP96      -0.2867
     46  CB       -18.1500   -4.3350   13.4360 C.3    96  TRP96       0.0550
     47  CG       -16.6690   -4.6190   13.5190 C.ar   96  TRP96       0.0003
     48  CD1      -15.6860   -4.2330   12.6060 C.ar   96  TRP96       0.0946
     49  CD2      -15.9390   -5.3740   14.5710 C.ar   96  TRP96       0.0152
     50  NE1      -14.4580   -4.6900   12.9980 N.ar   96  TRP96      -0.2442
     51  CE2      -14.5340   -5.3890   14.1550 C.ar   96  TRP96       0.0810
     52  CE3      -16.3070   -6.0520   15.7370 C.ar   96  TRP96       0.0012
     53  CZ2      -13.5420   -6.0450   14.8990 C.ar   96  TRP96       0.0191
     54  CZ3      -15.3000   -6.6950   16.4920 C.ar   96  TRP96       0.0001
     55  CH2      -13.9500   -6.6800   16.0860 C.ar   96  TRP96       0.0015
     56  N         -3.8550    5.7850   21.0900 N.3   120  ALA120     -0.1231
     57  CA        -4.6800    6.3410   19.9920 C.3   120  ALA120      0.1694
     58  C         -5.3400    5.1860   19.2320 C.2   120  ALA120      0.2592
     59  O         -4.6640    4.2370   18.8550 O.2   120  ALA120     -0.2718
     60  CB        -3.8300    7.2010   19.0720 C.3   120  ALA120      0.0304
     61  N         -6.6610    5.2430   19.0320 N.am  121  ARG121     -0.1966
     62  CA        -7.3780    4.1750   18.3210 C.3   121  ARG121      0.1714
     63  C         -8.2800    4.7200   17.1920 C.2   121  ARG121      0.2458
     64  O         -9.5020    4.4860   17.1990 O.2   121  ARG121     -0.2730
     65  CB        -8.1570    3.2840   19.3140 C.3   121  ARG121      0.0347
     66  CG        -7.2620    2.6140   20.3760 C.3   121  ARG121      0.0492
     67  CD        -8.0140    1.6140   21.2410 C.3   121  ARG121      0.2205
     68  NE        -8.4790    0.4310   20.5170 N.pl3 121  ARG121     -0.0865
     69  CZ        -9.2260   -0.5260   21.0700 C.cat 121  ARG121      0.5346
     70  NH1       -9.5810   -0.4290   22.3490 N.pl3 121  ARG121      0.1354
     71  NH2       -9.5940   -1.6030   20.3700 N.pl3 121  ARG121      0.1354
     72  N         -7.6780    5.4240   16.2010 N.am  122  PRO122     -0.2716
     73  CA        -8.5060    5.9910   15.1350 C.3   122  PRO122      0.1536
     74  C         -9.1060    4.8910   14.2520 C.2   122  PRO122      0.2598
     75  O         -8.6650    3.7590   14.3220 O.2   122  PRO122     -0.2715
     76  CB        -7.5270    6.8910   14.3550 C.3   122  PRO122      0.0310
     77  CG        -6.1690    6.3570   14.6460 C.3   122  PRO122      0.0237
     78  CD        -6.2300    5.5670   15.9210 C.3   122  PRO122      0.0939
     79  N        -10.1390    5.2200   13.4710 N.am  123  VAL123     -0.1964
     80  CA       -10.8140    4.2400   12.6140 C.3   123  VAL123      0.1727
     81  C        -10.6830    4.6420   11.1450 C.2   123  VAL123      0.2616
     82  O        -11.4950    4.2540   10.2910 O.2   123  VAL123     -0.2715
     83  CB       -12.2880    3.9930   13.0420 C.3   123  VAL123      0.0290
     84  CG1      -12.3380    3.4070   14.4450 C.3   123  VAL123      0.0023
     85  CG2      -13.1120    5.2810   12.9830 C.3   123  VAL123      0.0023
     86  N         -9.6270    5.4060   10.8740 N.am  124  ASP124     -0.1957
     87  CA        -9.3290    5.9500    9.5530 C.3   124  ASP124      0.1840
     88  C         -9.2330    4.8680    8.4810 C.2   124  ASP124      0.2622
     89  O         -9.7290    5.0500    7.3670 O.2   124  ASP124     -0.2715
     90  CB        -8.0450    6.8190    9.5950 C.3   124  ASP124      0.1450
     91  CG        -6.8080    6.0130    9.9880 C.2   124  ASP124      0.3671
     92  OD1       -6.8070    5.4320   11.0890 O.co2 124  ASP124     -0.2456
     93  OD2       -5.8530    5.9160    9.1850 O.co2 124  ASP124     -0.2456
     94  N         -8.6110    3.7400    8.8280 N.am  125  LEU125     -0.1963
     95  CA        -8.4980    2.6050    7.9360 C.3   125  LEU125      0.1728
     96  C         -9.8540    1.9680    7.5810 C.2   125  LEU125      0.2616
     97  O        -10.0230    1.5000    6.4670 O.2   125  LEU125     -0.2715
     98  CB        -7.5190    1.5560    8.5150 C.3   125  LEU125      0.0311
     99  CG        -6.0840    2.0430    8.7670 C.3   125  LEU125      0.0022
    100  CD1       -5.3510    1.1240    9.7340 C.3   125  LEU125      0.0001
    101  CD2       -5.3350    2.1370    7.4390 C.3   125  LEU125      0.0001
    102  N        -10.8120    1.9590    8.5180 N.am  126  HIS126     -0.1973
    103  CA       -12.1590    1.4170    8.2420 C.3   126  HIS126      0.1656
    104  C        -12.8450    2.3030    7.2270 C.2   126  HIS126      0.2291
    105  O        -13.3820    1.8250    6.2390 O.2   126  HIS126     -0.2864
    106  CB       -13.0580    1.4110    9.4810 C.3   126  HIS126      0.0771
    107  CG       -12.5690    0.5610   10.6110 C.ar  126  HIS126      0.0820
    108  ND1      -13.2090   -0.5670   11.0050 N.ar  126  HIS126     -0.2267
    109  CD2      -11.4850    0.7240   11.4790 C.ar  126  HIS126      0.1154
    110  CE1      -12.5650   -1.0920   12.0650 C.ar  126  HIS126      0.1986
    111  NE2      -11.5260   -0.2900   12.3670 N.ar  126  HIS126     -0.2212
    112  N         -1.6060    0.0300    7.3060 N.3   161  LYS161     -0.1231
    113  CA        -1.1480   -0.5790    8.5640 C.3   161  LYS161      0.1693
    114  C         -1.9670   -1.8520    8.8620 C.2   161  LYS161      0.2592
    115  O         -3.1000   -1.9570    8.4210 O.2   161  LYS161     -0.2718
    116  CB        -1.3680    0.3860    9.7330 C.3   161  LYS161      0.0285
    117  CG        -0.8980    1.8080    9.4830 C.3   161  LYS161      0.0035
    118  CD        -1.3610    2.7740   10.5620 C.3   161  LYS161      0.0206
    119  CE        -1.1320    4.1930   10.0720 C.3   161  LYS161      0.1093
    120  NZ        -0.8300    5.0920   11.2180 N.3   161  LYS161     -0.1314
    121  N         -1.4250   -2.7630    9.6650 N.am  162  VAL162     -0.1966
    122  CA        -2.1400   -4.0020    9.9960 C.3   162  VAL162      0.1727
    123  C         -3.1520   -3.6600   11.0770 C.2   162  VAL162      0.2617
    124  O         -2.7940   -3.1440   12.1230 O.2   162  VAL162     -0.2715
    125  CB        -1.2180   -5.1720   10.4320 C.3   162  VAL162      0.0290
    126  CG1       -2.0210   -6.3770   10.9570 C.3   162  VAL162      0.0023
    127  CG2       -0.3460   -5.6280    9.2720 C.3   162  VAL162      0.0023
    128  N         -4.4190   -3.9260   10.7800 N.am  163  SER163     -0.1936
    129  CA        -5.4950   -3.6880   11.6980 C.3   163  SER163      0.2055
    130  C         -6.4530   -4.8690   11.6810 C.2   163  SER163      0.2643
    131  O         -6.8610   -5.3230   10.6130 O.2   163  SER163     -0.2714
    132  CB        -6.2260   -2.3900   11.3100 C.3   163  SER163      0.2130
    133  OG        -7.4130   -2.2970   12.0280 O.3   163  SER163     -0.2179
    134  N         -6.8060   -5.3680   12.8650 N.am  164  VAL164     -0.1963
    135  CA        -7.7550   -6.4710   12.9810 C.3   164  VAL164      0.1727
    136  C         -9.1530   -5.9900   12.5960 C.2   164  VAL164      0.2616
    137  O         -9.7990   -6.5750   11.7110 O.2   164  VAL164     -0.2715
    138  CB        -7.7950   -7.0000   14.4270 C.3   164  VAL164      0.0290
    139  CG1       -8.9200   -8.0000   14.6000 C.3   164  VAL164      0.0023
    140  CG2       -6.4330   -7.5900   14.8210 C.3   164  VAL164      0.0023
    141  N         -9.5960   -4.9220   13.2680 N.am  165  GLY165     -0.1955
    142  CA       -10.8930   -4.3100   13.0240 C.3   165  GLY165      0.1869
    143  C        -11.1280   -3.8830   11.5870 C.2   165  GLY165      0.2309
    144  O        -12.2040   -4.1530   11.0250 O.2   165  GLY165     -0.2863
    145  N         -5.0810  -12.6290   12.3630 N.3   189  GLU189     -0.1245
    146  CA        -5.6520  -13.1570   13.6110 C.3   189  GLU189      0.1567
    147  C         -6.6660  -14.3210   13.3820 C.2   189  GLU189      0.2260
    148  O         -7.3800  -14.3540   12.3740 O.2   189  GLU189     -0.2867
    149  CB        -6.2550  -12.0100   14.4390 C.3   189  GLU189      0.0388
    150  CG        -5.3040  -11.3830   15.4710 C.3   189  GLU189      0.1160
    151  CD        -4.2040  -10.4910   14.8920 C.2   189  GLU189      0.3649
    152  OE1       -4.0880  -10.3560   13.6500 O.co2 189  GLU189     -0.2457
    153  OE2       -3.4290   -9.9170   15.6830 O.co2 189  GLU189     -0.2457
    154  N         -8.5400  -17.8070   22.5990 N.3   233  ARG233     -0.1245
    155  CA        -7.1240  -18.0430   22.8320 C.3   233  ARG233      0.1563
    156  C         -6.5940  -17.1990   23.9790 C.2   233  ARG233      0.2260
    157  O         -5.6070  -17.5810   24.6160 O.2   233  ARG233     -0.2867
    158  CB        -6.3280  -17.7690   21.5530 C.3   233  ARG233      0.0307
    159  CG        -6.2050  -16.3070   21.1720 C.3   233  ARG233      0.0489
    160  CD        -5.8150  -16.2160   19.7080 C.3   233  ARG233      0.2205
    161  NE        -6.2730  -14.9810   19.0970 N.pl3 233  ARG233     -0.0865
    162  CZ        -5.5360  -13.8770   18.9760 C.cat 233  ARG233      0.5346
    163  NH1       -4.2900  -13.8510   19.4370 N.pl3 233  ARG233      0.1354
    164  NH2       -6.0560  -12.8020   18.3920 N.pl3 233  ARG233      0.1354
    165  N          0.4300  -11.7110   21.5380 N.3   304  PRO304     -0.2102
    166  CA        -0.7280  -10.7750   21.4550 C.3   304  PRO304      0.1504
    167  C         -0.7620   -9.7000   22.5400 C.2   304  PRO304      0.2576
    168  O         -0.5130   -9.9950   23.7320 O.2   304  PRO304     -0.2718
    169  CB        -1.9460  -11.7000   21.5840 C.3   304  PRO304      0.0282
    170  CG        -1.4320  -12.9430   22.2600 C.3   304  PRO304      0.0208
    171  CD         0.0360  -13.0710   21.9730 C.3   304  PRO304      0.0893
    172  N         -1.0470   -8.4600   22.1400 N.am  305  THR305     -0.1939
    173  CA        -1.2940   -7.3800   23.1160 C.3   305  THR305      0.2028
    174  C         -2.3390   -7.8080   24.1850 C.2   305  THR305      0.2642
    175  O         -2.2530   -7.3950   25.3320 O.2   305  THR305     -0.2714
    176  CB        -1.6400   -6.0240   22.4310 C.3   305  THR305      0.1808
    177  OG1       -1.7730   -4.9900   23.4160 O.3   305  THR305     -0.2208
    178  CG2       -2.9020   -6.1220   21.5600 C.3   305  THR305      0.0379
    179  N         -3.2880   -8.6730   23.8210 N.am  306  ASP306     -0.1971
    180  CA        -4.3210   -9.0850   24.7890 C.3   306  ASP306      0.1709
    181  C         -3.8110   -9.9890   25.9220 C.2   306  ASP306      0.2293
    182  O         -4.5140  -10.1790   26.9220 O.2   306  ASP306     -0.2864
    183  CB        -5.5120   -9.7420   24.0830 C.3   306  ASP306      0.1436
    184  CG        -6.4850   -8.7170   23.4950 C.2   306  ASP306      0.3671
    185  OD1       -6.3210   -7.5080   23.7520 O.co2 306  ASP306     -0.2456
    186  OD2       -7.3940   -9.1140   22.7550 O.co2 306  ASP306     -0.2456
    187  N          1.6170   -2.3660   19.8370 N.3   328  ILE328     -0.1231
    188  CA         0.2050   -2.1710   19.4070 C.3   328  ILE328      0.1692
    189  C         -0.5090   -0.9770   20.0650 C.2   328  ILE328      0.2592
    190  O         -0.9290   -0.0340   19.3830 O.2   328  ILE328     -0.2718
    191  CB        -0.6600   -3.4530   19.5720 C.3   328  ILE328      0.0266
    192  CG1        0.0710   -4.6850   19.0170 C.3   328  ILE328      0.0019
    193  CG2       -1.9980   -3.3010   18.8440 C.3   328  ILE328      0.0020
    194  CD1        0.0830   -4.7550   17.5160 C.3   328  ILE328      0.0001
    195  N         -0.6860   -1.0480   21.3810 N.am  329  PHE329     -0.1976
    196  CA        -1.2610    0.0560   22.1430 C.3   329  PHE329      0.1639
    197  C         -0.1890    0.5680   23.0810 C.2   329  PHE329      0.2290
    198  O          0.0230    0.0090   24.1500 O.2   329  PHE329     -0.2864
    199  CB        -2.5050   -0.3950   22.9130 C.3   329  PHE329      0.0560
    200  CG        -3.5790   -0.9660   22.0310 C.ar  329  PHE329     -0.0200
    201  CD1       -4.2350   -0.1590   21.1050 C.ar  329  PHE329     -0.0042
    202  CD2       -3.9250   -2.3180   22.1180 C.ar  329  PHE329     -0.0042
    203  CE1       -5.2180   -0.6820   20.2880 C.ar  329  PHE329     -0.0003
    204  CE2       -4.9090   -2.8440   21.3030 C.ar  329  PHE329     -0.0003
    205  CZ        -5.5570   -2.0270   20.3820 C.ar  329  PHE329     -0.0000
    206  N         -0.7940    0.8710   26.9880 N.3   332  ARG332     -0.1245
    207  CA        -1.5740   -0.1480   27.6950 C.3   332  ARG332      0.1563
    208  C         -0.8400   -0.6430   28.9570 C.2   332  ARG332      0.2260
    209  O         -0.5550   -1.8320   29.0960 O.2   332  ARG332     -0.2867
    210  CB        -1.9440   -1.3040   26.7530 C.3   332  ARG332      0.0307
    211  CG        -2.9370   -2.3180   27.3430 C.3   332  ARG332      0.0489
    212  CD        -3.2510   -3.3620   26.2840 C.3   332  ARG332      0.2205
    213  NE        -4.5040   -4.0590   26.5460 N.pl3 332  ARG332     -0.0865
    214  CZ        -5.1050   -4.8810   25.6900 C.cat 332  ARG332      0.5346
    215  NH1       -4.5900   -5.1220   24.4760 N.pl3 332  ARG332      0.1354
    216  NH2       -6.2350   -5.4450   26.0410 N.pl3 332  ARG332      0.1354
    217  N        -10.4020   -4.5010   29.9580 N.3   371  LEU371     -0.1231
    218  CA       -10.5730   -5.9500   29.9870 C.3   371  LEU371      0.1693
    219  C         -9.3960   -6.7340   30.6000 C.2   371  LEU371      0.2591
    220  O         -9.5460   -7.3620   31.6610 O.2   371  LEU371     -0.2718
    221  CB       -10.8740   -6.4630   28.5820 C.3   371  LEU371      0.0284
    222  CG       -11.1070   -7.9700   28.4260 C.3   371  LEU371      0.0019
    223  CD1      -12.0820   -8.4830   29.4780 C.3   371  LEU371      0.0001
    224  CD2      -11.5590   -8.2890   27.0020 C.3   371  LEU371      0.0001
    225  N         -8.2380   -6.6910   29.9410 N.am  372  ARG372     -0.1980
    226  CA        -7.1200   -7.5490   30.3090 C.3   372  ARG372      0.1597
    227  C         -6.3400   -7.0640   31.5370 C.2   372  ARG372      0.2287
    228  O         -5.7030   -7.8700   32.2160 O.2   372  ARG372     -0.2864
    229  CB        -6.1900   -7.7710   29.1030 C.3   372  ARG372      0.0334
    230  CG        -6.9170   -8.0080   27.7750 C.3   372  ARG372      0.0492
    231  CD        -7.7280   -9.2970   27.7750 C.3   372  ARG372      0.2205
    232  NE        -8.4050   -9.5140   26.5000 N.pl3 372  ARG372     -0.0865
    233  CZ        -9.3840  -10.3930   26.2990 C.cat 372  ARG372      0.5346
    234  NH1       -9.8140  -11.1320   27.2950 N.pl3 372  ARG372      0.1354
    235  NH2       -9.9240  -10.5400   25.0940 N.pl3 372  ARG372      0.1354
@<TRIPOS>BOND
     1   105   104    2
     2    97    96    2
     3   104   103    1
     4   112   113    1
     5    89    88    2
     6   101    99    1
     7    96    95    1
     8    96   102   am
     9    95    98    1
    10    95    94    1
    11   103   102    1
    12   103   106    1
    13   115   114    2
    14    88    94   am
    15    88    87    1
    16    98    99    1
    17   113   114    1
    18   113   116    1
    19    99   100    1
    20   114   121   am
    21    93    91   ar
    22   127   125    1
    23   106   107    1
    24   117   116    1
    25   117   118    1
    26    87    90    1
    27    87    86    1
    28    90    91    1
    29   121   122    1
    30    91    92   ar
    31   122   125    1
    32   122   123    1
    33   119   118    1
    34   119   120    1
    35    82    81    2
    36   125   126    1
    37   107   108   ar
    38   107   109   ar
    39   131   130    2
    40   128   123   am
    41   128   129    1
    42    86    81   am
    43   108   110   ar
    44   144   143    2
    45   123   124    2
    46    81    80    1
    47    45    44    2
    48   132   129    1
    49   132   133    1
    50   109   111   ar
    51   143   142    1
    52   130   129    1
    53   130   134   am
    54   137   136    2
    55   110   111   ar
    56    44    43    1
    57   145   146    1
    58   148   147    2
    59   136   135    1
    60   136   141   am
    61    48    50   ar
    62    48    47   ar
    63    80    83    1
    64    80    79    1
    65    43    46    1
    66    43    42    1
    67   134   135    1
    68   135   138    1
    69    85    83    1
    70    50    51   ar
    71   142   141    1
    72    83    84    1
    73   147   146    1
    74    46    47    1
    75    79    74   am
    76    47    49   ar
    77   146   149    1
    78   152   151   ar
    79    51    49   ar
    80    51    53   ar
    81    74    75    2
    82    74    73    1
    83    76    77    1
    84    76    73    1
    85   138   139    1
    86   138   140    1
    87   149   150    1
    88    49    52   ar
    89    77    78    1
    90   151   150    1
    91   151   153   ar
    92    53    55   ar
    93    73    72    1
    94    52    54   ar
    95    78    72    1
    96    55    54   ar
    97    21    20    2
    98    72    63   am
    99    40    39    2
   100    20    19    1
   101    13    12    2
   102    63    64    2
   103    63    62    1
   104   194   192    1
   105    39    38    1
   106    36    34    1
   107    29    28    2
   108    12    11    1
   109    19    18    1
   110    19    22    1
   111    62    61    1
   112    62    65    1
   113   164   162    1
   114    38    41    1
   115    38    37    1
   116   193   191    1
   117    59    58    2
   118    22    23    1
   119   162   161    2
   120   162   163    1
   121   192   191    1
   122    61    58   am
   123    60    57    1
   124    34    33    2
   125    34    35    1
   126    28    37   am
   127    28    27    1
   128   161   160    1
   129    58    57    1
   130    65    66    1
   131   190   189    2
   132   188   191    1
   133   188   187    1
   134   188   189    1
   135    11    14    1
   136    11    10    1
   137    14    15    1
   138    33    32    1
   139   160   159    1
   140    57    56    1
   141   189   195   am
   142    27    30    1
   143    27    26    1
   144   203   205   ar
   145   203   201   ar
   146     4     3    2
   147    71    69    1
   148    66    67    1
   149    30    31    1
   150   205   204   ar
   151    23    25    1
   152    23    24    1
   153    68    69    2
   154    68    67    1
   155    10     3   am
   156    15    17   am
   157    15    16    2
   158    31    32    1
   159     3     2    1
   160    69    70    1
   161   201   200   ar
   162   159   158    1
   163   204   202   ar
   164   195   196    1
   165   166   165    1
   166   166   169    1
   167   166   167    1
   168   165   171    1
   169   158   155    1
   170   178   176    1
   171   169   170    1
   172   171   170    1
   173   200   202   ar
   174   200   199    1
   175   172   167   am
   176   172   173    1
   177   196   199    1
   178   196   197    1
   179     2     1    1
   180     2     5    1
   181   176   173    1
   182   176   177    1
   183   167   168    2
   184   154   155    1
   185   186   184   ar
   186   155   156    1
   187   197   198    2
   188   173   174    1
   189     9     8    1
   190     6     5    1
   191     6     7    1
   192   184   185   ar
   193   184   183    1
   194   179   174   am
   195   179   180    1
   196   156   157    2
   197   183   180    1
   198   174   175    2
   199     7     8    1
   200   215   214    1
   201   180   181    1
   202   235   233    1
   203   214   216    1
   204   214   213    2
   205   181   182    2
   206   212   213    1
   207   212   211    1
   208   233   232    2
   209   233   234    1
   210   232   231    1
   211   210   211    1
   212   210   207    1
   213   206   207    1
   214   224   222    1
   215   207   208    1
   216   231   230    1
   217   230   229    1
   218   222   221    1
   219   222   223    1
   220   221   218    1
   221   208   209    2
   222   229   226    1
   223   225   226    1
   224   225   219   am
   225   217   218    1
   226   218   219    1
   227   226   227    1
   228   219   220    2
   229   227   228    2
