@<TRIPOS>MOLECULE
tmp/3vcyA00.pdb
 117 112 0 0 0
SMALL
GASTEIGER

@<TRIPOS>ATOM
      1  N        -20.4480    4.2590   22.7980 N.3    89  LYS89      -0.1231
      2  CA       -19.6230    4.6050   23.9630 C.3    89  LYS89       0.1693
      3  C        -19.4590    3.4390   24.9380 C.2    89  LYS89       0.2593
      4  O        -18.4170    3.3150   25.5780 O.2    89  LYS89      -0.2718
      5  CB       -20.0800    5.9060   24.6550 C.3    89  LYS89       0.0285
      6  CG       -21.4100    5.8690   25.3900 C.3    89  LYS89       0.0035
      7  CD       -21.4490    6.9280   26.4830 C.3    89  LYS89       0.0206
      8  CE       -22.8740    7.3180   26.8490 C.3    89  LYS89       0.1093
      9  NZ       -23.7120    6.1400   27.2190 N.3    89  LYS89      -0.1314
     10  N        -20.4660    2.5650   25.0160 N.am   90  THR90      -0.1939
     11  CA       -20.3610    1.3570   25.8340 C.3    90  THR90       0.2028
     12  C        -19.4850    0.2600   25.2070 C.2    90  THR90       0.2642
     13  O        -18.8550   -0.5060   25.9360 O.2    90  THR90      -0.2714
     14  CB       -21.7440    0.8070   26.2940 C.3    90  THR90       0.1808
     15  OG1      -22.3680    0.0660   25.2450 O.3    90  THR90      -0.2208
     16  CG2      -22.6690    1.9370   26.7140 C.3    90  THR90       0.0379
     17  N        -19.4420    0.1620   23.8770 N.am   91  MET91      -0.1962
     18  CA       -18.4640   -0.7290   23.2180 C.3    91  MET91       0.1736
     19  C        -18.1500   -0.3330   21.7870 C.2    91  MET91       0.2616
     20  O        -19.0510   -0.2230   20.9450 O.2    91  MET91      -0.2715
     21  CB       -18.8250   -2.2140   23.3120 C.3    91  MET91       0.0427
     22  CG       -20.0090   -2.6390   22.4960 C.3    91  MET91       0.0599
     23  SD       -19.9440   -4.3500   21.9360 S.3    91  MET91      -0.1393
     24  CE       -21.1800   -4.1360   20.6680 C.3    91  MET91       0.0692
     25  N        -16.8640   -0.1110   21.5260 N.am   92  ARG92      -0.1977
     26  CA       -16.4360    0.4660   20.2600 C.3    92  ARG92       0.1597
     27  C        -16.5190   -0.5270   19.0950 C.2    92  ARG92       0.2287
     28  O        -16.5310   -0.1150   17.9470 O.2    92  ARG92      -0.2864
     29  CB       -15.0610    1.1340   20.3800 C.3    92  ARG92       0.0334
     30  CG       -13.9660    0.2620   20.9610 C.3    92  ARG92       0.0492
     31  CD       -12.6200    0.9790   20.9720 C.3    92  ARG92       0.2205
     32  NE       -12.1170    1.1800   19.6060 N.pl3  92  ARG92      -0.0865
     33  CZ       -11.7740    2.3560   19.0740 C.cat  92  ARG92       0.5346
     34  NH1      -11.8370    3.4870   19.7820 N.pl3  92  ARG92       0.1354
     35  NH2      -11.3360    2.3940   17.8090 N.pl3  92  ARG92       0.1354
     36  N        -14.8190    7.7520   20.8590 N.3   114  GLY114     -0.1210
     37  CA       -14.0320    8.7420   21.5910 C.3   114  GLY114      0.1956
     38  C        -12.6890    8.1870   22.0330 C.2   114  GLY114      0.2612
     39  O        -12.2230    7.1820   21.5140 O.2   114  GLY114     -0.2717
     40  N        -12.0560    8.8530   22.9860 N.am  115  GLY115     -0.1942
     41  CA       -10.7280    8.4580   23.4470 C.3   115  GLY115      0.2014
     42  C        -10.7370    7.2060   24.2960 C.2   115  GLY115      0.2639
     43  O        -11.7130    6.9420   25.0230 O.2   115  GLY115     -0.2714
     44  N         -9.6420    6.4470   24.2020 N.am  116  CYS116     -0.1953
     45  CA        -9.4110    5.2510   25.0180 C.3   116  CYS116      0.1843
     46  C         -8.0450    5.3720   25.6460 C.2   116  CYS116      0.2625
     47  O         -7.0720    5.7490   24.9840 O.2   116  CYS116     -0.2714
     48  CB        -9.4460    4.0430   24.0920 C.3   116  CYS116      0.0997
     49  SG        -9.2810    2.5220   24.9860 S.3   116  CYS116     -0.0797
     50  N         -7.9490    5.0370   26.9260 N.am  117  ALA117     -0.1963
     51  CA        -6.7050    5.2420   27.6980 C.3   117  ALA117      0.1728
     52  C         -5.4650    4.4670   27.1860 C.2   117  ALA117      0.2616
     53  O         -4.3280    4.9030   27.4150 O.2   117  ALA117     -0.2715
     54  CB        -6.9500    4.9420   29.1690 C.3   117  ALA117      0.0334
     55  N         -5.6890    3.3410   26.5060 N.am  118  ILE118     -0.1977
     56  CA        -4.6040    2.4350   26.1100 C.3   118  ILE118      0.1596
     57  C         -3.7390    2.9440   24.9410 C.2   118  ILE118      0.2287
     58  O         -2.6480    2.4330   24.7150 O.2   118  ILE118     -0.2864
     59  CB        -5.0890    0.9800   25.8490 C.3   118  ILE118      0.0276
     60  CG1       -6.0800    0.9160   24.6770 C.3   118  ILE118      0.0022
     61  CG2       -5.6340    0.3290   27.1250 C.3   118  ILE118      0.0022
     62  CD1       -6.3540   -0.4780   24.1490 C.3   118  ILE118      0.0001
     63  N         -6.6610    5.2430   19.0320 N.3   121  ARG121     -0.1245
     64  CA        -7.3780    4.1750   18.3210 C.3   121  ARG121      0.1563
     65  C         -8.2800    4.7200   17.1920 C.2   121  ARG121      0.2260
     66  O         -9.5020    4.4860   17.1990 O.2   121  ARG121     -0.2867
     67  CB        -8.1570    3.2840   19.3140 C.3   121  ARG121      0.0307
     68  CG        -7.2620    2.6140   20.3760 C.3   121  ARG121      0.0489
     69  CD        -8.0140    1.6140   21.2410 C.3   121  ARG121      0.2205
     70  NE        -8.4790    0.4310   20.5170 N.pl3 121  ARG121     -0.0865
     71  CZ        -9.2260   -0.5260   21.0700 C.cat 121  ARG121      0.5346
     72  NH1       -9.5810   -0.4290   22.3490 N.pl3 121  ARG121      0.1354
     73  NH2       -9.5940   -1.6030   20.3700 N.pl3 121  ARG121      0.1354
     74  N         -9.6460   -1.1880   34.7600 N.3   369  THR369     -0.1203
     75  CA        -9.8350   -0.0800   33.7990 C.3   369  THR369      0.1994
     76  C        -10.0060   -0.5510   32.3570 C.2   369  THR369      0.2618
     77  O        -10.4940    0.1900   31.5030 O.2   369  THR369     -0.2717
     78  CB        -8.6810    0.9480   33.8160 C.3   369  THR369      0.1784
     79  OG1       -7.4150    0.2700   33.6750 O.3   369  THR369     -0.2211
     80  CG2       -8.7050    1.8130   35.0920 C.3   369  THR369      0.0376
     81  N         -9.5690   -1.7640   32.0720 N.am  370  ASP370     -0.1959
     82  CA        -9.7830   -2.3350   30.7540 C.3   370  ASP370      0.1840
     83  C         -9.8150   -3.8190   30.9300 C.2   370  ASP370      0.2621
     84  O         -9.3450   -4.3190   31.9440 O.2   370  ASP370     -0.2715
     85  CB        -8.7230   -1.8840   29.7250 C.3   370  ASP370      0.1450
     86  CG        -7.5330   -2.8180   29.6330 C.2   370  ASP370      0.3671
     87  OD1       -7.4770   -3.6480   28.6920 O.co2 370  ASP370     -0.2456
     88  OD2       -6.6450   -2.7100   30.4890 O.co2 370  ASP370     -0.2456
     89  N        -10.4020   -4.5010   29.9580 N.am  371  LEU371     -0.1977
     90  CA       -10.5730   -5.9500   29.9870 C.3   371  LEU371      0.1596
     91  C         -9.3960   -6.7340   30.6000 C.2   371  LEU371      0.2287
     92  O         -9.5460   -7.3620   31.6610 O.2   371  LEU371     -0.2864
     93  CB       -10.8740   -6.4630   28.5820 C.3   371  LEU371      0.0297
     94  CG       -11.1070   -7.9700   28.4260 C.3   371  LEU371      0.0022
     95  CD1      -12.0820   -8.4830   29.4780 C.3   371  LEU371      0.0001
     96  CD2      -11.5590   -8.2890   27.0020 C.3   371  LEU371      0.0001
     97  N        -15.8360   -4.2930   33.6270 N.3   395  HIS395     -0.1241
     98  CA       -14.8060   -4.3860   32.5770 C.3   395  HIS395      0.1621
     99  C        -14.4400   -5.8160   32.2440 C.2   395  HIS395      0.2264
    100  O        -14.3800   -6.1810   31.0770 O.2   395  HIS395     -0.2867
    101  CB       -13.5720   -3.5940   32.9490 C.3   395  HIS395      0.0745
    102  CG       -13.7920   -2.1210   32.9560 C.ar  395  HIS395      0.0817
    103  ND1      -13.5390   -1.3580   34.0350 N.ar  395  HIS395     -0.2268
    104  CD2      -14.2900   -1.2680   31.9770 C.ar  395  HIS395      0.1154
    105  CE1      -13.8540   -0.0850   33.7600 C.ar  395  HIS395      0.1986
    106  NE2      -14.3170   -0.0350   32.4980 N.ar  395  HIS395     -0.2212
    107  N        -17.1920   -7.8250   30.3560 N.3   398  ARG398     -0.1245
    108  CA       -17.2040   -7.5220   28.9390 C.3   398  ARG398      0.1563
    109  C        -16.4500   -8.5920   28.1570 C.2   398  ARG398      0.2260
    110  O        -16.8420   -8.9380   27.0350 O.2   398  ARG398     -0.2867
    111  CB       -16.6050   -6.1390   28.6900 C.3   398  ARG398      0.0307
    112  CG       -17.5180   -4.9970   29.1060 C.3   398  ARG398      0.0489
    113  CD       -17.0130   -3.6580   28.5860 C.3   398  ARG398      0.2205
    114  NE       -16.8020   -3.7170   27.1400 N.pl3 398  ARG398     -0.0865
    115  CZ       -16.1060   -2.8310   26.4390 C.cat 398  ARG398      0.5346
    116  NH1      -15.5240   -1.8020   27.0490 N.pl3 398  ARG398      0.1354
    117  NH2      -15.9800   -2.9960   25.1270 N.pl3 398  ARG398      0.1354
@<TRIPOS>BOND
     1    65    66    2
     2    65    64    1
     3    35    33    1
     4    28    27    2
     5    64    63    1
     6    64    67    1
     7    33    32    2
     8    33    34    1
     9    27    26    1
    10    67    68    1
    11    32    31    1
    12    26    29    1
    13    26    25    1
    14    73    71    1
    15    68    69    1
    16    29    30    1
    17    70    71    2
    18    70    69    1
    19    24    23    1
    20    36    37    1
    21    20    19    2
    22    30    31    1
    23    71    72    1
    24    39    38    2
    25    25    19   am
    26    37    38    1
    27    19    18    1
    28    23    22    1
    29    38    40   am
    30    22    21    1
    31     1     2    1
    32    40    41    1
    33    18    21    1
    34    18    17    1
    35    41    42    1
    36    17    12   am
    37     2     5    1
    38     2     3    1
    39    48    49    1
    40    48    45    1
    41    62    60    1
    42    44    42   am
    43    44    45    1
    44    42    43    2
    45     5     6    1
    46    60    59    1
    47    58    57    2
    48     3    10   am
    49     3     4    2
    50    57    56    1
    51    47    46    2
    52    10    11    1
    53    45    46    1
    54   117   115    1
    55    12    11    1
    56    12    13    2
    57    15    14    1
    58     6     7    1
    59    46    50   am
    60    11    14    1
    61    59    56    1
    62    59    61    1
    63    56    55    1
    64    14    16    1
    65   115   116    1
    66   115   114    2
    67     7     8    1
    68    55    52   am
    69     8     9    1
    70    50    51    1
    71    96    94    1
    72   110   109    2
    73   114   113    1
    74    52    53    2
    75    52    51    1
    76    51    54    1
    77   109   108    1
    78    94    93    1
    79    94    95    1
    80    93    90    1
    81   113   112    1
    82   111   108    1
    83   111   112    1
    84    87    86   ar
    85   108   107    1
    86    86    85    1
    87    86    88   ar
    88    85    82    1
    89    89    90    1
    90    89    83   am
    91    90    91    1
    92    91    92    2
    93    82    83    1
    94    82    81    1
    95    83    84    2
    96   100    99    2
    97    77    76    2
    98   104   106   ar
    99   104   102   ar
   100    81    76   am
   101    99    98    1
   102    76    75    1
   103   106   105   ar
   104    98   101    1
   105    98    97    1
   106   101   102    1
   107   102   103   ar
   108    79    78    1
   109   105   103   ar
   110    75    78    1
   111    75    74    1
   112    78    80    1
