@<TRIPOS>MOLECULE
tmp/3vdfA01.pdb
 74 67 0 0 0
SMALL
GASTEIGER

@<TRIPOS>ATOM
      1  N          6.6500    0.3280   19.1580 N.3   127  ASN127     -0.1225
      2  CA         5.8520    1.3920   19.7820 C.3   127  ASN127      0.1785
      3  C          4.8050    1.9110   18.7890 C.2   127  ASN127      0.2597
      4  O          3.6450    2.1220   19.1840 O.2   127  ASN127     -0.2718
      5  CB         6.7850    2.4760   20.2050 C.3   127  ASN127      0.1169
      6  CG         7.6000    2.1420   21.4170 C.2   127  ASN127      0.2627
      7  OD1        7.2910    1.2020   22.1710 O.2   127  ASN127     -0.2716
      8  ND2        8.6390    2.9430   21.6690 N.am  127  ASN127     -0.0877
      9  N          5.2210    2.1240   17.5540 N.am  128  ILE128     -0.1980
     10  CA         4.2490    2.6730   16.5380 C.3   128  ILE128      0.1595
     11  C          3.1800    1.5940   16.1840 C.2   128  ILE128      0.2287
     12  O          2.0040    1.8530   16.4240 O.2   128  ILE128     -0.2864
     13  CB         4.9880    3.1400   15.3240 C.3   128  ILE128      0.0276
     14  CG1        5.8300    4.3900   15.6320 C.3   128  ILE128      0.0022
     15  CG2        3.9680    3.4640   14.2170 C.3   128  ILE128      0.0022
     16  CD1        5.1150    5.5580   16.2650 C.3   128  ILE128      0.0001
     17  N          1.1740    0.6020   19.4340 N.3   131  GLY131     -0.1210
     18  CA         0.3960    1.7830   19.8820 C.3   131  GLY131      0.1956
     19  C         -0.8380    1.9480   19.0360 C.2   131  GLY131      0.2611
     20  O         -1.9260    2.1530   19.6150 O.2   131  GLY131     -0.2717
     21  N         -0.7080    1.8600   17.7330 N.am  132  LEU132     -0.1979
     22  CA        -1.8690    1.9760   16.8060 C.3   132  LEU132      0.1596
     23  C         -2.8210    0.8470   17.0630 C.2   132  LEU132      0.2287
     24  O         -4.0520    1.0930   17.0940 O.2   132  LEU132     -0.2864
     25  CB        -1.3960    1.9310   15.3750 C.3   132  LEU132      0.0297
     26  CG        -0.6750    3.1850   14.9560 C.3   132  LEU132      0.0022
     27  CD1        0.0550    2.9840   13.6330 C.3   132  LEU132      0.0001
     28  CD2       -1.7330    4.3720   14.7880 C.3   132  LEU132      0.0001
     29  N         -4.8010    1.2410   20.3120 N.3   135  ASN135     -0.1240
     30  CA        -5.8120    2.3210   20.1990 C.3   135  ASN135      0.1653
     31  C         -6.9370    1.8690   19.3490 C.2   135  ASN135      0.2266
     32  O         -8.1300    2.1120   19.7480 O.2   135  ASN135     -0.2867
     33  CB        -5.2450    3.5180   19.5160 C.3   135  ASN135      0.1155
     34  CG        -4.4200    4.3470   20.4420 C.2   135  ASN135      0.2627
     35  OD1       -4.2700    4.0210   21.6520 O.2   135  ASN135     -0.2716
     36  ND2       -3.8640    5.4290   19.8840 N.am  135  ASN135     -0.0877
     37  N          4.4870   14.3900   20.3460 N.3   323  GLU323     -0.1245
     38  CA         3.5400   13.4060   19.8430 C.3   323  GLU323      0.1567
     39  C          4.0380   11.9830   20.0180 C.2   323  GLU323      0.2260
     40  O          3.2970   11.1960   20.6330 O.2   323  GLU323     -0.2867
     41  CB         3.2570   13.6210   18.3990 C.3   323  GLU323      0.0388
     42  CG         2.3730   14.8670   18.2090 C.3   323  GLU323      0.1160
     43  CD         1.6820   14.8740   16.8500 C.2   323  GLU323      0.3649
     44  OE1        1.9410   13.9280   16.0180 O.co2 323  GLU323     -0.2457
     45  OE2        0.8840   15.8290   16.6300 O.co2 323  GLU323     -0.2457
     46  N          4.1230   11.1350   23.7430 N.3   326  THR326     -0.1203
     47  CA         2.8000   10.9110   24.2650 C.3   326  THR326      0.1994
     48  C          2.3060    9.5360   23.8300 C.2   326  THR326      0.2617
     49  O          1.7520    8.8210   24.6050 O.2   326  THR326     -0.2717
     50  CB         1.7830   11.9180   23.7430 C.3   326  THR326      0.1784
     51  OG1        2.2450   13.2420   23.9560 O.3   326  THR326     -0.2211
     52  CG2        0.4950   11.7120   24.5090 C.3   326  THR326      0.0376
     53  N          2.5380    9.2220   22.5790 N.am  327  ALA327     -0.1979
     54  CA         2.1470    7.8200   22.0310 C.3   327  ALA327      0.1597
     55  C          2.8580    6.7060   22.8550 C.2   327  ALA327      0.2287
     56  O          2.2680    5.7240   23.1820 O.2   327  ALA327     -0.2864
     57  CB         2.4540    7.6940   20.6320 C.3   327  ALA327      0.0319
     58  N          1.2430    6.5760   26.3460 N.3   330  ASN330     -0.1240
     59  CA        -0.1030    5.9030   26.2300 C.3   330  ASN330      0.1653
     60  C          0.0590    4.3610   26.1610 C.2   330  ASN330      0.2266
     61  O         -0.6330    3.5760   26.8450 O.2   330  ASN330     -0.2867
     62  CB        -0.9380    6.4550   25.1030 C.3   330  ASN330      0.1155
     63  CG        -1.7340    7.7000   25.4980 C.2   330  ASN330      0.2627
     64  OD1       -2.7600    7.5980   26.1900 O.2   330  ASN330     -0.2716
     65  ND2       -1.2970    8.8560   25.0270 N.am  330  ASN330     -0.0877
     66  N          1.1470    2.6620   29.4300 N.3   333  LYS333     -0.1245
     67  CA         0.0080    2.4430   30.3660 C.3   333  LYS333      0.1561
     68  C         -0.5740    1.0330   30.3490 C.2   333  LYS333      0.2260
     69  O         -1.1290    0.5770   31.3610 O.2   333  LYS333     -0.2867
     70  CB        -1.1050    3.4510   30.1130 C.3   333  LYS333      0.0271
     71  CG        -0.7270    4.9030   30.4150 C.3   333  LYS333      0.0035
     72  CD        -1.8190    5.8210   29.9150 C.3   333  LYS333      0.0206
     73  CE        -1.4410    7.2900   30.0260 C.3   333  LYS333      0.1093
     74  NZ        -2.3440    8.1070   29.1510 N.3   333  LYS333     -0.1314
@<TRIPOS>BOND
     1    27    26    1
     2    15    13    1
     3    28    26    1
     4    26    25    1
     5    13    14    1
     6    13    10    1
     7    25    22    1
     8    14    16    1
     9    44    43   ar
    10    11    12    2
    11    11    10    1
    12    10     9    1
    13    45    43   ar
    14    22    23    1
    15    22    21    1
    16    43    42    1
    17    23    24    2
    18     9     3   am
    19    21    19   am
    20    42    41    1
    21    41    38    1
    22     3     4    2
    23     3     2    1
    24    19    20    2
    25    19    18    1
    26     1     2    1
    27    31    32    2
    28    31    30    1
    29    17    18    1
    30    33    30    1
    31    33    34    1
    32     2     5    1
    33    38    39    1
    34    38    37    1
    35    36    34   am
    36    39    40    2
    37    30    29    1
    38     5     6    1
    39    34    35    2
    40    57    54    1
    41     6     8   am
    42     6     7    2
    43    54    53    1
    44    54    55    1
    45    53    48   am
    46    55    56    2
    47    50    51    1
    48    50    47    1
    49    50    52    1
    50    46    47    1
    51    48    47    1
    52    48    49    2
    53    65    63   am
    54    62    63    1
    55    62    59    1
    56    63    64    2
    57    60    59    1
    58    60    61    2
    59    59    58    1
    60    74    73    1
    61    66    67    1
    62    72    73    1
    63    72    71    1
    64    70    67    1
    65    70    71    1
    66    68    67    1
    67    68    69    2
