@<TRIPOS>MOLECULE
tmp/3vdfA03.pdb
 80 76 0 0 0
SMALL
GASTEIGER

@<TRIPOS>ATOM
      1  N          5.2210    2.1240   17.5540 N.3   128  ILE128     -0.1245
      2  CA         4.2490    2.6730   16.5380 C.3   128  ILE128      0.1561
      3  C          3.1800    1.5940   16.1840 C.2   128  ILE128      0.2260
      4  O          2.0040    1.8530   16.4240 O.2   128  ILE128     -0.2867
      5  CB         4.9880    3.1400   15.3240 C.3   128  ILE128      0.0252
      6  CG1        5.8300    4.3900   15.6320 C.3   128  ILE128      0.0019
      7  CG2        3.9680    3.4640   14.2170 C.3   128  ILE128      0.0019
      8  CD1        5.1150    5.5580   16.2650 C.3   128  ILE128      0.0001
      9  N         -0.7080    1.8600   17.7330 N.3   132  LEU132     -0.1245
     10  CA        -1.8690    1.9760   16.8060 C.3   132  LEU132      0.1561
     11  C         -2.8210    0.8470   17.0630 C.2   132  LEU132      0.2260
     12  O         -4.0520    1.0930   17.0940 O.2   132  LEU132     -0.2867
     13  CB        -1.3960    1.9310   15.3750 C.3   132  LEU132      0.0270
     14  CG        -0.6750    3.1850   14.9560 C.3   132  LEU132      0.0019
     15  CD1        0.0550    2.9840   13.6330 C.3   132  LEU132      0.0001
     16  CD2       -1.7330    4.3720   14.7880 C.3   132  LEU132      0.0001
     17  N         -2.5080    2.5400    6.3990 N.3   233  LEU233     -0.1245
     18  CA        -3.5280    2.5990    7.4720 C.3   233  LEU233      0.1561
     19  C         -4.9930    2.6680    6.9360 C.2   233  LEU233      0.2260
     20  O         -5.9050    2.3680    7.7040 O.2   233  LEU233     -0.2867
     21  CB        -3.2650    3.7490    8.4430 C.3   233  LEU233      0.0270
     22  CG        -2.0520    3.4670    9.3450 C.3   233  LEU233      0.0019
     23  CD1       -1.7210    4.8010   10.0500 C.3   233  LEU233      0.0001
     24  CD2       -2.3410    2.3340   10.3650 C.3   233  LEU233      0.0001
     25  N          2.8570    4.7790    5.1240 N.3   247  HIS247     -0.1226
     26  CA         3.6630    4.4530    6.3400 C.3   247  HIS247      0.1752
     27  C          2.8000    4.5950    7.5440 C.2   247  HIS247      0.2596
     28  O          1.6710    5.1050    7.5610 O.2   247  HIS247     -0.2718
     29  CB         4.9010    5.3760    6.4420 C.3   247  HIS247      0.0759
     30  CG         4.5220    6.8610    6.3950 C.ar  247  HIS247      0.0818
     31  ND1        4.5850    7.5570    5.1860 N.ar  247  HIS247     -0.2268
     32  CD2        4.0290    7.6870    7.3310 C.ar  247  HIS247      0.1154
     33  CE1        4.2140    8.8250    5.3750 C.ar  247  HIS247      0.1986
     34  NE2        3.7830    8.9580    6.6720 N.ar  247  HIS247     -0.2212
     35  N          3.2970    4.0230    8.6510 N.am  248  LEU248     -0.1966
     36  CA         2.6330    4.0780    9.9380 C.3   248  LEU248      0.1728
     37  C          2.9770    5.3230   10.7390 C.2   248  LEU248      0.2616
     38  O          2.1140    5.8230   11.5210 O.2   248  LEU248     -0.2715
     39  CB         3.0210    2.8350   10.7900 C.3   248  LEU248      0.0311
     40  CG         2.6550    1.5420   10.0980 C.3   248  LEU248      0.0022
     41  CD1        2.8740    0.4590   11.1720 C.3   248  LEU248      0.0001
     42  CD2        1.2350    1.4160    9.4770 C.3   248  LEU248      0.0001
     43  N          4.1740    5.8380   10.5370 N.am  249  ALA249     -0.1963
     44  CA         4.6510    7.0690   11.2340 C.3   249  ALA249      0.1728
     45  C          5.9450    7.4760   10.7130 C.2   249  ALA249      0.2616
     46  O          6.6520    6.6480   10.0780 O.2   249  ALA249     -0.2715
     47  CB         4.8290    6.7970   12.7640 C.3   249  ALA249      0.0334
     48  N          6.3920    8.7060   10.9970 N.am  250  VAL250     -0.1977
     49  CA         7.7890    9.0710   10.7700 C.3   250  VAL250      0.1596
     50  C          8.4880    9.0290   12.1390 C.2   250  VAL250      0.2287
     51  O          7.9610    9.5150   13.1810 O.2   250  VAL250     -0.2864
     52  CB         7.8740   10.5680   10.3490 C.3   250  VAL250      0.0276
     53  CG1        9.3170   11.0220   10.1780 C.3   250  VAL250      0.0022
     54  CG2        7.1430   10.7290    9.0310 C.3   250  VAL250      0.0022
     55  N          4.4870   14.3900   20.3460 N.3   323  GLU323     -0.1231
     56  CA         3.5400   13.4060   19.8430 C.3   323  GLU323      0.1699
     57  C          4.0380   11.9830   20.0180 C.2   323  GLU323      0.2592
     58  O          3.2970   11.1960   20.6330 O.2   323  GLU323     -0.2718
     59  CB         3.2570   13.6210   18.3990 C.3   323  GLU323      0.0402
     60  CG         2.3730   14.8670   18.2090 C.3   323  GLU323      0.1161
     61  CD         1.6820   14.8740   16.8500 C.2   323  GLU323      0.3649
     62  OE1        1.9410   13.9280   16.0180 O.co2 323  GLU323     -0.2457
     63  OE2        0.8840   15.8290   16.6300 O.co2 323  GLU323     -0.2457
     64  N          5.3020   11.7480   19.5680 N.am  324  TYR324     -0.1976
     65  CA         5.8490   10.4140   19.8040 C.3   324  TYR324      0.1639
     66  C          5.9470   10.0740   21.2500 C.2   324  TYR324      0.2290
     67  O          5.6100    8.9510   21.7040 O.2   324  TYR324     -0.2864
     68  CB         7.1520   10.2480   19.0650 C.3   324  TYR324      0.0560
     69  CG         7.7460    8.8490   19.2080 C.ar  324  TYR324     -0.0198
     70  CD1        6.8970    7.6770   19.0930 C.ar  324  TYR324     -0.0009
     71  CD2        9.1500    8.6520   19.3590 C.ar  324  TYR324     -0.0009
     72  CE1        7.4320    6.3620   19.2250 C.ar  324  TYR324      0.0417
     73  CE2        9.6550    7.3460   19.4810 C.ar  324  TYR324      0.0417
     74  CZ         8.8230    6.2570   19.3750 C.ar  324  TYR324      0.1957
     75  OH         9.3880    5.0310   19.5750 O.3   324  TYR324     -0.2866
     76  N          2.5380    9.2220   22.5790 N.3   327  ALA327     -0.1245
     77  CA         2.1470    7.8200   22.0310 C.3   327  ALA327      0.1562
     78  C          2.8580    6.7060   22.8550 C.2   327  ALA327      0.2260
     79  O          2.2680    5.7240   23.1820 O.2   327  ALA327     -0.2867
     80  CB         2.4540    7.6940   20.6320 C.3   327  ALA327      0.0290
@<TRIPOS>BOND
     1    25    26    1
     2    31    33   ar
     3    31    30   ar
     4    33    34   ar
     5    26    29    1
     6    26    27    1
     7    30    29    1
     8    30    32   ar
     9    17    18    1
    10    34    32   ar
    11    19    18    1
    12    19    20    2
    13    18    21    1
    14    27    28    2
    15    27    35   am
    16    21    22    1
    17    35    36    1
    18    54    52    1
    19    22    23    1
    20    22    24    1
    21    42    40    1
    22    36    37    1
    23    36    39    1
    24    46    45    2
    25    40    39    1
    26    40    41    1
    27    53    52    1
    28    52    49    1
    29    43    37   am
    30    43    44    1
    31    45    48   am
    32    45    44    1
    33    37    38    2
    34    49    48    1
    35    49    50    1
    36    44    47    1
    37    50    51    2
    38    15    14    1
    39     7     5    1
    40    16    14    1
    41    14    13    1
    42     5     6    1
    43     5     2    1
    44    13    10    1
    45     6     8    1
    46    62    61   ar
    47     3     4    2
    48     3     2    1
    49     2     1    1
    50    63    61   ar
    51    10    11    1
    52    10     9    1
    53    61    60    1
    54    11    12    2
    55    60    59    1
    56    59    56    1
    57    68    69    1
    58    68    65    1
    59    70    69   ar
    60    70    72   ar
    61    69    71   ar
    62    72    74   ar
    63    71    73   ar
    64    74    73   ar
    65    74    75    1
    66    64    65    1
    67    64    57   am
    68    65    66    1
    69    56    57    1
    70    56    55    1
    71    57    58    2
    72    80    77    1
    73    66    67    2
    74    77    76    1
    75    77    78    1
    76    78    79    2
