@<TRIPOS>MOLECULE
tmp/3vdiA07.pdb
 89 87 0 0 0
SMALL
GASTEIGER

@<TRIPOS>ATOM
      1  N        -38.1280   53.2070   41.0360 N.3   154  THR154     -0.1218
      2  CA       -37.8960   51.7590   40.8540 C.3   154  THR154      0.1862
      3  C        -37.3480   51.1560   42.1420 C.2   154  THR154      0.2287
      4  O        -37.8080   50.0800   42.5370 O.2   154  THR154     -0.2866
      5  CB       -37.0020   51.4980   39.6370 C.3   154  THR154      0.1770
      6  OG1      -37.6910   51.9880   38.5050 O.3   154  THR154     -0.2211
      7  CG2      -36.6850   50.0190   39.4340 C.3   154  THR154      0.0375
      8  N        -40.2190   50.6820   44.4900 N.3   157  GLY157     -0.1210
      9  CA       -41.0230   49.5480   44.0370 C.3   157  GLY157      0.1956
     10  C        -40.4180   48.2330   44.5030 C.2   157  GLY157      0.2611
     11  O        -41.1320   47.3750   45.0360 O.2   157  GLY157     -0.2717
     12  N        -39.0730   48.0920   44.3700 N.am  158  PHE158     -0.1976
     13  CA       -38.3550   46.8960   44.8390 C.3   158  PHE158      0.1639
     14  C        -38.4000   46.7770   46.3680 C.2   158  PHE158      0.2290
     15  O        -38.5950   45.6770   46.8860 O.2   158  PHE158     -0.2864
     16  CB       -36.9220   46.8420   44.2740 C.3   158  PHE158      0.0560
     17  CG       -36.8680   46.2050   42.9030 C.ar  158  PHE158     -0.0200
     18  CD1      -36.7690   44.8240   42.7640 C.ar  158  PHE158     -0.0042
     19  CD2      -36.9810   46.9820   41.7500 C.ar  158  PHE158     -0.0042
     20  CE1      -36.7470   44.2290   41.4950 C.ar  158  PHE158     -0.0003
     21  CE2      -36.9670   46.3900   40.4820 C.ar  158  PHE158     -0.0003
     22  CZ       -36.8510   45.0130   40.3620 C.ar  158  PHE158     -0.0000
     23  N        -40.8930   47.7290   48.2910 N.3   160  GLN160     -0.1231
     24  CA       -42.2560   47.2200   48.4940 C.3   160  GLN160      0.1698
     25  C        -42.3860   45.7320   48.1190 C.2   160  GLN160      0.2592
     26  O        -43.0090   44.9900   48.8720 O.2   160  GLN160     -0.2718
     27  CB       -43.2810   48.0460   47.6950 C.3   160  GLN160      0.0381
     28  CG       -43.4970   49.4540   48.2520 C.3   160  GLN160      0.0905
     29  CD       -44.4210   50.2800   47.3920 C.2   160  GLN160      0.2608
     30  OE1      -43.9860   51.1610   46.6390 O.2   160  GLN160     -0.2717
     31  NE2      -45.7220   50.0310   47.5010 N.am  160  GLN160     -0.0878
     32  N        -41.8420   45.3090   46.9460 N.am  161  SER161     -0.1952
     33  CA       -41.9130   43.9100   46.4940 C.3   161  SER161      0.1924
     34  C        -41.0990   42.9800   47.3680 C.2   161  SER161      0.2314
     35  O        -41.5690   41.8880   47.6710 O.2   161  SER161     -0.2863
     36  CB       -41.4920   43.7560   45.0360 C.3   161  SER161      0.2116
     37  OG       -42.3080   44.5610   44.2100 O.3   161  SER161     -0.2180
     38  N        -42.9550   43.2120   51.1170 N.3   164  GLY164     -0.1210
     39  CA       -44.3120   42.7050   50.9440 C.3   164  GLY164      0.1956
     40  C        -44.3850   41.2560   50.4970 C.2   164  GLY164      0.2612
     41  O        -45.0320   40.4390   51.1630 O.2   164  GLY164     -0.2717
     42  N        -43.7040   40.9470   49.3920 N.am  165  GLY165     -0.1956
     43  CA       -43.6720   39.6240   48.7730 C.3   165  GLY165      0.1869
     44  C        -43.1400   38.4820   49.6150 C.2   165  GLY165      0.2309
     45  O        -43.6550   37.3680   49.5180 O.2   165  GLY165     -0.2863
     46  N        -41.2750   37.0690   46.4430 N.3   169  PHE169     -0.1241
     47  CA       -40.3990   37.9390   45.6490 C.3   169  PHE169      0.1605
     48  C        -39.4060   37.1520   44.7710 C.2   169  PHE169      0.2264
     49  O        -39.3630   37.3690   43.5650 O.2   169  PHE169     -0.2867
     50  CB       -39.6600   38.9990   46.5020 C.3   169  PHE169      0.0534
     51  CG       -38.6710   39.7730   45.6460 C.ar  169  PHE169     -0.0203
     52  CD1      -39.1000   40.8140   44.8300 C.ar  169  PHE169     -0.0042
     53  CD2      -37.3340   39.3840   45.5720 C.ar  169  PHE169     -0.0042
     54  CE1      -38.2010   41.4950   44.0080 C.ar  169  PHE169     -0.0003
     55  CE2      -36.4450   40.0400   44.7240 C.ar  169  PHE169     -0.0003
     56  CZ       -36.8730   41.1140   43.9740 C.ar  169  PHE169     -0.0000
     57  N        -41.5290   35.0330   41.9900 N.3   172  TRP172     -0.1227
     58  CA       -42.2070   35.8090   40.9440 C.3   172  TRP172      0.1737
     59  C        -41.2960   36.7230   40.1400 C.2   172  TRP172      0.2595
     60  O        -41.6790   37.1390   39.0560 O.2   172  TRP172     -0.2718
     61  CB       -43.3880   36.6090   41.5340 C.3   172  TRP172      0.0564
     62  CG       -44.4460   35.8030   42.2470 C.ar  172  TRP172      0.0003
     63  CD1      -44.5880   34.4440   42.2640 C.ar  172  TRP172      0.0946
     64  CD2      -45.5070   36.3280   43.0580 C.ar  172  TRP172      0.0152
     65  NE1      -45.6560   34.0900   43.0580 N.ar  172  TRP172     -0.2442
     66  CE2      -46.2340   35.2250   43.5660 C.ar  172  TRP172      0.0810
     67  CE3      -45.9050   37.6260   43.4230 C.ar  172  TRP172      0.0012
     68  CZ2      -47.3620   35.3840   44.3940 C.ar  172  TRP172      0.0191
     69  CZ3      -47.0150   37.7800   44.2520 C.ar  172  TRP172      0.0001
     70  CH2      -47.7210   36.6670   44.7370 C.ar  172  TRP172      0.0015
     71  N        -40.0910   37.0550   40.6670 N.am  173  ILE173     -0.1980
     72  CA       -39.1520   37.9150   39.9420 C.3   173  ILE173      0.1595
     73  C        -38.7120   37.2790   38.6230 C.2   173  ILE173      0.2287
     74  O        -38.2870   38.0030   37.7310 O.2   173  ILE173     -0.2864
     75  CB       -37.9200   38.3240   40.8260 C.3   173  ILE173      0.0276
     76  CG1      -37.1510   39.5370   40.2430 C.3   173  ILE173      0.0022
     77  CG2      -36.9950   37.1330   41.1020 C.3   173  ILE173      0.0022
     78  CD1      -37.9930   40.8460   40.2340 C.3   173  ILE173      0.0001
     79  N        -40.4720   38.5780   35.6020 N.3   176  PHE176     -0.1241
     80  CA       -40.1620   39.9870   35.3810 C.3   176  PHE176      0.1605
     81  C        -38.8150   40.0360   34.6200 C.2   176  PHE176      0.2264
     82  O        -38.6380   40.7870   33.6570 O.2   176  PHE176     -0.2867
     83  CB       -40.0210   40.7090   36.7470 C.3   176  PHE176      0.0534
     84  CG       -39.3410   42.0560   36.6600 C.ar  176  PHE176     -0.0203
     85  CD1      -40.0670   43.2020   36.3420 C.ar  176  PHE176     -0.0042
     86  CD2      -37.9700   42.1780   36.8790 C.ar  176  PHE176     -0.0042
     87  CE1      -39.4350   44.4540   36.2750 C.ar  176  PHE176     -0.0003
     88  CE2      -37.3390   43.4280   36.8110 C.ar  176  PHE176     -0.0003
     89  CZ       -38.0790   44.5560   36.5040 C.ar  176  PHE176     -0.0000
@<TRIPOS>BOND
     1    82    81    2
     2    81    80    1
     3    80    79    1
     4    80    83    1
     5    87    85   ar
     6    87    89   ar
     7    85    84   ar
     8    89    88   ar
     9    84    83    1
    10    84    86   ar
    11    88    86   ar
    12    74    73    2
    13     6     5    1
    14    73    72    1
    15    60    59    2
    16     7     5    1
    17     5     2    1
    18    72    71    1
    19    72    75    1
    20    59    71   am
    21    59    58    1
    22    78    76    1
    23    76    75    1
    24    22    21   ar
    25    22    20   ar
    26    21    19   ar
    27    75    77    1
    28     2     1    1
    29     2     3    1
    30    58    61    1
    31    58    57    1
    32    20    18   ar
    33    61    62    1
    34    19    17   ar
    35     3     4    2
    36    62    63   ar
    37    62    64   ar
    38    63    65   ar
    39    18    17   ar
    40    17    16    1
    41    65    66   ar
    42    64    67   ar
    43    64    66   ar
    44    67    69   ar
    45    49    48    2
    46    66    68   ar
    47    56    54   ar
    48    56    55   ar
    49    54    52   ar
    50     9     8    1
    51     9    10    1
    52    37    36    1
    53    69    70   ar
    54    16    13    1
    55    12    10   am
    56    12    13    1
    57    68    70   ar
    58    10    11    2
    59    55    53   ar
    60    48    47    1
    61    52    51   ar
    62    13    14    1
    63    36    33    1
    64    53    51   ar
    65    51    50    1
    66    47    46    1
    67    47    50    1
    68    14    15    2
    69    33    32    1
    70    33    34    1
    71    30    29    2
    72    32    25   am
    73    34    35    2
    74    29    31   am
    75    29    28    1
    76    27    28    1
    77    27    24    1
    78    25    24    1
    79    25    26    2
    80    23    24    1
    81    43    42    1
    82    43    44    1
    83    42    40   am
    84    45    44    2
    85    40    39    1
    86    40    41    2
    87    39    38    1
