@<TRIPOS>MOLECULE
tmp/3vdiA08.pdb
 94 90 0 0 0
SMALL
GASTEIGER

@<TRIPOS>ATOM
      1  N        -28.8870   37.3140    4.9100 N.3    27  LYS27      -0.1231
      2  CA       -30.0110   38.1660    4.5890 C.3    27  LYS27       0.1693
      3  C        -31.1610   37.2670    4.1810 C.2    27  LYS27       0.2592
      4  O        -30.9610   36.2940    3.4430 O.2    27  LYS27      -0.2718
      5  CB       -29.6820   39.2470    3.5290 C.3    27  LYS27       0.0285
      6  CG       -29.4710   38.7870    2.0930 C.3    27  LYS27       0.0035
      7  CD       -29.2070   39.9710    1.1530 C.3    27  LYS27       0.0206
      8  CE       -30.4480   40.7610    0.7790 C.3    27  LYS27       0.1093
      9  NZ       -30.1330   41.8910   -0.1450 N.3    27  LYS27      -0.1314
     10  N        -32.3470   37.5550    4.7220 N.am   28  VAL28      -0.1966
     11  CA       -33.5540   36.7820    4.4570 C.3    28  VAL28       0.1727
     12  C        -34.7330   37.7360    4.4230 C.2    28  VAL28       0.2616
     13  O        -34.8560   38.6140    5.2890 O.2    28  VAL28      -0.2715
     14  CB       -33.7200   35.6010    5.4540 C.3    28  VAL28       0.0290
     15  CG1      -33.7870   36.0820    6.8980 C.3    28  VAL28       0.0023
     16  CG2      -34.9190   34.7130    5.1040 C.3    28  VAL28       0.0023
     17  N        -35.5810   37.5760    3.3970 N.am   29  ASN29      -0.1972
     18  CA       -36.7250   38.4340    3.1570 C.3    29  ASN29       0.1688
     19  C        -37.9620   37.9490    3.9120 C.2    29  ASN29       0.2292
     20  O        -38.9880   37.6680    3.3050 O.2    29  ASN29      -0.2864
     21  CB       -36.9750   38.5650    1.6460 C.3    29  ASN29       0.1181
     22  CG       -37.3060   37.2550    0.9330 C.2    29  ASN29       0.2629
     23  OD1      -36.8300   36.1660    1.2850 O.2    29  ASN29      -0.2716
     24  ND2      -38.2040   37.3240   -0.0300 N.am   29  ASN29      -0.0877
     25  N        -39.3130   48.6720   13.3830 N.3    38  PRO38      -0.2116
     26  CA       -38.0580   47.9870   13.0120 C.3    38  PRO38       0.1372
     27  C        -37.1300   47.8560   14.2110 C.2    38  PRO38       0.2244
     28  O        -37.3440   48.4930   15.2500 O.2    38  PRO38      -0.2868
     29  CB       -37.4550   48.9060   11.9340 C.3    38  PRO38       0.0268
     30  CG       -38.0160   50.2580   12.2160 C.3    38  PRO38       0.0207
     31  CD       -39.3930   50.0240   12.7830 C.3    38  PRO38       0.0892
     32  N        -32.8170   47.5030   14.9340 N.3    40  ASP40      -0.1239
     33  CA       -31.4240   47.4090   14.5140 C.3    40  ASP40       0.1674
     34  C        -30.6020   47.3150   15.7810 C.2    40  ASP40       0.2266
     35  O        -30.9310   47.9630   16.7740 O.2    40  ASP40      -0.2867
     36  CB       -30.9770   48.6510   13.7120 C.3    40  ASP40       0.1410
     37  CG       -31.8630   49.0420   12.5400 C.2    40  ASP40       0.3668
     38  OD1      -32.5670   48.1630   12.0090 O.co2  40  ASP40      -0.2456
     39  OD2      -31.8030   50.2200   12.1180 O.co2  40  ASP40      -0.2456
     40  N        -30.0440   44.3700   11.1190 N.3   249  ARG249     -0.1231
     41  CA       -31.0730   45.3360   10.7360 C.3   249  ARG249      0.1694
     42  C        -32.2890   44.5110   10.4070 C.2   249  ARG249      0.2593
     43  O        -32.1970   43.5700    9.6110 O.2   249  ARG249     -0.2718
     44  CB       -30.6700   46.1740    9.4950 C.3   249  ARG249      0.0321
     45  CG       -29.3780   46.9790    9.6820 C.3   249  ARG249      0.0489
     46  CD       -29.2480   48.0660    8.6360 C.3   249  ARG249      0.2205
     47  NE       -29.9760   49.2580    9.0640 N.pl3 249  ARG249     -0.0865
     48  CZ       -31.0490   49.7530    8.4570 C.cat 249  ARG249      0.5346
     49  NH1      -31.5180   49.1840    7.3480 N.pl3 249  ARG249      0.1354
     50  NH2      -31.6570   50.8250    8.9460 N.pl3 249  ARG249      0.1354
     51  N        -33.4210   44.8260   11.0190 N.am  250  SER250     -0.1938
     52  CA       -34.6130   44.0350   10.7530 C.3   250  SER250      0.2055
     53  C        -35.8790   44.8830   10.7460 C.2   250  SER250      0.2643
     54  O        -35.9280   45.9350   11.3650 O.2   250  SER250     -0.2714
     55  CB       -34.7400   42.9340   11.8100 C.3   250  SER250      0.2130
     56  OG       -35.1490   43.4390   13.0770 O.3   250  SER250     -0.2179
     57  N        -36.9180   44.3810   10.0900 N.am  251  ASP251     -0.1971
     58  CA       -38.2370   44.9940   10.0560 C.3   251  ASP251      0.1709
     59  C        -39.2320   43.9010    9.6770 C.2   251  ASP251      0.2293
     60  O        -38.8350   42.7320    9.6260 O.2   251  ASP251     -0.2864
     61  CB       -38.2740   46.2520    9.1550 C.3   251  ASP251      0.1436
     62  CG       -38.0740   46.0400    7.6650 C.2   251  ASP251      0.3671
     63  OD1      -38.0480   44.8710    7.2230 O.co2 251  ASP251     -0.2456
     64  OD2      -38.0270   47.0410    6.9320 O.co2 251  ASP251     -0.2456
     65  N        -40.2910   43.0000    6.8900 N.3   253  GLN253     -0.1230
     66  CA       -40.0660   42.4480    5.5590 C.3   253  GLN253      0.1701
     67  C        -38.6920   41.8210    5.3840 C.2   253  GLN253      0.2632
     68  O        -38.4710   41.1880    4.3690 O.2   253  GLN253     -0.2714
     69  CB       -40.3000   43.5330    4.4770 C.3   253  GLN253      0.0381
     70  CG       -41.7620   43.8250    4.2180 C.3   253  GLN253      0.0905
     71  CD       -42.2310   45.2190    4.5530 C.2   253  GLN253      0.2608
     72  OE1      -42.1340   45.6770    5.7060 O.2   253  GLN253     -0.2717
     73  NE2      -42.8700   45.8760    3.5680 N.am  253  GLN253     -0.0878
     74  N        -37.7730   41.9870    6.3490 N.am  254  GLY254     -0.1718
     75  CA       -36.4370   41.4340    6.1530 C.2   254  GLY254      0.1480
     76  C        -35.5400   41.4610    7.3650 C.2   254  GLY254      0.2820
     77  O        -35.8010   42.1850    8.3300 O.2   254  GLY254     -0.2669
     78  N        -34.4920   40.6240    7.3230 N.am  255  ILE255     -0.1929
     79  CA       -33.4900   40.5410    8.3860 C.3   255  ILE255      0.1730
     80  C        -32.1560   40.4970    7.6790 C.2   255  ILE255      0.2616
     81  O        -32.0160   39.7820    6.6970 O.2   255  ILE255     -0.2715
     82  CB       -33.6710   39.2940    9.3210 C.3   255  ILE255      0.0290
     83  CG1      -35.0990   39.1800    9.9020 C.3   255  ILE255      0.0022
     84  CG2      -32.5930   39.2810   10.4480 C.3   255  ILE255      0.0023
     85  CD1      -35.4360   37.8020   10.5450 C.3   255  ILE255      0.0001
     86  N        -31.1890   41.2830    8.1420 N.am  256  GLU256     -0.1977
     87  CA       -29.8410   41.2330    7.5800 C.3   256  GLU256      0.1602
     88  C        -28.8550   41.3210    8.7290 C.2   256  GLU256      0.2287
     89  O        -29.0700   42.0770    9.6760 O.2   256  GLU256     -0.2864
     90  CB       -29.5930   42.2970    6.4900 C.3   256  GLU256      0.0415
     91  CG       -29.4650   43.7140    7.0290 C.3   256  GLU256      0.1163
     92  CD       -29.0970   44.7780    6.0140 C.2   256  GLU256      0.3649
     93  OE1      -28.2700   45.6560    6.3520 O.co2 256  GLU256     -0.2457
     94  OE2      -29.6300   44.7300    4.8810 O.co2 256  GLU256     -0.2457
@<TRIPOS>BOND
     1     9     8    1
     2    24    22   am
     3     8     7    1
     4    22    23    2
     5    22    21    1
     6     7     6    1
     7    21    18    1
     8     6     5    1
     9    18    17    1
    10    18    19    1
    11    20    19    2
    12    17    12   am
    13     4     3    2
    14     5     2    1
    15    73    71   am
    16     3     2    1
    17     3    10   am
    18    70    69    1
    19    70    71    1
    20    68    67    2
    21    12    11    1
    22    12    13    2
    23    11    10    1
    24    11    14    1
    25    69    66    1
    26    71    72    2
    27     2     1    1
    28    94    92   ar
    29    16    14    1
    30    67    66    1
    31    67    74    1
    32    14    15    1
    33    66    65    1
    34    92    93   ar
    35    92    91    1
    36    75    74    2
    37    75    76    1
    38    90    91    1
    39    90    87    1
    40    81    80    2
    41    64    62   ar
    42    63    62   ar
    43    78    76   am
    44    78    79    1
    45    49    48    1
    46    76    77    2
    47    87    86    1
    48    87    88    1
    49    62    61    1
    50    80    86   am
    51    80    79    1
    52    79    82    1
    53    48    50    1
    54    48    47    2
    55    46    47    1
    56    46    45    1
    57    88    89    2
    58    61    58    1
    59    82    83    1
    60    82    84    1
    61    44    45    1
    62    44    41    1
    63    43    42    2
    64    60    59    2
    65    59    58    1
    66    83    85    1
    67    58    57    1
    68    57    53   am
    69    42    41    1
    70    42    51   am
    71    41    40    1
    72    53    52    1
    73    53    54    2
    74    52    51    1
    75    52    55    1
    76    55    56    1
    77    29    30    1
    78    29    26    1
    79    38    37   ar
    80    39    37   ar
    81    30    31    1
    82    37    36    1
    83    31    25    1
    84    26    25    1
    85    26    27    1
    86    36    33    1
    87    27    28    2
    88    33    32    1
    89    33    34    1
    90    34    35    2
