@<TRIPOS>MOLECULE
tmp/3vdnA00.pdb
 155 146 0 0 0
SMALL
GASTEIGER

@<TRIPOS>ATOM
      1  N        -33.3300  -10.2310    9.7940 N.3   102  TRP102     -0.1241
      2  CA       -32.6220   -8.9600    9.8020 C.3   102  TRP102      0.1605
      3  C        -33.5820   -7.7760    9.7570 C.2   102  TRP102      0.2264
      4  O        -33.3630   -6.7850   10.4220 O.2   102  TRP102     -0.2867
      5  CB       -31.5890   -8.9050    8.6670 C.3   102  TRP102      0.0550
      6  CG       -30.8030   -7.6810    8.7010 C.ar  102  TRP102      0.0003
      7  CD1      -31.0370   -6.5490    8.0000 C.ar  102  TRP102      0.0946
      8  CD2      -29.6770   -7.4280    9.5170 C.ar  102  TRP102      0.0152
      9  NE1      -30.1280   -5.6030    8.3150 N.ar  102  TRP102     -0.2442
     10  CE2      -29.2660   -6.1160    9.2460 C.ar  102  TRP102      0.0810
     11  CE3      -28.9670   -8.1830   10.4560 C.ar  102  TRP102      0.0012
     12  CZ2      -28.1680   -5.5380    9.8730 C.ar  102  TRP102      0.0191
     13  CZ3      -27.8930   -7.6090   11.0810 C.ar  102  TRP102      0.0001
     14  CH2      -27.5020   -6.2990   10.7880 C.ar  102  TRP102      0.0015
     15  N        -19.6080    5.8580    5.6630 N.3   281  SER281     -0.1217
     16  CA       -19.0440    4.5340    5.5010 C.3   281  SER281      0.1889
     17  C        -19.9440    3.5160    6.1210 C.2   281  SER281      0.2288
     18  O        -20.4400    3.7040    7.2100 O.2   281  SER281     -0.2866
     19  CB       -17.6740    4.4350    6.1770 C.3   281  SER281      0.2089
     20  OG       -16.9180    3.3680    5.6490 O.3   281  SER281     -0.2183
     21  N        -21.4960   -0.9220    5.3760 N.3   283  ARG283     -0.1245
     22  CA       -21.7170   -2.0920    4.5530 C.3   283  ARG283      0.1563
     23  C        -22.8700   -1.7970    3.6160 C.2   283  ARG283      0.2260
     24  O        -23.5820   -0.8120    3.8100 O.2   283  ARG283     -0.2867
     25  CB       -22.0970   -3.2670    5.4280 C.3   283  ARG283      0.0307
     26  CG       -20.9510   -4.1200    5.8250 C.3   283  ARG283      0.0489
     27  CD       -21.4200   -5.2660    6.6820 C.3   283  ARG283      0.2205
     28  NE       -22.2620   -4.8360    7.7970 N.pl3 283  ARG283     -0.0865
     29  CZ       -23.5740   -5.0620    7.9120 C.cat 283  ARG283      0.5346
     30  NH1      -24.2320   -5.7100    6.9860 N.pl3 283  ARG283      0.1354
     31  NH2      -24.2420   -4.6290    8.9650 N.pl3 283  ARG283      0.1354
     32  N        -27.6560    1.6180    6.9440 N.3   288  LYS288     -0.1245
     33  CA       -26.5470    2.5850    6.9730 C.3   288  LYS288      0.1561
     34  C        -26.8770    3.9680    6.4110 C.2   288  LYS288      0.2260
     35  O        -26.1760    4.9260    6.6760 O.2   288  LYS288     -0.2867
     36  CB       -25.3080    1.9860    6.3290 C.3   288  LYS288      0.0271
     37  CG       -24.9410    0.6250    6.8650 C.3   288  LYS288      0.0035
     38  CD       -24.7440    0.6380    8.3570 C.3   288  LYS288      0.0206
     39  CE       -23.5100   -0.1680    8.6690 C.3   288  LYS288      0.1093
     40  NZ       -23.4530   -0.5830   10.0730 N.3   288  LYS288     -0.1314
     41  N        -18.2970    5.6440    1.1740 N.3   314  ARG314     -0.1245
     42  CA       -17.5660    4.4290    1.2500 C.3   314  ARG314      0.1563
     43  C        -18.5470    3.3360    1.5710 C.2   314  ARG314      0.2260
     44  O        -19.3380    3.4360    2.4950 O.2   314  ARG314     -0.2867
     45  CB       -16.4640    4.5390    2.2830 C.3   314  ARG314      0.0307
     46  CG       -15.6700    3.3110    2.4760 C.3   314  ARG314      0.0489
     47  CD       -14.8310    3.0030    1.3070 C.3   314  ARG314      0.2205
     48  NE       -13.8470    2.0240    1.7030 N.pl3 314  ARG314     -0.0865
     49  CZ       -13.3750    1.0800    0.9100 C.cat 314  ARG314      0.5346
     50  NH1      -13.8050    0.9720   -0.3340 N.pl3 314  ARG314      0.1354
     51  NH2      -12.4710    0.2380    1.3690 N.pl3 314  ARG314      0.1354
     52  N        -19.0230   -1.0680    1.7050 N.3   316  ASN316     -0.1240
     53  CA       -18.3810   -2.3560    1.7970 C.3   316  ASN316      0.1653
     54  C        -19.4010   -3.3480    1.2930 C.2   316  ASN316      0.2266
     55  O        -20.4940   -3.3720    1.7940 O.2   316  ASN316     -0.2867
     56  CB       -17.9980   -2.6080    3.2530 C.3   316  ASN316      0.1155
     57  CG       -17.6730   -4.0600    3.5460 C.2   316  ASN316      0.2627
     58  OD1      -17.7280   -4.9240    2.6680 O.2   316  ASN316     -0.2716
     59  ND2      -17.3440   -4.3340    4.8080 N.am  316  ASN316     -0.0877
     60  N        -15.6420   -1.2360   -2.5780 N.3   353  ASP353     -0.1225
     61  CA       -14.5690   -2.2140   -2.6220 C.3   353  ASP353      0.1805
     62  C        -14.6090   -2.7880   -1.2180 C.2   353  ASP353      0.2598
     63  O        -15.3030   -2.2860   -0.3690 O.2   353  ASP353     -0.2718
     64  CB       -13.2330   -1.5180   -2.9950 C.3   353  ASP353      0.1424
     65  CG       -11.9620   -2.3300   -2.6280 C.2   353  ASP353      0.3668
     66  OD1      -11.5270   -2.3010   -1.4540 O.co2 353  ASP353     -0.2456
     67  OD2      -11.3350   -2.9360   -3.5280 O.co2 353  ASP353     -0.2456
     68  N        -13.9110   -3.8740   -0.9770 N.am  354  ASN354     -0.1960
     69  CA       -13.9670   -4.4890    0.3170 C.3   354  ASN354      0.1819
     70  C        -12.7270   -4.3430    1.1910 C.2   354  ASN354      0.2621
     71  O        -12.5370   -5.1270    2.1100 O.2   354  ASN354     -0.2715
     72  CB       -14.2970   -5.9560    0.1860 C.3   354  ASN354      0.1195
     73  CG       -14.3560   -6.6210    1.5130 C.2   354  ASN354      0.2630
     74  OD1      -14.7390   -5.9970    2.4940 O.2   354  ASN354     -0.2716
     75  ND2      -13.9360   -7.8650    1.5790 N.am  354  ASN354     -0.0877
     76  N        -11.8870   -3.3520    0.9400 N.am  355  ASP355     -0.1957
     77  CA       -10.6930   -3.1700    1.7680 C.3   355  ASP355      0.1840
     78  C        -10.9830   -2.4840    3.1080 C.2   355  ASP355      0.2621
     79  O        -11.6710   -1.4720    3.1600 O.2   355  ASP355     -0.2715
     80  CB        -9.6400   -2.3910    0.9910 C.3   355  ASP355      0.1450
     81  CG        -8.2600   -2.7360    1.3990 C.2   355  ASP355      0.3671
     82  OD1       -7.3340   -2.4230    0.6470 O.co2 355  ASP355     -0.2456
     83  OD2       -8.0930   -3.3360    2.4700 O.co2 355  ASP355     -0.2456
     84  N        -10.4740   -3.0440    4.1970 N.am  356  VAL356     -0.1977
     85  CA       -10.6140   -2.4160    5.5140 C.3   356  VAL356      0.1596
     86  C         -9.6760   -1.2340    5.5870 C.2   356  VAL356      0.2287
     87  O         -9.9710   -0.2250    6.2090 O.2   356  VAL356     -0.2864
     88  CB       -10.3150   -3.3980    6.6820 C.3   356  VAL356      0.0276
     89  CG1       -8.8160   -3.5620    6.8970 C.3   356  VAL356      0.0022
     90  CG2      -10.9470   -2.8910    7.9610 C.3   356  VAL356      0.0022
     91  N        -10.8030    1.9680    4.0720 N.3   359  THR359     -0.1203
     92  CA       -11.7160    2.7450    4.8890 C.3   359  THR359      0.1994
     93  C        -11.0110    3.6040    5.9400 C.2   359  THR359      0.2617
     94  O        -11.3950    4.7280    6.1930 O.2   359  THR359     -0.2717
     95  CB       -12.7950    1.8920    5.5300 C.3   359  THR359      0.1784
     96  OG1      -13.5730    1.2760    4.5010 O.3   359  THR359     -0.2211
     97  CG2      -13.7150    2.7520    6.3530 C.3   359  THR359      0.0376
     98  N         -9.9770    3.0590    6.5420 N.am  360  ILE360     -0.1979
     99  CA        -9.2290    3.7580    7.5700 C.3   360  ILE360      0.1595
    100  C         -8.4700    4.9720    6.9920 C.2   360  ILE360      0.2287
    101  O         -8.3050    5.9850    7.6460 O.2   360  ILE360     -0.2864
    102  CB        -8.2920    2.7680    8.3250 C.3   360  ILE360      0.0276
    103  CG1       -9.0670    1.5290    8.7980 C.3   360  ILE360      0.0022
    104  CG2       -7.5730    3.4470    9.4970 C.3   360  ILE360      0.0022
    105  CD1      -10.1150    1.7840    9.8750 C.3   360  ILE360      0.0001
    106  N        -11.0600    7.5210    6.7610 N.3   363  PHE363     -0.1241
    107  CA       -11.3870    8.1220    8.0350 C.3   363  PHE363      0.1605
    108  C        -10.4090    9.2210    8.3260 C.2   363  PHE363      0.2264
    109  O        -10.7750   10.2520    8.8370 O.2   363  PHE363     -0.2867
    110  CB       -11.3880    7.1060    9.1700 C.3   363  PHE363      0.0534
    111  CG       -12.5540    6.1540    9.1610 C.ar  363  PHE363     -0.0203
    112  CD1      -13.7380    6.4550    8.4930 C.ar  363  PHE363     -0.0042
    113  CD2      -12.4670    4.9540    9.8390 C.ar  363  PHE363     -0.0042
    114  CE1      -14.7600    5.5750    8.4850 C.ar  363  PHE363     -0.0003
    115  CE2      -13.5030    4.0740    9.8440 C.ar  363  PHE363     -0.0003
    116  CZ       -14.6500    4.3780    9.1640 C.ar  363  PHE363     -0.0000
    117  N        -28.6890    0.9980   14.4830 N.3   376  ASP376     -0.1239
    118  CA       -27.4390    0.2630   14.5620 C.3   376  ASP376      0.1674
    119  C        -27.2740   -0.3950   15.9150 C.2   376  ASP376      0.2266
    120  O        -27.4540    0.2320   16.9320 O.2   376  ASP376     -0.2867
    121  CB       -26.2210    1.1400   14.2540 C.3   376  ASP376      0.1410
    122  CG       -25.3090    0.5080   13.2050 C.2   376  ASP376      0.3668
    123  OD1      -24.8430    1.2180   12.3110 O.co2 376  ASP376     -0.2456
    124  OD2      -25.0440   -0.7050   13.2740 O.co2 376  ASP376     -0.2456
    125  N        -22.3210    0.1100   16.0390 N.3   379  ASN379     -0.1225
    126  CA       -21.5690    0.8440   15.0620 C.3   379  ASN379      0.1785
    127  C        -20.2200    1.1860   15.6410 C.2   379  ASN379      0.2597
    128  O        -20.0900    2.0170   16.5070 O.2   379  ASN379     -0.2718
    129  CB       -22.2830    2.0920   14.6140 C.3   379  ASN379      0.1169
    130  CG       -21.8640    2.5150   13.2450 C.2   379  ASN379      0.2627
    131  OD1      -20.6910    2.7430   12.9790 O.2   379  ASN379     -0.2716
    132  ND2      -22.8210    2.6400   12.3630 N.am  379  ASN379     -0.0877
    133  N        -19.2060    0.5020   15.1630 N.am  380  LEU380     -0.1966
    134  CA       -17.9140    0.6140   15.7670 C.3   380  LEU380      0.1728
    135  C        -16.9880    1.5180   14.9580 C.2   380  LEU380      0.2616
    136  O        -15.9290    1.8710   15.4210 O.2   380  LEU380     -0.2715
    137  CB       -17.3490   -0.7930   15.9260 C.3   380  LEU380      0.0311
    138  CG       -18.4260   -1.7340   16.4920 C.3   380  LEU380      0.0022
    139  CD1      -18.2830   -3.1970   16.0340 C.3   380  LEU380      0.0001
    140  CD2      -18.4780   -1.6510   17.9850 C.3   380  LEU380      0.0001
    141  N        -17.4080    1.8670   13.7530 N.am  381  SER381     -0.1950
    142  CA       -16.7010    2.7710   12.8800 C.3   381  SER381      0.1924
    143  C        -16.7990    4.1760   13.4180 C.2   381  SER381      0.2314
    144  O        -15.9180    4.9900   13.2140 O.2   381  SER381     -0.2863
    145  CB       -17.3090    2.7510   11.4880 C.3   381  SER381      0.2116
    146  OG       -17.2860    1.4520   10.9470 O.3   381  SER381     -0.2180
    147  N        -14.2130    4.3490   15.7940 N.3   384  GLU384     -0.1245
    148  CA       -12.9510    4.1560   15.0790 C.3   384  GLU384      0.1567
    149  C        -12.4750    5.3450   14.2730 C.2   384  GLU384      0.2260
    150  O        -11.2900    5.6010   14.1880 O.2   384  GLU384     -0.2867
    151  CB       -13.0870    3.0110   14.0840 C.3   384  GLU384      0.0388
    152  CG       -13.2590    1.6530   14.6380 C.3   384  GLU384      0.1160
    153  CD       -13.3310    0.6500   13.5150 C.2   384  GLU384      0.3649
    154  OE1      -13.5000    1.0650   12.3650 O.co2 384  GLU384     -0.2457
    155  OE2      -13.2490   -0.5590   13.7750 O.co2 384  GLU384     -0.2457
@<TRIPOS>BOND
     1    67    65   ar
     2    64    65    1
     3    64    61    1
     4    65    66   ar
     5    61    60    1
     6    61    62    1
     7    62    68   am
     8    62    63    2
     9    68    69    1
    10    50    49    1
    11    72    69    1
    12    72    73    1
    13    69    70    1
    14    82    81   ar
    15    49    51    1
    16    49    48    2
    17    76    70   am
    18    76    77    1
    19    80    81    1
    20    80    77    1
    21    41    42    1
    22    70    71    2
    23    42    43    1
    24    42    45    1
    25    54    55    2
    26    54    53    1
    27    47    48    1
    28    47    46    1
    29    81    83   ar
    30    73    75   am
    31    73    74    2
    32    43    44    2
    33    52    53    1
    34    77    78    1
    35    53    56    1
    36    45    46    1
    37    58    57    2
    38    78    79    2
    39    78    84   am
    40    56    57    1
    41    57    59   am
    42    23    24    2
    43    23    22    1
    44    91    92    1
    45    84    85    1
    46    96    95    1
    47    22    21    1
    48    22    25    1
    49    92    95    1
    50    92    93    1
    51    25    26    1
    52    16    15    1
    53    16    17    1
    54    16    19    1
    55    85    86    1
    56    85    88    1
    57    95    97    1
    58    86    87    2
    59    20    19    1
    60    26    27    1
    61    93    94    2
    62    93    98   am
    63    17    18    2
    64    36    37    1
    65    36    33    1
    66    34    35    2
    67    34    33    1
    68    98    99    1
    69    27    28    1
    70    88    89    1
    71    88    90    1
    72   106   107    1
    73    37    38    1
    74    32    33    1
    75    30    29    1
    76   100    99    1
    77   100   101    2
    78    99   102    1
    79    28    29    2
    80    29    31    1
    81     7     9   ar
    82     7     6   ar
    83   107   108    1
    84   107   110    1
    85     9    10   ar
    86   102   103    1
    87   102   104    1
    88   108   109    2
    89    38    39    1
    90   114   112   ar
    91   114   116   ar
    92   112   111   ar
    93     5     6    1
    94     5     2    1
    95    39    40    1
    96     6     8   ar
    97   103   105    1
    98   111   110    1
    99   111   113   ar
   100   116   115   ar
   101    10     8   ar
   102    10    12   ar
   103     8    11   ar
   104     3     2    1
   105     3     4    2
   106     1     2    1
   107   113   115   ar
   108    12    14   ar
   109    11    13   ar
   110    14    13   ar
   111   146   145    1
   112   145   142    1
   113   123   122   ar
   114   132   130   am
   115   154   153   ar
   116   142   143    1
   117   142   141    1
   118   131   130    2
   119   122   124   ar
   120   122   121    1
   121   144   143    2
   122   130   129    1
   123   153   155   ar
   124   153   152    1
   125   141   135   am
   126   151   152    1
   127   151   148    1
   128   150   149    2
   129   121   118    1
   130   149   148    1
   131   117   118    1
   132   118   119    1
   133   129   126    1
   134   135   136    2
   135   135   134    1
   136   126   127    1
   137   126   125    1
   138   148   147    1
   139   133   127   am
   140   133   134    1
   141   127   128    2
   142   134   137    1
   143   119   120    2
   144   137   138    1
   145   139   138    1
   146   138   140    1
