@<TRIPOS>MOLECULE
tmp/3vdrB01.pdb
 114 113 0 0 0
SMALL
GASTEIGER

@<TRIPOS>ATOM
      1  N         -5.0750   40.2360  -18.6700 N.3    94  GLN94      -0.1245
      2  CA        -3.8770   39.5420  -18.1930 C.3    94  GLN94       0.1566
      3  C         -3.1040   38.6910  -19.1990 C.2    94  GLN94       0.2260
      4  O         -3.5790   38.3730  -20.2950 O.2    94  GLN94      -0.2867
      5  CB        -4.2420   38.6510  -17.0000 C.3    94  GLN94       0.0367
      6  CG        -3.8120   39.1840  -15.6470 C.3    94  GLN94       0.0905
      7  CD        -2.3310   38.9890  -15.3860 C.2    94  GLN94       0.2608
      8  OE1       -1.4860   39.3890  -16.1860 O.2    94  GLN94      -0.2717
      9  NE2       -2.0100   38.3740  -14.2520 N.am   94  GLN94      -0.0878
     10  N         -5.4100   46.2380   -7.6200 N.3   142  SER142     -0.1202
     11  CA        -5.3230   44.8520   -7.1810 C.3   142  SER142      0.2020
     12  C         -4.3160   44.7370   -6.0510 C.2   142  SER142      0.2619
     13  O         -3.8810   45.7450   -5.4950 O.2   142  SER142     -0.2717
     14  CB        -4.8910   43.9550   -8.3450 C.3   142  SER142      0.2103
     15  OG        -4.6230   42.6280   -7.9130 O.3   142  SER142     -0.2182
     16  N         -3.9650   43.5020   -5.7040 N.am  143  ALA143     -0.1965
     17  CA        -2.9780   43.2510   -4.6620 C.3   143  ALA143      0.1728
     18  C         -1.6450   43.3960   -5.3800 C.2   143  ALA143      0.2616
     19  O         -0.5910   43.5760   -4.7630 O.2   143  ALA143     -0.2715
     20  CB        -3.1280   41.8400   -4.1110 C.3   143  ALA143      0.0334
     21  N         -1.7200   43.3220   -6.7030 N.am  144  HIS144     -0.1973
     22  CA        -0.5480   43.4440   -7.5420 C.3   144  HIS144      0.1656
     23  C         -0.2880   44.8990   -7.8900 C.2   144  HIS144      0.2291
     24  O          0.2760   45.2230   -8.9340 O.2   144  HIS144     -0.2864
     25  CB        -0.7250   42.5850   -8.7880 C.3   144  HIS144      0.0771
     26  CG        -0.5610   41.1230   -8.5200 C.ar  144  HIS144      0.0820
     27  ND1       -1.1810   40.1490   -9.2720 N.ar  144  HIS144     -0.2267
     28  CD2        0.1550   40.4710   -7.5740 C.ar  144  HIS144      0.1154
     29  CE1       -0.8560   38.9590   -8.7990 C.ar  144  HIS144      0.1986
     30  NE2       -0.0460   39.1270   -7.7680 N.ar  144  HIS144     -0.2212
     31  N          4.2360   37.9460  -14.2990 N.3   152  LYS152     -0.1245
     32  CA         3.1180   38.8720  -14.4460 C.3   152  LYS152      0.1561
     33  C          3.6040   40.3110  -14.4610 C.2   152  LYS152      0.2260
     34  O          2.8970   41.2160  -14.0330 O.2   152  LYS152     -0.2867
     35  CB         2.1000   38.6900  -13.3190 C.3   152  LYS152      0.0271
     36  CG         1.1870   37.4870  -13.4940 C.3   152  LYS152      0.0035
     37  CD         0.1440   37.4370  -12.3980 C.3   152  LYS152      0.0206
     38  CE        -0.6560   36.1540  -12.4480 C.3   152  LYS152      0.1093
     39  NZ        -1.4890   36.0360  -11.2180 N.3   152  LYS152     -0.1314
     40  N          1.1930   43.2400  -15.9590 N.3   155  TYR155     -0.1241
     41  CA         0.0870   43.4150  -15.0250 C.3   155  TYR155      0.1605
     42  C          0.5010   44.0450  -13.6860 C.2   155  TYR155      0.2264
     43  O         -0.1990   44.9140  -13.1670 O.2   155  TYR155     -0.2867
     44  CB        -0.5790   42.0620  -14.7930 C.3   155  TYR155      0.0534
     45  CG        -1.8940   42.1230  -14.0660 C.ar  155  TYR155     -0.0201
     46  CD1       -1.9500   42.0210  -12.6840 C.ar  155  TYR155     -0.0009
     47  CD2       -3.0910   42.2380  -14.7670 C.ar  155  TYR155     -0.0009
     48  CE1       -3.1670   42.0230  -12.0130 C.ar  155  TYR155      0.0417
     49  CE2       -4.3080   42.2420  -14.1060 C.ar  155  TYR155      0.0417
     50  CZ        -4.3380   42.1320  -12.7280 C.ar  155  TYR155      0.1957
     51  OH        -5.5370   42.1230  -12.0630 O.3   155  TYR155     -0.2866
     52  N         -8.1110   44.3210   -4.7670 N.3   185  PRO185     -0.2102
     53  CA        -8.6670   42.9820   -4.5640 C.3   185  PRO185      0.1504
     54  C         -7.6640   41.8380   -4.5490 C.2   185  PRO185      0.2576
     55  O         -6.5520   41.9470   -5.0570 O.2   185  PRO185     -0.2718
     56  CB        -9.6530   42.8370   -5.7270 C.3   185  PRO185      0.0282
     57  CG       -10.0200   44.2370   -6.0530 C.3   185  PRO185      0.0208
     58  CD        -8.6860   44.9270   -5.9750 C.3   185  PRO185      0.0893
     59  N         -8.0810   40.7320   -3.9540 N.am  186  GLY186     -0.1943
     60  CA        -7.2430   39.5560   -3.9220 C.3   186  GLY186      0.2014
     61  C         -7.8100   38.6550   -5.0020 C.2   186  GLY186      0.2638
     62  O         -8.3630   39.1340   -5.9890 O.2   186  GLY186     -0.2714
     63  N         -7.6930   37.3500   -4.8200 N.am  187  TRP187     -0.1973
     64  CA        -8.2100   36.4170   -5.8010 C.3   187  TRP187      0.1640
     65  C         -9.7380   36.4350   -5.8230 C.2   187  TRP187      0.2290
     66  O        -10.3890   36.1840   -4.8050 O.2   187  TRP187     -0.2864
     67  CB        -7.7400   35.0000   -5.4780 C.3   187  TRP187      0.0576
     68  CG        -6.3100   34.6830   -5.7940 C.ar  187  TRP187      0.0006
     69  CD1       -5.4090   34.0900   -4.9620 C.ar  187  TRP187      0.0946
     70  CD2       -5.6510   34.8340   -7.0570 C.ar  187  TRP187      0.0152
     71  NE1       -4.2290   33.8560   -5.6300 N.ar  187  TRP187     -0.2442
     72  CE2       -4.3550   34.3050   -6.9180 C.ar  187  TRP187      0.0810
     73  CE3       -6.0320   35.3630   -8.2900 C.ar  187  TRP187      0.0012
     74  CZ2       -3.4380   34.2890   -7.9680 C.ar  187  TRP187      0.0191
     75  CZ3       -5.1180   35.3480   -9.3360 C.ar  187  TRP187      0.0001
     76  CH2       -3.8380   34.8150   -9.1670 C.ar  187  TRP187      0.0015
     77  N        -11.0130   35.4820  -15.7280 N.3   192  LEU192     -0.1231
     78  CA        -9.6170   35.9080  -15.7910 C.3   192  LEU192      0.1693
     79  C         -8.8090   35.0970  -14.7820 C.2   192  LEU192      0.2591
     80  O         -7.5960   34.9100  -14.9320 O.2   192  LEU192     -0.2718
     81  CB        -9.5080   37.4070  -15.4760 C.3   192  LEU192      0.0284
     82  CG        -8.1090   38.0250  -15.3370 C.3   192  LEU192      0.0019
     83  CD1       -8.2090   39.5380  -15.4350 C.3   192  LEU192      0.0001
     84  CD2       -7.4800   37.6140  -14.0120 C.3   192  LEU192      0.0001
     85  N         -9.4990   34.6220  -13.7490 N.am  193  VAL193     -0.1980
     86  CA        -8.8820   33.8050  -12.7140 C.3   193  VAL193      0.1595
     87  C         -9.0770   32.3450  -13.1070 C.2   193  VAL193      0.2287
     88  O         -8.1460   31.5460  -13.0430 O.2   193  VAL193     -0.2864
     89  CB        -9.5340   34.0630  -11.3390 C.3   193  VAL193      0.0276
     90  CG1       -8.8390   33.2440  -10.2630 C.3   193  VAL193      0.0022
     91  CG2       -9.4560   35.5420  -11.0060 C.3   193  VAL193      0.0022
     92  N         -6.3090   30.7760  -14.9380 N.3   196  GLN196     -0.1245
     93  CA        -5.0870   30.3500  -14.2660 C.3   196  GLN196      0.1566
     94  C         -5.3600   29.0840  -13.4650 C.2   196  GLN196      0.2260
     95  O         -4.4930   28.2240  -13.3300 O.2   196  GLN196     -0.2867
     96  CB        -4.5760   31.4570  -13.3390 C.3   196  GLN196      0.0367
     97  CG        -4.2990   32.7720  -14.0540 C.3   196  GLN196      0.0905
     98  CD        -3.7320   33.8380  -13.1350 C.2   196  GLN196      0.2608
     99  OE1       -2.6540   33.6710  -12.5640 O.2   196  GLN196     -0.2717
    100  NE2       -4.4570   34.9440  -12.9920 N.am  196  GLN196     -0.0878
    101  N         -3.7540   38.5940    2.0020 N.3   257  TRP257     -0.1241
    102  CA        -2.6620   38.6330    1.0270 C.3   257  TRP257      0.1605
    103  C         -1.5410   39.6480    1.2640 C.2   257  TRP257      0.2264
    104  O         -0.3800   39.3400    1.0240 O.2   257  TRP257     -0.2867
    105  CB        -3.2260   38.8420   -0.3730 C.3   257  TRP257      0.0550
    106  CG        -2.2230   38.6370   -1.4650 C.ar  257  TRP257      0.0003
    107  CD1       -0.9080   38.9950   -1.4490 C.ar  257  TRP257      0.0946
    108  CD2       -2.4740   38.1000   -2.7730 C.ar  257  TRP257      0.0152
    109  NE1       -0.3230   38.7230   -2.6650 N.ar  257  TRP257     -0.2442
    110  CE2       -1.2630   38.1740   -3.4950 C.ar  257  TRP257      0.0810
    111  CE3       -3.6050   37.5680   -3.4030 C.ar  257  TRP257      0.0012
    112  CZ2       -1.1500   37.7380   -4.8140 C.ar  257  TRP257      0.0191
    113  CZ3       -3.4890   37.1340   -4.7150 C.ar  257  TRP257      0.0001
    114  CH2       -2.2700   37.2220   -5.4050 C.ar  257  TRP257      0.0015
@<TRIPOS>BOND
     1     4     3    2
     2     3     2    1
     3     1     2    1
     4     2     5    1
     5     5     6    1
     6     8     7    2
     7    40    41    1
     8    78    77    1
     9    78    81    1
    10    78    79    1
    11     6     7    1
    12    81    82    1
    13    83    82    1
    14     7     9   am
    15    82    84    1
    16    41    44    1
    17    41    42    1
    18    92    93    1
    19    80    79    2
    20    44    45    1
    21    79    85   am
    22    47    49   ar
    23    47    45   ar
    24    33    32    1
    25    33    34    2
    26    32    31    1
    27    32    35    1
    28    93    94    1
    29    93    96    1
    30    49    50   ar
    31    45    46   ar
    32    97    96    1
    33    97    98    1
    34    85    86    1
    35    42    43    2
    36    36    35    1
    37    36    37    1
    38    94    95    2
    39    98   100   am
    40    98    99    2
    41    87    88    2
    42    87    86    1
    43    50    51    1
    44    50    48   ar
    45    86    89    1
    46    46    48   ar
    47    38    37    1
    48    38    39    1
    49    89    91    1
    50    89    90    1
    51    75    76   ar
    52    75    73   ar
    53    27    29   ar
    54    27    26   ar
    55    76    74   ar
    56    24    23    2
    57    29    30   ar
    58    25    26    1
    59    25    22    1
    60    26    28   ar
    61    14    15    1
    62    14    11    1
    63    73    70   ar
    64    74    72   ar
    65    23    22    1
    66    30    28   ar
    67    10    11    1
    68    22    21    1
    69    11    12    1
    70    70    72   ar
    71    70    68   ar
    72    72    71   ar
    73    21    18   am
    74    57    58    1
    75    57    56    1
    76    12    16   am
    77    12    13    2
    78    62    61    2
    79    58    52    1
    80    65    64    1
    81    65    66    2
    82    64    67    1
    83    64    63    1
    84    68    67    1
    85    68    69   ar
    86    56    53    1
    87    16    17    1
    88    71    69   ar
    89   114   112   ar
    90   114   113   ar
    91    18    19    2
    92    18    17    1
    93    55    54    2
    94    61    63   am
    95    61    60    1
    96   112   110   ar
    97    52    53    1
    98   113   111   ar
    99    17    20    1
   100    53    54    1
   101    54    59   am
   102    59    60    1
   103   110   108   ar
   104   110   109   ar
   105   111   108   ar
   106   108   106   ar
   107   109   107   ar
   108   106   107   ar
   109   106   105    1
   110   105   102    1
   111   104   103    2
   112   102   103    1
   113   102   101    1
