@<TRIPOS>MOLECULE
tmp/3vdyB01.pdb
 88 85 0 0 0
SMALL
GASTEIGER

@<TRIPOS>ATOM
      1  N          4.4770   16.5890   68.0290 N.3    56  LYS56      -0.1231
      2  CA         5.0770   16.0910   69.2590 C.3    56  LYS56       0.1693
      3  C          6.1460   17.0460   69.7790 C.2    56  LYS56       0.2592
      4  O          6.2040   17.3100   70.9820 O.2    56  LYS56      -0.2718
      5  CB         5.6110   14.6680   69.0870 C.3    56  LYS56       0.0285
      6  CG         5.2140   13.7360   70.2190 C.3    56  LYS56       0.0035
      7  CD         3.7560   13.2990   70.1070 C.3    56  LYS56       0.0206
      8  CE         3.3440   12.3850   71.2590 C.3    56  LYS56       0.1093
      9  NZ         2.0780   11.6510   70.9550 N.3    56  LYS56      -0.1314
     10  N          6.9540   17.5960   68.8710 N.am   57  THR57      -0.1953
     11  CA         7.9710   18.5900   69.2320 C.3    57  THR57       0.1897
     12  C          7.3640   19.7590   69.9930 C.2    57  THR57       0.2313
     13  O          7.9310   20.2550   70.9810 O.2    57  THR57      -0.2863
     14  CB         8.6720   19.1520   67.9930 C.3    57  THR57       0.1794
     15  OG1        9.3840   18.1010   67.3380 O.3    57  THR57      -0.2208
     16  CG2        9.6480   20.2020   68.3830 C.3    57  THR57       0.0378
     17  N          6.0420   18.3500   73.4850 N.3    60  ASN60      -0.1240
     18  CA         7.1440   18.1280   74.3980 C.3    60  ASN60       0.1653
     19  C          7.8480   19.3960   74.8400 C.2    60  ASN60       0.2266
     20  O          8.1730   19.5460   76.0170 O.2    60  ASN60      -0.2867
     21  CB         8.0980   17.1020   73.8300 C.3    60  ASN60       0.1155
     22  CG         7.4920   15.7060   73.8200 C.2    60  ASN60       0.2627
     23  OD1        6.8500   15.2890   74.7840 O.2    60  ASN60      -0.2716
     24  ND2        7.6710   14.9890   72.7220 N.am   60  ASN60      -0.0877
     25  N          8.0920   20.3830   78.9020 N.3    64  TYR64      -0.1241
     26  CA         9.3740   20.3540   79.6050 C.3    64  TYR64       0.1605
     27  C         10.0860   21.6970   79.7240 C.2    64  TYR64       0.2264
     28  O         11.0200   21.8080   80.4950 O.2    64  TYR64      -0.2867
     29  CB        10.3040   19.3340   78.9520 C.3    64  TYR64       0.0534
     30  CG         9.8280   17.9180   79.0680 C.ar   64  TYR64      -0.0201
     31  CD1        9.4780   17.1890   77.9380 C.ar   64  TYR64      -0.0009
     32  CD2        9.7350   17.2920   80.3190 C.ar   64  TYR64      -0.0009
     33  CE1        9.0420   15.8710   78.0430 C.ar   64  TYR64       0.0417
     34  CE2        9.3020   15.9850   80.4350 C.ar   64  TYR64       0.0417
     35  CZ         8.9610   15.2810   79.2930 C.ar   64  TYR64       0.1957
     36  OH         8.5140   13.9830   79.4080 O.3    64  TYR64      -0.2866
     37  N         12.6970   21.7150   63.5380 N.3    90  ASP90      -0.1225
     38  CA        12.3410   20.3080   63.3900 C.3    90  ASP90       0.1805
     39  C         12.8060   19.4550   64.5610 C.2    90  ASP90       0.2598
     40  O         12.1760   18.4510   64.8650 O.2    90  ASP90      -0.2718
     41  CB        12.8010   19.7280   62.0610 C.3    90  ASP90       0.1424
     42  CG        14.2350   20.0470   61.7570 C.2    90  ASP90       0.3668
     43  OD1       14.9890   20.3520   62.7100 O.co2  90  ASP90      -0.2456
     44  OD2       14.6090   19.9980   60.5590 O.co2  90  ASP90      -0.2456
     45  N         13.9000   19.8430   65.2120 N.am   91  THR91      -0.1939
     46  CA        14.2790   19.1990   66.4530 C.3    91  THR91       0.2028
     47  C         14.5670   20.2480   67.4770 C.2    91  THR91       0.2642
     48  O         15.0840   21.3030   67.1330 O.2    91  THR91      -0.2714
     49  CB        15.4770   18.2170   66.3150 C.3    91  THR91       0.1808
     50  OG1       16.6380   18.9210   65.9100 O.3    91  THR91      -0.2208
     51  CG2       15.2060   17.1650   65.2600 C.3    91  THR91       0.0379
     52  N         14.2020   19.9460   68.7270 N.am   92  VAL92      -0.1963
     53  CA        14.4720   20.7760   69.8970 C.3    92  VAL92       0.1727
     54  C         15.2390   19.9720   70.9230 C.2    92  VAL92       0.2616
     55  O         14.8400   18.8630   71.2340 O.2    92  VAL92      -0.2715
     56  CB        13.1740   21.1970   70.5680 C.3    92  VAL92       0.0290
     57  CG1       13.4600   21.9990   71.8210 C.3    92  VAL92       0.0023
     58  CG2       12.3930   22.0780   69.6340 C.3    92  VAL92       0.0023
     59  N         16.3150   20.5200   71.4750 N.am   93  ARG93      -0.1963
     60  CA        17.0000   19.8430   72.5810 C.3    93  ARG93       0.1729
     61  C         16.7930   20.5860   73.9070 C.2    93  ARG93       0.2616
     62  O         16.8600   21.8080   73.9720 O.2    93  ARG93      -0.2715
     63  CB        18.4870   19.6680   72.2780 C.3    93  ARG93       0.0348
     64  CG        19.0960   18.3920   72.8450 C.3    93  ARG93       0.0492
     65  CD        20.5730   18.6010   73.1760 C.3    93  ARG93       0.2205
     66  NE        21.2670   17.3950   73.6400 N.pl3  93  ARG93      -0.0865
     67  CZ        22.4280   17.3930   74.3050 C.cat  93  ARG93       0.5346
     68  NH1       23.0440   18.5350   74.6100 N.pl3  93  ARG93       0.1354
     69  NH2       22.9780   16.2410   74.6790 N.pl3  93  ARG93       0.1354
     70  N         16.5200   19.8440   74.9610 N.am   94  PHE94      -0.1974
     71  CA        16.3120   20.4450   76.2680 C.3    94  PHE94       0.1639
     72  C         17.6160   20.3710   76.9980 C.2    94  PHE94       0.2290
     73  O         18.1890   19.2970   77.1380 O.2    94  PHE94      -0.2864
     74  CB        15.2420   19.6930   77.0450 C.3    94  PHE94       0.0560
     75  CG        13.9840   19.4510   76.2630 C.ar   94  PHE94      -0.0200
     76  CD1       13.3250   18.2240   76.3440 C.ar   94  PHE94      -0.0042
     77  CD2       13.4710   20.4340   75.4170 C.ar   94  PHE94      -0.0042
     78  CE1       12.1640   17.9890   75.6150 C.ar   94  PHE94      -0.0003
     79  CE2       12.3130   20.2050   74.6870 C.ar   94  PHE94      -0.0003
     80  CZ        11.6580   18.9810   74.7870 C.ar   94  PHE94      -0.0000
     81  N         18.2930   22.0500   80.0330 N.3    96  ASP96      -0.1239
     82  CA        18.1540   22.4150   81.4350 C.3    96  ASP96       0.1674
     83  C         18.6740   21.2770   82.2820 C.2    96  ASP96       0.2266
     84  O         18.2620   20.1330   82.0670 O.2    96  ASP96      -0.2867
     85  CB        16.6810   22.6300   81.7960 C.3    96  ASP96       0.1410
     86  CG        16.1970   24.0440   81.5250 C.2    96  ASP96       0.3668
     87  OD1       17.0420   24.9600   81.3130 O.co2  96  ASP96      -0.2456
     88  OD2       14.9500   24.2220   81.5450 O.co2  96  ASP96      -0.2456
@<TRIPOS>BOND
     1    44    42   ar
     2    42    41    1
     3    42    43   ar
     4    41    38    1
     5    38    37    1
     6    38    39    1
     7    39    40    2
     8    39    45   am
     9    45    46    1
    10    51    49    1
    11    50    49    1
    12    49    46    1
    13    46    47    1
    14    48    47    2
    15    15    14    1
    16    47    52   am
    17    14    16    1
    18    14    11    1
    19     1     2    1
    20    52    53    1
    21    10    11    1
    22    10     3   am
    23     5     2    1
    24     5     6    1
    25    11    12    1
    26     2     3    1
    27    58    56    1
    28     3     4    2
    29    53    56    1
    30    53    54    1
    31    12    13    2
    32     7     6    1
    33     7     8    1
    34    56    57    1
    35    54    55    2
    36    54    59   am
    37     9     8    1
    38    59    60    1
    39    63    60    1
    40    63    64    1
    41    60    61    1
    42    24    22   am
    43    64    65    1
    44    65    66    1
    45    17    18    1
    46    66    67    2
    47    22    21    1
    48    22    23    2
    49    21    18    1
    50    61    62    2
    51    61    70   am
    52    67    68    1
    53    67    69    1
    54    18    19    1
    55    79    80   ar
    56    79    77   ar
    57    80    78   ar
    58    19    20    2
    59    70    71    1
    60    77    75   ar
    61    78    76   ar
    62    75    76   ar
    63    75    74    1
    64    71    72    1
    65    71    74    1
    66    72    73    2
    67    31    33   ar
    68    31    30   ar
    69    33    35   ar
    70    25    26    1
    71    29    30    1
    72    29    26    1
    73    30    32   ar
    74    35    36    1
    75    35    34   ar
    76    26    27    1
    77    27    28    2
    78    81    82    1
    79    32    34   ar
    80    87    86   ar
    81    82    85    1
    82    82    83    1
    83    86    88   ar
    84    86    85    1
    85    84    83    2
