@<TRIPOS>MOLECULE
tmp/3vdyB00.pdb
 104 97 0 0 0
SMALL
GASTEIGER

@<TRIPOS>ATOM
      1  N         -0.8560   25.7080   70.8890 N.3    18  ARG18      -0.1245
      2  CA        -2.2130   25.7540   70.3580 C.3    18  ARG18       0.1563
      3  C         -2.4090   24.5090   69.5180 C.2    18  ARG18       0.2260
      4  O         -1.4340   23.8200   69.2180 O.2    18  ARG18      -0.2867
      5  CB        -2.4050   26.9980   69.5090 C.3    18  ARG18       0.0307
      6  CG        -2.3400   28.2630   70.3310 C.3    18  ARG18       0.0489
      7  CD        -2.1950   29.5290   69.4980 C.3    18  ARG18       0.2205
      8  NE        -2.9740   30.6140   70.1020 N.pl3  18  ARG18      -0.0865
      9  CZ        -2.5130   31.8190   70.4410 C.cat  18  ARG18       0.5346
     10  NH1       -1.2460   32.1540   70.2290 N.pl3  18  ARG18       0.1354
     11  NH2       -3.3470   32.7020   70.9810 N.pl3  18  ARG18       0.1354
     12  N         -4.3220   23.1290   65.8350 N.3    20  THR20      -0.1218
     13  CA        -5.0080   23.4680   64.5730 C.3    20  THR20       0.1862
     14  C         -6.3900   22.8250   64.5800 C.2    20  THR20       0.2287
     15  O         -6.6140   21.8630   65.3130 O.2    20  THR20      -0.2866
     16  CB        -4.2000   22.9990   63.3370 C.3    20  THR20       0.1770
     17  OG1       -4.9460   23.2660   62.1450 O.3    20  THR20      -0.2211
     18  CG2       -4.0040   21.5390   63.3670 C.3    20  THR20       0.0375
     19  N         -3.6590   19.2820   65.0450 N.3    24  ALA24      -0.1245
     20  CA        -2.1970   19.2640   65.1110 C.3    24  ALA24       0.1562
     21  C         -1.7020   20.2530   66.1320 C.2    24  ALA24       0.2260
     22  O         -2.0750   21.4250   66.1070 O.2    24  ALA24      -0.2867
     23  CB        -1.5710   19.5660   63.7500 C.3    24  ALA24       0.0290
     24  N          0.7350   22.8640   67.6680 N.3    26  VAL26      -0.1245
     25  CA         1.6890   23.7940   67.0770 C.3    26  VAL26       0.1561
     26  C          2.0100   24.8120   68.1480 C.2    26  VAL26       0.2260
     27  O          1.1260   25.2440   68.8710 O.2    26  VAL26      -0.2867
     28  CB         1.1460   24.4410   65.7890 C.3    26  VAL26       0.0252
     29  CG1       -0.1990   25.0910   66.0440 C.3    26  VAL26       0.0019
     30  CG2        2.1160   25.4740   65.2550 C.3    26  VAL26       0.0019
     31  N          4.5600   28.2930   69.5220 N.3    28  HIS28      -0.1241
     32  CA         5.4080   29.4180   69.1570 C.3    28  HIS28       0.1621
     33  C          6.2230   29.8320   70.3180 C.2    28  HIS28       0.2264
     34  O          5.6910   30.2720   71.3400 O.2    28  HIS28      -0.2867
     35  CB         4.5880   30.5970   68.7120 C.3    28  HIS28       0.0745
     36  CG         3.7890   30.3330   67.4830 C.ar   28  HIS28       0.0817
     37  ND1        4.3150   30.4170   66.2560 N.ar   28  HIS28      -0.2268
     38  CD2        2.4510   29.9830   67.3170 C.ar   28  HIS28       0.1154
     39  CE1        3.3680   30.1460   65.3360 C.ar   28  HIS28       0.1986
     40  NE2        2.2270   29.8740   65.9860 N.ar   28  HIS28      -0.2212
     41  N          6.0590   22.0230   65.7060 N.3    54  TRP54      -0.1227
     42  CA         4.8630   21.2250   65.3870 C.3    54  TRP54       0.1737
     43  C          4.7570   19.9330   66.1270 C.2    54  TRP54       0.2595
     44  O          5.7500   19.3510   66.5740 O.2    54  TRP54      -0.2718
     45  CB         4.7610   20.9410   63.9040 C.3    54  TRP54       0.0564
     46  CG         4.3570   22.1650   63.1270 C.ar   54  TRP54       0.0003
     47  CD1        5.1940   23.1120   62.5630 C.ar   54  TRP54       0.0946
     48  CD2        2.9930   22.6230   62.8000 C.ar   54  TRP54       0.0152
     49  NE1        4.4740   24.0890   61.9300 N.ar   54  TRP54      -0.2442
     50  CE2        3.1520   23.8650   62.0430 C.ar   54  TRP54       0.0810
     51  CE3        1.7080   22.1580   63.0740 C.ar   54  TRP54       0.0012
     52  CZ2        2.0680   24.5960   61.5880 C.ar   54  TRP54       0.0191
     53  CZ3        0.6150   22.9020   62.6060 C.ar   54  TRP54       0.0001
     54  CH2        0.7960   24.0920   61.8800 C.ar   54  TRP54       0.0015
     55  N          3.5090   19.4960   66.2710 N.am   55  ARG55      -0.1980
     56  CA         3.1390   18.1620   66.7580 C.3    55  ARG55       0.1597
     57  C          3.8960   17.7790   68.0150 C.2    55  ARG55       0.2287
     58  O          3.9580   18.5720   68.9710 O.2    55  ARG55      -0.2864
     59  CB         3.2480   17.1190   65.6330 C.3    55  ARG55       0.0334
     60  CG         2.4430   17.5310   64.4000 C.3    55  ARG55       0.0492
     61  CD         2.3200   16.4500   63.3330 C.3    55  ARG55       0.2205
     62  NE         1.0370   16.5390   62.6080 N.pl3  55  ARG55      -0.0865
     63  CZ        -0.1600   16.1790   63.1090 C.cat  55  ARG55       0.5346
     64  NH1       -0.2730   15.7040   64.3600 N.pl3  55  ARG55       0.1354
     65  NH2       -1.2600   16.3080   62.3580 N.pl3  55  ARG55       0.1354
     66  N         14.7990   25.4680   59.7680 N.3    76  ARG76      -0.1245
     67  CA        15.0330   26.3850   58.6320 C.3    76  ARG76       0.1563
     68  C         14.3650   27.7300   58.8060 C.2    76  ARG76       0.2260
     69  O         13.3840   27.8240   59.5340 O.2    76  ARG76      -0.2867
     70  CB        14.5650   25.7650   57.3260 C.3    76  ARG76       0.0307
     71  CG        13.3460   24.8830   57.4510 C.3    76  ARG76       0.0489
     72  CD        13.1260   24.1550   56.1400 C.3    76  ARG76       0.2205
     73  NE        12.0230   24.7590   55.4110 N.pl3  76  ARG76      -0.0865
     74  CZ        10.7520   24.4290   55.6210 C.cat  76  ARG76       0.5346
     75  NH1       10.4510   23.4920   56.5260 N.pl3  76  ARG76       0.1354
     76  NH2        9.7870   25.0280   54.9320 N.pl3  76  ARG76       0.1354
     77  N         11.8350   30.1680   57.6800 N.3    78  GLN78      -0.1245
     78  CA        10.6280   30.1360   56.8650 C.3    78  GLN78       0.1566
     79  C         10.0990   31.5560   56.7630 C.2    78  GLN78       0.2260
     80  O         10.2710   32.3670   57.6860 O.2    78  GLN78      -0.2867
     81  CB         9.5970   29.2950   57.5700 C.3    78  GLN78       0.0367
     82  CG         8.9400   28.2010   56.7500 C.3    78  GLN78       0.0905
     83  CD         7.5990   27.7850   57.3520 C.2    78  GLN78       0.2608
     84  OE1        7.4190   27.7800   58.5810 O.2    78  GLN78      -0.2717
     85  NE2        6.6420   27.4610   56.4890 N.am   78  GLN78      -0.0878
     86  N          6.4490   33.7910   55.5930 N.3    80  ARG80      -0.1245
     87  CA         5.0130   33.7880   55.2860 C.3    80  ARG80       0.1563
     88  C          4.6170   35.1770   54.8020 C.2    80  ARG80       0.2260
     89  O          4.9990   36.1830   55.4190 O.2    80  ARG80      -0.2867
     90  CB         4.2060   33.4550   56.5450 C.3    80  ARG80       0.0307
     91  CG         4.3820   32.0360   57.0580 C.3    80  ARG80       0.0489
     92  CD         3.2630   31.6520   58.0130 C.3    80  ARG80       0.2205
     93  NE         3.5010   32.0950   59.3910 N.pl3  80  ARG80      -0.0865
     94  CZ         2.5910   32.0730   60.3660 C.cat  80  ARG80       0.5346
     95  NH1        1.3470   31.6440   60.1400 N.pl3  80  ARG80       0.1354
     96  NH2        2.9260   32.4950   61.5760 N.pl3  80  ARG80       0.1354
     97  N         11.4450   27.5180   61.4470 N.3    88  LEU88      -0.1245
     98  CA        10.5870   26.3540   61.5670 C.3    88  LEU88       0.1561
     99  C         11.4120   25.2050   62.1190 C.2    88  LEU88       0.2260
    100  O         12.1870   24.6060   61.4030 O.2    88  LEU88      -0.2867
    101  CB         9.9950   26.0070   60.2050 C.3    88  LEU88       0.0270
    102  CG         8.8400   25.0020   60.0670 C.3    88  LEU88       0.0019
    103  CD1        9.3450   23.5970   59.7780 C.3    88  LEU88       0.0001
    104  CD2        7.8930   24.9940   61.2630 C.3    88  LEU88       0.0001
@<TRIPOS>BOND
     1    88    87    1
     2    88    89    2
     3    76    74    1
     4    87    86    1
     5    87    90    1
     6    73    74    2
     7    73    72    1
     8    74    75    1
     9    72    71    1
    10    85    83   am
    11    90    91    1
    12    82    83    1
    13    82    81    1
    14    79    78    1
    15    79    80    2
    16    78    81    1
    17    78    77    1
    18    91    92    1
    19    70    71    1
    20    70    67    1
    21    83    84    2
    22    92    93    1
    23    67    68    1
    24    67    66    1
    25    68    69    2
    26    93    94    2
    27   103   102    1
    28   102   101    1
    29   102   104    1
    30    95    94    1
    31   101    98    1
    32    94    96    1
    33   100    99    2
    34    97    98    1
    35    98    99    1
    36    52    54   ar
    37    52    50   ar
    38    54    53   ar
    39    49    50   ar
    40    49    47   ar
    41    50    48   ar
    42    17    16    1
    43    65    63    1
    44    47    46   ar
    45    53    51   ar
    46    62    63    2
    47    62    61    1
    48    48    51   ar
    49    48    46   ar
    50    63    64    1
    51    46    45    1
    52    61    60    1
    53    16    18    1
    54    16    13    1
    55    23    20    1
    56    45    42    1
    57    60    59    1
    58    13    14    1
    59    13    12    1
    60    14    15    2
    61    19    20    1
    62    20    21    1
    63    30    28    1
    64    39    40   ar
    65    39    37   ar
    66    42    41    1
    67    42    43    1
    68    59    56    1
    69    28    29    1
    70    28    25    1
    71    40    38   ar
    72    22    21    2
    73    43    55   am
    74    43    44    2
    75    37    36   ar
    76    55    56    1
    77    56    57    1
    78    25    24    1
    79    25    26    1
    80    38    36   ar
    81    36    35    1
    82    57    58    2
    83    26    27    2
    84    35    32    1
    85    32    31    1
    86    32    33    1
    87     4     3    2
    88     7     8    1
    89     7     6    1
    90     5     6    1
    91     5     2    1
    92     3     2    1
    93     8     9    2
    94    10     9    1
    95    33    34    2
    96     2     1    1
    97     9    11    1
