@<TRIPOS>MOLECULE
tmp/3vehC02.pdb
 115 115 0 0 0
SMALL
GASTEIGER

@<TRIPOS>ATOM
      1  N         40.9070  -17.0360   24.4730 N.3    95  TRP95      -0.1241
      2  CA        40.2940  -16.0510   25.3070 C.3    95  TRP95       0.1605
      3  C         38.9260  -16.5390   25.7380 C.2    95  TRP95       0.2264
      4  O         38.3350  -17.3850   25.0630 O.2    95  TRP95      -0.2867
      5  CB        40.2380  -14.6900   24.5990 C.3    95  TRP95       0.0550
      6  CG        39.4740  -14.6290   23.2910 C.ar   95  TRP95       0.0003
      7  CD1       39.9600  -14.7710   22.0120 C.ar   95  TRP95       0.0946
      8  CD2       38.0700  -14.3690   23.1400 C.ar   95  TRP95       0.0152
      9  NE1       38.9610  -14.6480   21.0760 N.ar   95  TRP95      -0.2442
     10  CE2       37.7840  -14.4300   21.6950 C.ar   95  TRP95       0.0810
     11  CE3       37.0430  -14.1110   24.0250 C.ar   95  TRP95       0.0012
     12  CZ2       36.4830  -14.2240   21.1610 C.ar   95  TRP95       0.0191
     13  CZ3       35.7370  -13.9340   23.4860 C.ar   95  TRP95       0.0001
     14  CH2       35.4640  -13.9810   22.0980 C.ar   95  TRP95       0.0015
     15  N         29.3690  -15.2950   21.6770 N.3   116  PRO116     -0.2116
     16  CA        30.6210  -16.0090   21.9250 C.3   116  PRO116      0.1372
     17  C         30.9360  -16.1360   23.4250 C.2   116  PRO116      0.2244
     18  O         30.8080  -15.1670   24.1640 O.2   116  PRO116     -0.2868
     19  CB        31.6810  -15.1120   21.2130 C.3   116  PRO116      0.0268
     20  CG        30.9100  -14.4320   20.0640 C.3   116  PRO116      0.0207
     21  CD        29.5720  -14.1370   20.7500 C.3   116  PRO116      0.0892
     22  N         39.6330  -10.8150   14.9650 N.3   230  ILE230     -0.1245
     23  CA        39.7970   -9.8660   16.1000 C.3   230  ILE230      0.1561
     24  C         41.2880   -9.5900   16.2370 C.2   230  ILE230      0.2260
     25  O         42.0690  -10.5570   16.3450 O.2   230  ILE230     -0.2867
     26  CB        39.2500  -10.4780   17.4040 C.3   230  ILE230      0.0252
     27  CG1       37.7550  -10.8260   17.2140 C.3   230  ILE230      0.0019
     28  CG2       39.4760   -9.5310   18.6050 C.3   230  ILE230      0.0019
     29  CD1       37.1700  -11.5690   18.4400 C.3   230  ILE230      0.0001
     30  N         27.0880   -7.7550   24.3110 N.3   367  PRO367     -0.2102
     31  CA        27.9710   -8.5630   25.0980 C.3   367  PRO367      0.1504
     32  C         29.2960   -7.8100   25.2760 C.2   367  PRO367      0.2576
     33  O         29.6860   -6.9720   24.4170 O.2   367  PRO367     -0.2718
     34  CB        28.1350   -9.8540   24.2420 C.3   367  PRO367      0.0282
     35  CG        28.0200   -9.3350   22.8260 C.3   367  PRO367      0.0208
     36  CD        26.9230   -8.2980   22.9440 C.3   367  PRO367      0.0893
     37  N         29.9490   -8.0340   26.4160 N.am  368  ARG368     -0.1966
     38  CA        31.2680   -7.3290   26.6230 C.3   368  ARG368      0.1729
     39  C         32.3120   -8.0740   25.7700 C.2   368  ARG368      0.2617
     40  O         33.3150   -7.5120   25.3990 O.2   368  ARG368     -0.2715
     41  CB        31.6750   -7.4460   28.0900 C.3   368  ARG368      0.0348
     42  CG        31.1520   -6.2450   28.9040 C.3   368  ARG368      0.0492
     43  CD        31.6470   -6.3790   30.3490 C.3   368  ARG368      0.2205
     44  NE        31.2650   -5.1870   31.1350 N.pl3 368  ARG368     -0.0865
     45  CZ        31.5010   -5.0670   32.4480 C.cat 368  ARG368      0.5346
     46  NH1       32.1430   -6.0440   33.0590 N.pl3 368  ARG368      0.1354
     47  NH2       31.0850   -3.9710   33.1350 N.pl3 368  ARG368      0.1354
     48  N         32.1480   -9.3870   25.6110 N.am  369  GLY369     -0.1940
     49  CA        33.1310  -10.1240   24.8160 C.3   369  GLY369      0.2014
     50  C         34.4930  -10.2630   25.5610 C.2   369  GLY369      0.2639
     51  O         34.5450  -10.7330   26.7130 O.2   369  GLY369     -0.2714
     52  N         35.6120   -9.9120   24.8820 N.am  370  LEU370     -0.1963
     53  CA        36.9110  -10.0350   25.5090 C.3   370  LEU370      0.1728
     54  C         36.9970   -9.1450   26.7880 C.2   370  LEU370      0.2616
     55  O         37.5500   -9.5540   27.7960 O.2   370  LEU370     -0.2715
     56  CB        38.0290   -9.5750   24.5300 C.3   370  LEU370      0.0311
     57  CG        38.7110  -10.6520   23.7180 C.3   370  LEU370      0.0022
     58  CD1       37.7090  -11.1190   22.6830 C.3   370  LEU370      0.0001
     59  CD2       40.0250  -10.0590   23.1050 C.3   370  LEU370      0.0001
     60  N         36.4560   -7.9340   26.7190 N.am  371  TYR371     -0.1974
     61  CA        36.5470   -7.0060   27.8320 C.3   371  TYR371      0.1639
     62  C         36.0220   -7.5570   29.1580 C.2   371  TYR371      0.2290
     63  O         34.8400   -8.0040   29.2420 O.2   371  TYR371     -0.2864
     64  CB        35.9480   -5.6340   27.4710 C.3   371  TYR371      0.0560
     65  CG        35.9810   -4.6630   28.6700 C.ar  371  TYR371     -0.0198
     66  CD1       37.2050   -4.0040   29.0450 C.ar  371  TYR371     -0.0009
     67  CD2       34.8620   -4.5250   29.5100 C.ar  371  TYR371     -0.0009
     68  CE1       37.2370   -3.1260   30.1460 C.ar  371  TYR371      0.0417
     69  CE2       34.9050   -3.6830   30.6570 C.ar  371  TYR371      0.0417
     70  CZ        36.0900   -3.0000   30.9690 C.ar  371  TYR371      0.1957
     71  OH        36.1000   -2.1740   32.0930 O.3   371  TYR371     -0.2866
     72  N         41.1330   -3.0050   20.8410 N.3   394  TYR394     -0.1241
     73  CA        40.5040   -4.0250   19.9990 C.3   394  TYR394      0.1605
     74  C         40.2730   -3.4670   18.5840 C.2   394  TYR394      0.2264
     75  O         40.0300   -2.2690   18.4060 O.2   394  TYR394     -0.2867
     76  CB        39.0740   -4.4170   20.5780 C.3   394  TYR394      0.0534
     77  CG        39.0600   -4.5900   22.0500 C.ar  394  TYR394     -0.0201
     78  CD1       39.4400   -5.8170   22.6490 C.ar  394  TYR394     -0.0009
     79  CD2       38.7050   -3.5210   22.8710 C.ar  394  TYR394     -0.0009
     80  CE1       39.4690   -5.9710   24.0290 C.ar  394  TYR394      0.0417
     81  CE2       38.7620   -3.6530   24.2700 C.ar  394  TYR394      0.0417
     82  CZ        39.1350   -4.8650   24.8200 C.ar  394  TYR394      0.1957
     83  OH        39.1390   -4.9490   26.1880 O.3   394  TYR394     -0.2866
     84  N         37.9370   -4.7800   15.3140 N.3   396  VAL396     -0.1245
     85  CA        37.0460   -5.8110   14.7710 C.3   396  VAL396      0.1561
     86  C         36.2320   -5.1210   13.6480 C.2   396  VAL396      0.2260
     87  O         35.6450   -4.0190   13.8510 O.2   396  VAL396     -0.2867
     88  CB        36.0660   -6.4120   15.7900 C.3   396  VAL396      0.0252
     89  CG1       35.2830   -7.5720   15.1450 C.3   396  VAL396      0.0019
     90  CG2       36.7690   -6.8750   17.0610 C.3   396  VAL396      0.0019
     91  N         38.7900    0.3290   18.9480 N.3   401  TRP401     -0.1241
     92  CA        38.3570    0.9500   20.1970 C.3   401  TRP401      0.1605
     93  C         39.0850    0.5180   21.4370 C.2   401  TRP401      0.2264
     94  O         39.8040   -0.4570   21.4090 O.2   401  TRP401     -0.2867
     95  CB        36.7920    0.8470   20.3730 C.3   401  TRP401      0.0550
     96  CG        36.2920   -0.4790   20.8490 C.ar  401  TRP401      0.0003
     97  CD1       35.9030   -0.8070   22.1440 C.ar  401  TRP401      0.0946
     98  CD2       36.1080   -1.7160   20.0580 C.ar  401  TRP401      0.0152
     99  NE1       35.4800   -2.1390   22.2060 N.ar  401  TRP401     -0.2442
    100  CE2       35.5720   -2.7250   20.9740 C.ar  401  TRP401      0.0810
    101  CE3       36.3180   -2.0660   18.7190 C.ar  401  TRP401      0.0012
    102  CZ2       35.2650   -4.0380   20.5540 C.ar  401  TRP401      0.0191
    103  CZ3       35.9720   -3.3670   18.3020 C.ar  401  TRP401      0.0001
    104  CH2       35.4830   -4.3460   19.2100 C.ar  401  TRP401      0.0015
    105  N         38.3750    0.3730   25.9440 N.3   403  ARG403     -0.1245
    106  CA        37.2610    0.2790   26.8950 C.3   403  ARG403      0.1563
    107  C         37.8220    0.2980   28.3310 C.2   403  ARG403      0.2260
    108  O         38.7590   -0.4990   28.6660 O.2   403  ARG403     -0.2867
    109  CB        36.4580   -1.0330   26.6840 C.3   403  ARG403      0.0307
    110  CG        35.1590   -1.0500   27.5220 C.3   403  ARG403      0.0489
    111  CD        34.2150   -2.1440   26.9370 C.3   403  ARG403      0.2205
    112  NE        32.9540   -2.2910   27.6550 N.pl3 403  ARG403     -0.0865
    113  CZ        31.8630   -2.8940   27.1870 C.cat 403  ARG403      0.5346
    114  NH1       31.8660   -3.4900   25.9790 N.pl3 403  ARG403      0.1354
    115  NH2       30.7380   -2.8770   27.9500 N.pl3 403  ARG403      0.1354
@<TRIPOS>BOND
     1    86    87    2
     2    86    85    1
     3    85    84    1
     4    85    88    1
     5    22    23    1
     6    89    88    1
     7    88    90    1
     8    23    24    1
     9    23    26    1
    10    24    25    2
    11    27    26    1
    12    27    29    1
    13    26    28    1
    14   103   101   ar
    15   103   104   ar
    16    75    74    2
    17    74    73    1
    18   101    98   ar
    19    91    92    1
    20   104   102   ar
    21    73    76    1
    22    73    72    1
    23    98    96   ar
    24    98   100   ar
    25    20    21    1
    26    20    19    1
    27    92    95    1
    28    92    93    1
    29    95    96    1
    30   102   100   ar
    31    76    77    1
    32    21    15    1
    33    96    97   ar
    34   100    99   ar
    35     9    10   ar
    36     9     7   ar
    37    12    10   ar
    38    12    14   ar
    39    19    16    1
    40    94    93    2
    41    15    16    1
    42    10     8   ar
    43    16    17    1
    44     7     6   ar
    45    77    78   ar
    46    77    79   ar
    47    14    13   ar
    48    97    99   ar
    49    78    80   ar
    50    58    57    1
    51    35    36    1
    52    35    34    1
    53    79    81   ar
    54    36    30    1
    55    59    57    1
    56     8     6   ar
    57     8    11   ar
    58     6     5    1
    59    17    18    2
    60    13    11   ar
    61    57    56    1
    62    80    82   ar
    63    34    31    1
    64    81    82   ar
    65    30    31    1
    66    33    32    2
    67     1     2    1
    68    56    53    1
    69     5     2    1
    70    49    50    1
    71    49    48    1
    72    82    83    1
    73    52    53    1
    74    52    50   am
    75     4     3    2
    76    31    32    1
    77    32    37   am
    78     2     3    1
    79    40    39    2
    80    53    54    1
    81    50    51    2
    82    48    39   am
    83    39    38    1
    84   105   106    1
    85   114   113    1
    86    37    38    1
    87    38    41    1
    88   109   106    1
    89   109   110    1
    90    60    54   am
    91    60    61    1
    92    54    55    2
    93   106   107    1
    94   111   110    1
    95   111   112    1
    96   113   112    2
    97   113   115    1
    98    64    61    1
    99    64    65    1
   100    61    62    1
   101    41    42    1
   102   107   108    2
   103    65    66   ar
   104    65    67   ar
   105    42    43    1
   106    66    68   ar
   107    62    63    2
   108    67    69   ar
   109    68    70   ar
   110    43    44    1
   111    69    70   ar
   112    70    71    1
   113    44    45    2
   114    45    46    1
   115    45    47    1
