@<TRIPOS>MOLECULE
tmp/3vehB00.pdb
 128 121 0 0 0
SMALL
GASTEIGER

@<TRIPOS>ATOM
      1  N         -8.8880    1.0700  -29.4290 N.3   209  ILE209     -0.1245
      2  CA        -7.8530    1.0170  -28.3980 C.3   209  ILE209      0.1561
      3  C         -8.4830    0.5930  -27.0710 C.2   209  ILE209      0.2260
      4  O         -9.3890    1.2540  -26.5870 O.2   209  ILE209     -0.2867
      5  CB        -7.0440    2.3370  -28.2600 C.3   209  ILE209      0.0252
      6  CG1       -5.9670    2.4750  -29.3790 C.3   209  ILE209      0.0019
      7  CG2       -6.2880    2.4350  -26.9220 C.3   209  ILE209      0.0019
      8  CD1       -6.5400    2.7260  -30.7510 C.3   209  ILE209      0.0001
      9  N          3.2660   11.3170  -25.7760 N.3   253  PRO253     -0.2102
     10  CA         4.0170   11.0140  -26.9850 C.3   253  PRO253      0.1504
     11  C          3.4390   11.7170  -28.2060 C.2   253  PRO253      0.2575
     12  O          4.0770   11.7070  -29.2740 O.2   253  PRO253     -0.2718
     13  CB         3.8600    9.4750  -27.1580 C.3   253  PRO253      0.0282
     14  CG         2.5240    9.1650  -26.5600 C.3   253  PRO253      0.0208
     15  CD         2.3230   10.2340  -25.3990 C.3   253  PRO253      0.0893
     16  N          2.2780   12.3340  -28.0710 N.am  254  GLU254     -0.1980
     17  CA         1.6060   12.7680  -29.2620 C.3   254  GLU254      0.1602
     18  C          0.9340   14.0750  -29.1150 C.2   254  GLU254      0.2287
     19  O          0.1560   14.2870  -28.1770 O.2   254  GLU254     -0.2864
     20  CB         0.5800   11.6770  -29.6760 C.3   254  GLU254      0.0415
     21  CG        -0.2840   12.0240  -30.8450 C.3   254  GLU254      0.1163
     22  CD        -1.0650   10.8400  -31.3950 C.2   254  GLU254      0.3649
     23  OE1       -0.5240    9.7310  -31.5520 O.co2 254  GLU254     -0.2457
     24  OE2       -2.2090   11.0560  -31.7350 O.co2 254  GLU254     -0.2457
     25  N          0.7910    9.4270  -34.2820 N.3   270  LEU270     -0.1231
     26  CA         1.7920    8.3900  -34.1950 C.3   270  LEU270      0.1693
     27  C          1.0030    7.1190  -34.2570 C.2   270  LEU270      0.2592
     28  O         -0.1820    7.0330  -33.7900 O.2   270  LEU270     -0.2718
     29  CB         2.6110    8.4790  -32.8670 C.3   270  LEU270      0.0284
     30  CG         3.9230    9.2630  -32.9670 C.3   270  LEU270      0.0019
     31  CD1        3.6840   10.7230  -33.3850 C.3   270  LEU270      0.0001
     32  CD2        4.7640    9.2430  -31.6890 C.3   270  LEU270      0.0001
     33  N          1.5580    6.1340  -34.9210 N.am  271  ALA271     -0.1966
     34  CA         0.8510    4.8500  -35.0010 C.3   271  ALA271      0.1728
     35  C          1.7910    3.8250  -35.6010 C.2   271  ALA271      0.2617
     36  O          2.4390    4.1060  -36.6160 O.2   271  ALA271     -0.2715
     37  CB        -0.4510    4.9400  -35.8180 C.3   271  ALA271      0.0334
     38  N          1.8300    2.6380  -34.9880 N.am  272  GLY272     -0.1940
     39  CA         2.7530    1.6170  -35.4130 C.3   272  GLY272      0.2014
     40  C          3.8100    1.7240  -34.3570 C.2   272  GLY272      0.2639
     41  O          4.2930    2.8260  -34.0960 O.2   272  GLY272     -0.2714
     42  N          4.1420    0.5890  -33.7360 N.am  273  THR273     -0.1950
     43  CA         4.9630    0.5660  -32.5290 C.3   273  THR273      0.1897
     44  C          6.0380   -0.5550  -32.5670 C.2   273  THR273      0.2313
     45  O          5.7490   -1.6760  -32.9900 O.2   273  THR273     -0.2863
     46  CB         4.0210    0.4280  -31.3210 C.3   273  THR273      0.1794
     47  OG1        2.9330    1.3460  -31.5080 O.3   273  THR273     -0.2208
     48  CG2        4.6980    0.7520  -30.0430 C.3   273  THR273      0.0378
     49  N          7.8510    4.9850  -32.7340 N.3   336  HIS336     -0.1241
     50  CA         6.6660    4.8400  -33.5980 C.3   336  HIS336      0.1621
     51  C          6.8500    5.4860  -34.9550 C.2   336  HIS336      0.2264
     52  O          7.8060    6.2510  -35.2040 O.2   336  HIS336     -0.2867
     53  CB         5.3800    5.4120  -32.9740 C.3   336  HIS336      0.0745
     54  CG         5.2620    5.2640  -31.4520 C.ar  336  HIS336      0.0817
     55  ND1        4.4360    4.3490  -30.8720 N.ar  336  HIS336     -0.2268
     56  CD2        5.8480    5.9970  -30.3960 C.ar  336  HIS336      0.1154
     57  CE1        4.4790    4.5040  -29.5000 C.ar  336  HIS336      0.1986
     58  NE2        5.3330    5.5130  -29.2150 N.ar  336  HIS336     -0.2212
     59  N         -5.1670    7.3820  -31.9500 N.3   363  THR363     -0.1218
     60  CA        -4.3800    6.5720  -31.0120 C.3   363  THR363      0.1862
     61  C         -5.1960    6.2670  -29.7790 C.2   363  THR363      0.2287
     62  O         -4.8750    5.3880  -29.0100 O.2   363  THR363     -0.2866
     63  CB        -3.1630    7.4470  -30.6250 C.3   363  THR363      0.1770
     64  OG1       -2.3580    7.5630  -31.7910 O.3   363  THR363     -0.2211
     65  CG2       -2.2400    6.8160  -29.4660 C.3   363  THR363      0.0375
     66  N         -6.8850    9.8470  -18.6990 N.3   387  TYR387     -0.1241
     67  CA        -6.2550    8.9040  -19.6320 C.3   387  TYR387      0.1605
     68  C         -6.8930    8.9740  -21.0260 C.2   387  TYR387      0.2264
     69  O         -8.1230    8.7970  -21.2250 O.2   387  TYR387     -0.2867
     70  CB        -6.3560    7.4460  -19.1030 C.3   387  TYR387      0.0534
     71  CG        -5.8680    6.4280  -20.1370 C.ar  387  TYR387     -0.0201
     72  CD1       -4.4880    6.2640  -20.3540 C.ar  387  TYR387     -0.0009
     73  CD2       -6.7620    5.6090  -20.8420 C.ar  387  TYR387     -0.0009
     74  CE1       -3.9970    5.3720  -21.3170 C.ar  387  TYR387      0.0417
     75  CE2       -6.2830    4.6860  -21.7760 C.ar  387  TYR387      0.0417
     76  CZ        -4.8920    4.6010  -22.0030 C.ar  387  TYR387      0.1957
     77  OH        -4.3800    3.6980  -22.9040 O.3   387  TYR387     -0.2866
     78  N         -1.1000   10.0120  -22.2330 N.3   406  LEU406     -0.1231
     79  CA        -0.7630    8.6170  -22.1480 C.3   406  LEU406      0.1693
     80  C          0.5050    8.5970  -21.3180 C.2   406  LEU406      0.2588
     81  O          1.0630    9.6580  -21.0500 O.2   406  LEU406     -0.2718
     82  CB        -0.4610    8.1050  -23.5710 C.3   406  LEU406      0.0284
     83  CG        -1.5950    8.2040  -24.6400 C.3   406  LEU406      0.0019
     84  CD1       -0.9810    7.6750  -25.9960 C.3   406  LEU406      0.0001
     85  CD2       -2.6780    7.2460  -24.1280 C.3   406  LEU406      0.0001
     86  N          0.9780    7.4170  -20.9200 N.am  407  ARG407     -0.2033
     87  CA         2.1910    7.3160  -20.1690 C.3   407  ARG407      0.1283
     88  C          2.2300    8.2610  -18.9060 C.3   407  ARG407      0.2036
     89  O          3.1830    9.1220  -18.7010 O.3   407  ARG407     -0.2185
     90  CB         3.3410    7.6540  -21.0970 C.3   407  ARG407      0.0281
     91  CG         3.3700    6.7220  -22.3020 C.3   407  ARG407      0.0488
     92  CD         4.7060    7.1100  -22.8410 C.3   407  ARG407      0.2205
     93  NE         5.0490    6.5930  -24.1410 N.pl3 407  ARG407     -0.0865
     94  CZ         6.3000    6.5590  -24.5470 C.cat 407  ARG407      0.5346
     95  NH1        7.2720    7.0110  -23.7470 N.pl3 407  ARG407      0.1354
     96  NH2        6.5830    6.1070  -25.7520 N.pl3 407  ARG407      0.1354
     97  N         -2.3830    1.7680  -19.3120 N.3   420  ALA420     -0.1231
     98  CA        -1.8320    1.7540  -20.6820 C.3   420  ALA420      0.1694
     99  C         -2.6870    0.7940  -21.5350 C.2   420  ALA420      0.2593
    100  O         -3.4260   -0.0670  -20.9790 O.2   420  ALA420     -0.2718
    101  CB        -0.3830    1.2770  -20.6200 C.3   420  ALA420      0.0304
    102  N         -2.6720    1.0370  -22.8280 N.am  421  GLY421     -0.1942
    103  CA        -3.5560    0.3780  -23.7690 C.3   421  GLY421      0.2014
    104  C         -2.8350    0.0700  -25.1000 C.2   421  GLY421      0.2638
    105  O         -1.6230    0.3740  -25.2790 O.2   421  GLY421     -0.2714
    106  N         -3.5780   -0.4930  -26.0560 N.am  422  ALA422     -0.1977
    107  CA        -2.9900   -0.8490  -27.3700 C.3   422  ALA422      0.1597
    108  C         -4.1000   -0.9230  -28.3650 C.2   422  ALA422      0.2287
    109  O         -5.2730   -1.2070  -27.9490 O.2   422  ALA422     -0.2864
    110  CB        -2.2650   -2.1830  -27.2600 C.3   422  ALA422      0.0319
    111  N          2.4380   -5.6600  -25.1940 N.3   436  GLU436     -0.1245
    112  CA         2.5990   -4.2780  -25.5700 C.3   436  GLU436      0.1567
    113  C          2.2140   -3.2670  -24.4590 C.2   436  GLU436      0.2260
    114  O          2.8810   -2.2380  -24.3240 O.2   436  GLU436     -0.2867
    115  CB         1.8380   -3.9450  -26.8310 C.3   436  GLU436      0.0388
    116  CG         2.0530   -2.5070  -27.2890 C.3   436  GLU436      0.1160
    117  CD         1.3760   -2.2240  -28.6230 C.2   436  GLU436      0.3649
    118  OE1        1.5110   -3.0980  -29.4900 O.co2 436  GLU436     -0.2457
    119  OE2        0.6730   -1.1950  -28.8240 O.co2 436  GLU436     -0.2457
    120  N          4.6100   -0.3060  -22.7130 N.3   440  LYS440     -0.1245
    121  CA         4.2320    1.0900  -22.5010 C.3   440  LYS440      0.1561
    122  C          4.3300    1.4740  -20.9990 C.2   440  LYS440      0.2260
    123  O          4.6680    2.6050  -20.6640 O.2   440  LYS440     -0.2867
    124  CB         2.8260    1.3400  -23.1290 C.3   440  LYS440      0.0271
    125  CG         2.9350    1.3120  -24.6500 C.3   440  LYS440      0.0035
    126  CD         1.5980    1.0190  -25.2570 C.3   440  LYS440      0.0206
    127  CE         1.6830    1.2670  -26.7580 C.3   440  LYS440      0.1093
    128  NZ         0.3350    0.9920  -27.2920 N.3   440  LYS440     -0.1314
@<TRIPOS>BOND
     1    36    35    2
     2    37    34    1
     3    35    34    1
     4    35    38   am
     5    39    38    1
     6    39    40    1
     7    52    51    2
     8    34    33    1
     9    51    50    1
    10    33    27   am
    11    40    41    2
    12    40    42   am
    13    25    26    1
    14    27    26    1
    15    27    28    2
    16    26    29    1
    17    42    43    1
    18    50    53    1
    19    50    49    1
    20    31    30    1
    21    45    44    2
    22    53    54    1
    23    30    29    1
    24    30    32    1
    25    44    43    1
    26    43    46    1
    27    59    60    1
    28    64    63    1
    29    24    22   ar
    30    23    22   ar
    31    47    46    1
    32    54    55   ar
    33    54    56   ar
    34    22    21    1
    35    46    48    1
    36    60    63    1
    37    60    61    1
    38    55    57   ar
    39    21    20    1
    40     8     6    1
    41    63    65    1
    42    56    58   ar
    43    61    62    2
    44    20    17    1
    45    57    58   ar
    46   118   117   ar
    47     1     2    1
    48     6     5    1
    49    12    11    2
    50    17    18    1
    51    17    16    1
    52    18    19    2
    53   119   117   ar
    54   117   116    1
    55     2     5    1
    56     2     3    1
    57   108   109    2
    58   108   107    1
    59     5     7    1
    60    11    16   am
    61    11    10    1
    62   107   110    1
    63   107   106    1
    64   128   127    1
    65   116   115    1
    66    13    10    1
    67    13    14    1
    68     3     4    2
    69    10     9    1
    70   115   112    1
    71   127   126    1
    72    14    15    1
    73   106   104   am
    74    84    83    1
    75     9    15    1
    76    96    94    1
    77   112   111    1
    78   112   113    1
    79   105   104    2
    80   126   125    1
    81   104   103    1
    82   125   124    1
    83    83    85    1
    84    83    82    1
    85    94    93    2
    86    94    95    1
    87   113   114    2
    88    93    92    1
    89   103   102    1
    90    82    79    1
    91   124   121    1
    92    77    76    1
    93    92    91    1
    94   102    99   am
    95   120   121    1
    96   121   122    1
    97    91    90    1
    98    78    79    1
    99    79    80    1
   100    76    75   ar
   101    76    74   ar
   102    75    73   ar
   103    99   100    2
   104    99    98    1
   105    80    81    2
   106    80    86   am
   107    74    72   ar
   108    69    68    2
   109    90    87    1
   110    68    67    1
   111   122   123    2
   112    86    87    1
   113    73    71   ar
   114    98   101    1
   115    98    97    1
   116    72    71   ar
   117    87    88    1
   118    71    70    1
   119    67    70    1
   120    67    66    1
   121    88    89    1
