@<TRIPOS>MOLECULE
tmp/3venA00.pdb
 132 125 0 0 0
SMALL
GASTEIGER

@<TRIPOS>ATOM
      1  N         23.7180   31.1850    6.4790 N.3   187  GLY187     -0.1210
      2  CA        24.5420   32.3630    6.2130 C.3   187  GLY187      0.1956
      3  C         25.6380   32.1140    5.1660 C.2   187  GLY187      0.2611
      4  O         26.0450   33.0250    4.4400 O.2   187  GLY187     -0.2717
      5  N         26.1240   30.8700    5.1030 N.am  188  LYS188     -0.1979
      6  CA        27.1190   30.5440    4.1030 C.3   188  LYS188      0.1596
      7  C         26.4770   30.6000    2.7290 C.2   188  LYS188      0.2287
      8  O         27.1460   30.9830    1.7680 O.2   188  LYS188     -0.2864
      9  CB        27.7030   29.1520    4.3200 C.3   188  LYS188      0.0298
     10  CG        28.5600   29.0350    5.6170 C.3   188  LYS188      0.0038
     11  CD        29.3140   27.6770    5.5950 C.3   188  LYS188      0.0206
     12  CE        30.0820   27.3880    6.8310 C.3   188  LYS188      0.1093
     13  NZ        31.0060   26.2400    6.4400 N.3   188  LYS188     -0.1314
     14  N         24.1100   32.5530    1.7500 N.3   190  MET190     -0.1230
     15  CA        23.9720   33.9640    1.3800 C.3   190  MET190      0.1702
     16  C         25.3220   34.4870    0.8640 C.2   190  MET190      0.2592
     17  O         25.3840   35.2500   -0.1140 O.2   190  MET190     -0.2718
     18  CB        23.5190   34.7610    2.6220 C.3   190  MET190      0.0401
     19  CG        23.3210   36.2510    2.2640 C.3   190  MET190      0.0596
     20  SD        22.7870   37.1870    3.7240 S.3   190  MET190     -0.1393
     21  CE        24.3780   37.2940    4.5860 C.3   190  MET190      0.0692
     22  N         26.4220   34.0700    1.4930 N.am  191  GLY191     -0.1957
     23  CA        27.7280   34.5460    1.0140 C.3   191  GLY191      0.1869
     24  C         28.0650   33.9170   -0.3370 C.2   191  GLY191      0.2309
     25  O         28.6590   34.5650   -1.1910 O.2   191  GLY191     -0.2863
     26  N         26.7760   37.5730   15.2070 N.3   419  ARG419     -0.1245
     27  CA        27.8230   38.4290   14.6540 C.3   419  ARG419      0.1563
     28  C         28.6100   39.1380   15.7340 C.2   419  ARG419      0.2260
     29  O         28.0360   39.7780   16.6540 O.2   419  ARG419     -0.2867
     30  CB        27.2180   39.4350   13.6630 C.3   419  ARG419      0.0307
     31  CG        26.6840   38.7390   12.4120 C.3   419  ARG419      0.0489
     32  CD        25.8550   39.7000   11.5990 C.3   419  ARG419      0.2205
     33  NE        25.3730   39.1350   10.3460 N.pl3 419  ARG419     -0.0865
     34  CZ        24.0840   38.9690   10.0740 C.cat 419  ARG419      0.5346
     35  NH1       23.2210   39.3160   10.9970 N.pl3 419  ARG419      0.1354
     36  NH2       23.6580   38.4820    8.8920 N.pl3 419  ARG419      0.1354
     37  N         39.0460   28.2810    6.3400 N.3   446  ARG446     -0.1245
     38  CA        37.7080   28.1000    5.7960 C.3   446  ARG446      0.1563
     39  C         37.6670   28.4260    4.2950 C.2   446  ARG446      0.2260
     40  O         38.7210   28.4900    3.6160 O.2   446  ARG446     -0.2867
     41  CB        36.7150   28.9560    6.5550 C.3   446  ARG446      0.0307
     42  CG        36.8610   30.4590    6.3450 C.3   446  ARG446      0.0489
     43  CD        35.9440   31.1810    7.3450 C.3   446  ARG446      0.2205
     44  NE        35.8840   32.5890    7.0250 N.pl3 446  ARG446     -0.0865
     45  CZ        35.0150   33.4530    7.5200 C.cat 446  ARG446      0.5346
     46  NH1       34.1960   33.1010    8.5100 N.pl3 446  ARG446      0.1354
     47  NH2       35.0620   34.6870    7.0550 N.pl3 446  ARG446      0.1354
     48  N         34.4120   33.3620    1.3760 N.3   450  ARG450     -0.1231
     49  CA        33.6380   33.9800    2.4700 C.3   450  ARG450      0.1679
     50  C         33.9860   35.4570    2.5830 C.2   450  ARG450      0.2434
     51  O         35.1510   35.8450    2.4950 O.2   450  ARG450     -0.2733
     52  CB        33.9950   33.3180    3.8120 C.3   450  ARG450      0.0321
     53  CG        33.6620   31.7960    3.8850 C.3   450  ARG450      0.0489
     54  CD        32.1630   31.5120    4.0970 C.3   450  ARG450      0.2205
     55  NE        31.7050   31.8770    5.4300 N.pl3 450  ARG450     -0.0865
     56  CZ        31.8440   31.1080    6.5300 C.cat 450  ARG450      0.5346
     57  NH1       32.4580   29.9280    6.4490 N.pl3 450  ARG450      0.1354
     58  NH2       31.3620   31.5280    7.7250 N.pl3 450  ARG450      0.1354
     59  N         32.9810   36.2940    2.8220 N.am  451  PRO451     -0.2718
     60  CA        33.1920   37.7340    2.8840 C.3   451  PRO451      0.1535
     61  C         33.4910   38.2110    4.3080 C.2   451  PRO451      0.2599
     62  O         33.1810   37.4540    5.2690 O.2   451  PRO451     -0.2715
     63  CB        31.8010   38.2790    2.4710 C.3   451  PRO451      0.0310
     64  CG        30.8250   37.2580    3.0610 C.3   451  PRO451      0.0237
     65  CD        31.5410   35.9320    2.7910 C.3   451  PRO451      0.0939
     66  N         34.0480   39.4310    4.4140 N.am  452  PHE452     -0.1960
     67  CA        34.2020   40.1130    5.7180 C.3   452  PHE452      0.1771
     68  C         33.5430   41.4550    5.7350 C.2   452  PHE452      0.2619
     69  O         33.2100   42.0250    4.6740 O.2   452  PHE452     -0.2715
     70  CB        35.6820   40.3030    6.0680 C.3   452  PHE452      0.0574
     71  CG        36.3930   39.0140    6.2920 C.ar  452  PHE452     -0.0200
     72  CD1       36.1960   38.3400    7.4940 C.ar  452  PHE452     -0.0042
     73  CD2       37.2560   38.4650    5.3350 C.ar  452  PHE452     -0.0042
     74  CE1       36.8330   37.1280    7.7330 C.ar  452  PHE452     -0.0003
     75  CE2       37.8790   37.2600    5.5660 C.ar  452  PHE452     -0.0003
     76  CZ        37.7290   36.5870    6.7730 C.ar  452  PHE452     -0.0000
     77  N         33.3630   41.9900    6.9540 N.am  453  ALA453     -0.1977
     78  CA        32.6570   43.2600    7.0860 C.3   453  ALA453      0.1597
     79  C         33.3270   44.1610    8.0900 C.2   453  ALA453      0.2287
     80  O         34.1410   43.6860    8.9020 O.2   453  ALA453     -0.2864
     81  CB        31.1980   42.9940    7.4960 C.3   453  ALA453      0.0319
     82  N         25.4410   44.8650   11.9740 N.3   474  MET474     -0.1245
     83  CA        25.9320   44.1090   10.8310 C.3   474  MET474      0.1570
     84  C         24.8610   43.2180   10.2590 C.2   474  MET474      0.2261
     85  O         25.1740   42.1320    9.7380 O.2   474  MET474     -0.2867
     86  CB        27.2180   43.3230   11.1430 C.3   474  MET474      0.0387
     87  CG        28.3260   44.2390   11.5700 C.3   474  MET474      0.0595
     88  SD        29.8120   43.3020   12.0720 S.3   474  MET474     -0.1393
     89  CE        30.9640   43.8220   10.8590 C.3   474  MET474      0.0692
     90  N         28.6370   45.5330    4.7940 N.3   499  ARG499     -0.1245
     91  CA        27.6700   45.1250    5.8350 C.3   499  ARG499      0.1563
     92  C         28.1920   45.6550    7.1800 C.2   499  ARG499      0.2260
     93  O         28.8550   44.9330    7.9380 O.2   499  ARG499     -0.2867
     94  CB        27.6070   43.5890    5.8880 C.3   499  ARG499      0.0307
     95  CG        26.5280   43.0480    6.8660 C.3   499  ARG499      0.0489
     96  CD        26.3360   41.5530    6.7120 C.3   499  ARG499      0.2205
     97  NE        27.5680   40.7930    6.5710 N.pl3 499  ARG499     -0.0865
     98  CZ        28.2870   40.4040    7.6240 C.cat 499  ARG499      0.5346
     99  NH1       27.8460   40.6750    8.8580 N.pl3 499  ARG499      0.1354
    100  NH2       29.4190   39.6970    7.4310 N.pl3 499  ARG499      0.1354
    101  N         36.1450   43.2970   11.1340 N.3   529  ASN529     -0.1225
    102  CA        35.6840   42.7730   12.4040 C.3   529  ASN529      0.1785
    103  C         34.9140   41.4720   12.1500 C.2   529  ASN529      0.2598
    104  O         33.7840   41.5160   11.6220 O.2   529  ASN529     -0.2718
    105  CB        34.7600   43.7790   13.1020 C.3   529  ASN529      0.1169
    106  CG        33.8590   43.1050   14.1410 C.2   529  ASN529      0.2627
    107  OD1       34.2370   42.1190   14.7610 O.2   529  ASN529     -0.2716
    108  ND2       32.6430   43.6210   14.2920 N.am  529  ASN529     -0.0877
    109  N         35.5480   40.3450   12.4730 N.am  530  THR530     -0.1939
    110  CA        34.9710   39.0210   12.2570 C.3   530  THR530      0.2028
    111  C         34.8290   38.2390   13.5530 C.2   530  THR530      0.2642
    112  O         35.2420   38.6900   14.6190 O.2   530  THR530     -0.2714
    113  CB        35.7580   38.2220   11.1690 C.3   530  THR530      0.1808
    114  OG1       35.0060   37.0150   10.8120 O.3   530  THR530     -0.2208
    115  CG2       37.1500   37.8550   11.6750 C.3   530  THR530      0.0379
    116  N         34.1540   37.1030   13.4760 N.am  531  SER531     -0.1949
    117  CA        33.8590   36.3710   14.7150 C.3   531  SER531      0.1924
    118  C         35.1090   35.7340   15.3470 C.2   531  SER531      0.2314
    119  O         35.9500   35.2120   14.6440 O.2   531  SER531     -0.2863
    120  CB        32.7970   35.2810   14.4700 C.3   531  SER531      0.2116
    121  OG        33.2270   34.4030   13.4450 O.3   531  SER531     -0.2180
    122  N         35.1780   27.7980   12.4410 N.3   535  ARG535     -0.1245
    123  CA        33.9460   27.1540   12.0310 C.3   535  ARG535      0.1563
    124  C         33.4690   26.0830   13.0280 C.2   535  ARG535      0.2260
    125  O         32.3000   25.6770   12.9980 O.2   535  ARG535     -0.2867
    126  CB        34.1470   26.5340   10.6230 C.3   535  ARG535      0.0307
    127  CG        35.3000   27.2380    9.7900 C.3   535  ARG535      0.0489
    128  CD        34.9070   28.6970    9.3960 C.3   535  ARG535      0.2205
    129  NE        35.0700   29.7260   10.4460 N.pl3 535  ARG535     -0.0865
    130  CZ        34.1830   30.7160   10.6660 C.cat 535  ARG535      0.5346
    131  NH1       33.0860   30.7600    9.9070 N.pl3 535  ARG535      0.1354
    132  NH2       34.3740   31.6530   11.6370 N.pl3 535  ARG535      0.1354
@<TRIPOS>BOND
     1    25    24    2
     2    24    23    1
     3    17    16    2
     4    16    15    1
     5    16    22   am
     6    23    22    1
     7    48    49    1
     8    15    14    1
     9    15    18    1
    10     8     7    2
    11    19    18    1
    12    19    20    1
    13    49    50    1
    14    49    52    1
    15    63    60    1
    16    63    64    1
    17    51    50    2
    18    50    59   am
    19     7     6    1
    20    65    59    1
    21    65    64    1
    22    59    60    1
    23    60    61    1
    24    40    39    2
    25    20    21    1
    26    52    53    1
    27    53    54    1
    28    54    55    1
    29     6     9    1
    30     6     5    1
    31    39    38    1
    32    61    66   am
    33    61    62    2
    34     9    10    1
    35    66    67    1
    36     4     3    2
    37    69    68    2
    38    90    91    1
    39     5     3   am
    40     3     2    1
    41    73    75   ar
    42    73    71   ar
    43    55    56    2
    44    75    76   ar
    45    11    10    1
    46    11    12    1
    47    67    68    1
    48    67    70    1
    49    68    77   am
    50    38    37    1
    51    38    41    1
    52    91    94    1
    53    91    92    1
    54    94    95    1
    55    70    71    1
    56     2     1    1
    57    71    72   ar
    58    42    41    1
    59    42    43    1
    60    13    12    1
    61    57    56    1
    62    56    58    1
    63    97    96    1
    64    97    98    2
    65    96    95    1
    66    76    74   ar
    67    77    78    1
    68    44    43    1
    69    44    45    2
    70    47    45    1
    71    78    81    1
    72    78    79    1
    73    92    93    2
    74   100    98    1
    75    72    74   ar
    76    45    46    1
    77    98    99    1
    78    79    80    2
    79    36    34    1
    80   128   127    1
    81   128   129    1
    82    85    84    2
    83   127   126    1
    84   131   130    1
    85    34    33    2
    86    34    35    1
    87    84    83    1
    88    33    32    1
    89   129   130    2
    90   126   123    1
    91   130   132    1
    92   114   113    1
    93    83    86    1
    94    83    82    1
    95    89    88    1
    96   101   102    1
    97    86    87    1
    98   113   115    1
    99   113   110    1
   100    87    88    1
   101    32    31    1
   102   104   103    2
   103   123   122    1
   104   123   124    1
   105   103   102    1
   106   103   109   am
   107   110   109    1
   108   110   111    1
   109   102   105    1
   110    31    30    1
   111   125   124    2
   112   105   106    1
   113   121   120    1
   114   116   111   am
   115   116   117    1
   116   111   112    2
   117    30    27    1
   118   106   108   am
   119   106   107    2
   120   120   117    1
   121   119   118    2
   122    27    26    1
   123    27    28    1
   124   117   118    1
   125    28    29    2
