@<TRIPOS>MOLECULE
tmp/3veoA00.pdb
 106 102 0 0 0
SMALL
GASTEIGER

@<TRIPOS>ATOM
      1  N         24.2480   35.9090   16.1830 N.3   418  PRO418     -0.2102
      2  CA        25.3430   35.2310   15.4820 C.3   418  PRO418      0.1504
      3  C         26.4930   36.1470   15.0360 C.2   418  PRO418      0.2576
      4  O         27.5100   35.6320   14.5720 O.2   418  PRO418     -0.2718
      5  CB        24.6410   34.6230   14.2610 C.3   418  PRO418      0.0282
      6  CG        23.5380   35.5920   13.9770 C.3   418  PRO418      0.0208
      7  CD        23.0600   36.0780   15.3250 C.3   418  PRO418      0.0893
      8  N         26.3460   37.4620   15.1670 N.am  419  ARG419     -0.1966
      9  CA        27.4040   38.3840   14.7540 C.3   419  ARG419      0.1729
     10  C         28.2680   38.8300   15.9110 C.2   419  ARG419      0.2616
     11  O         27.7580   39.1990   16.9740 O.2   419  ARG419     -0.2715
     12  CB        26.8000   39.6290   14.1090 C.3   419  ARG419      0.0348
     13  CG        25.9270   39.3300   12.8820 C.3   419  ARG419      0.0492
     14  CD        26.8010   39.0420   11.6440 C.3   419  ARG419      0.2205
     15  NE        27.2660   37.6600   11.5970 N.pl3 419  ARG419     -0.0865
     16  CZ        26.5040   36.6350   11.2210 C.cat 419  ARG419      0.5346
     17  NH1       25.2420   36.8390   10.8760 N.pl3 419  ARG419      0.1354
     18  NH2       26.9990   35.4080   11.1860 N.pl3 419  ARG419      0.1354
     19  N         29.5780   38.8150   15.6930 N.am  420  ALA420     -0.1977
     20  CA        30.5160   39.4860   16.5850 C.3   420  ALA420      0.1597
     21  C         30.4220   40.9830   16.3310 C.2   420  ALA420      0.2287
     22  O         30.3760   41.4090   15.1830 O.2   420  ALA420     -0.2864
     23  CB        31.9380   38.9940   16.3240 C.3   420  ALA420      0.0319
     24  N         41.1180   30.8790    9.7340 N.3   444  LYS444     -0.1245
     25  CA        39.9590   30.0270    9.9940 C.3   444  LYS444      0.1561
     26  C         39.9070   28.7600    9.1320 C.2   444  LYS444      0.2260
     27  O         38.9940   27.9560    9.2800 O.2   444  LYS444     -0.2867
     28  CB        38.6670   30.8150    9.7990 C.3   444  LYS444      0.0271
     29  CG        38.5620   32.0440   10.6700 C.3   444  LYS444      0.0035
     30  CD        37.1820   32.6620   10.5620 C.3   444  LYS444      0.0206
     31  CE        36.9370   33.6340   11.7050 C.3   444  LYS444      0.1093
     32  NZ        35.4930   33.9000   11.9300 N.3   444  LYS444     -0.1314
     33  N         38.9670   27.9160    6.0890 N.3   446  ARG446     -0.1245
     34  CA        37.6370   27.6640    5.5650 C.3   446  ARG446      0.1563
     35  C         37.5630   28.0790    4.0920 C.2   446  ARG446      0.2260
     36  O         38.5920   28.1680    3.4210 O.2   446  ARG446     -0.2867
     37  CB        36.6070   28.4090    6.4100 C.3   446  ARG446      0.0307
     38  CG        36.6800   29.9200    6.2330 C.3   446  ARG446      0.0489
     39  CD        35.8430   30.6240    7.2800 C.3   446  ARG446      0.2205
     40  NE        35.6870   32.0370    6.9670 N.pl3 446  ARG446     -0.0865
     41  CZ        34.7990   32.8370    7.5490 C.cat 446  ARG446      0.5346
     42  NH1       33.9810   32.3620    8.4850 N.pl3 446  ARG446      0.1354
     43  NH2       34.7230   34.1090    7.1860 N.pl3 446  ARG446      0.1354
     44  N         32.6930   36.0810    2.6950 N.3   451  PRO451     -0.2102
     45  CA        32.8630   37.5330    2.7920 C.3   451  PRO451      0.1504
     46  C         33.2020   37.9810    4.2050 C.2   451  PRO451      0.2576
     47  O         32.8840   37.2710    5.1670 O.2   451  PRO451     -0.2718
     48  CB        31.4680   38.0510    2.4380 C.3   451  PRO451      0.0282
     49  CG        30.5650   37.0140    3.0140 C.3   451  PRO451      0.0208
     50  CD        31.2750   35.6930    2.7950 C.3   451  PRO451      0.0893
     51  N         33.8290   39.1490    4.3270 N.am  452  PHE452     -0.1963
     52  CA        34.0190   39.7840    5.6280 C.3   452  PHE452      0.1771
     53  C         33.3380   41.1320    5.6840 C.2   452  PHE452      0.2619
     54  O         32.9840   41.7040    4.6550 O.2   452  PHE452     -0.2715
     55  CB        35.4930   39.9330    5.9720 C.3   452  PHE452      0.0574
     56  CG        36.1680   38.6320    6.2280 C.ar  452  PHE452     -0.0200
     57  CD1       35.9740   37.9660    7.4280 C.ar  452  PHE452     -0.0042
     58  CD2       36.9680   38.0480    5.2590 C.ar  452  PHE452     -0.0042
     59  CE1       36.5860   36.7560    7.6670 C.ar  452  PHE452     -0.0003
     60  CE2       37.5810   36.8310    5.4960 C.ar  452  PHE452     -0.0003
     61  CZ        37.3880   36.1830    6.7010 C.ar  452  PHE452     -0.0000
     62  N         33.1640   41.6350    6.8990 N.am  453  ALA453     -0.1977
     63  CA        32.3760   42.8340    7.1220 C.3   453  ALA453      0.1597
     64  C         33.1020   43.7780    8.0720 C.2   453  ALA453      0.2287
     65  O         33.9440   43.3480    8.8590 O.2   453  ALA453     -0.2864
     66  CB        30.9850   42.4600    7.6590 C.3   453  ALA453      0.0319
     67  N         25.1880   44.4590   12.0660 N.3   474  MET474     -0.1245
     68  CA        25.6440   43.7050   10.9050 C.3   474  MET474      0.1570
     69  C         24.5650   42.7700   10.3910 C.2   474  MET474      0.2261
     70  O         24.8450   41.6260   10.0160 O.2   474  MET474     -0.2867
     71  CB        26.8750   42.8790   11.2570 C.3   474  MET474      0.0387
     72  CG        28.1400   43.6790   11.2340 C.3   474  MET474      0.0595
     73  SD        29.5460   42.6400   11.5920 S.3   474  MET474     -0.1393
     74  CE        30.8720   43.7550   11.1290 C.3   474  MET474      0.0692
     75  N         28.3410   44.9000    4.7770 N.3   499  ARG499     -0.1245
     76  CA        27.4070   44.5390    5.8430 C.3   499  ARG499      0.1563
     77  C         27.9920   45.0230    7.1630 C.2   499  ARG499      0.2260
     78  O         28.6200   44.2660    7.9040 O.2   499  ARG499     -0.2867
     79  CB        27.1480   43.0330    5.8190 C.3   499  ARG499      0.0307
     80  CG        26.1340   42.5310    6.8110 C.3   499  ARG499      0.0489
     81  CD        26.8670   41.8780    7.9530 C.3   499  ARG499      0.2205
     82  NE        26.9660   40.4360    7.8060 N.pl3 499  ARG499     -0.0865
     83  CZ        27.9020   39.6880    8.3890 C.cat 499  ARG499      0.5346
     84  NH1       28.8510   40.2390    9.1410 N.pl3 499  ARG499      0.1354
     85  NH2       27.8950   38.3800    8.2100 N.pl3 499  ARG499      0.1354
     86  N         35.9050   42.9900   11.0820 N.3   529  ASN529     -0.1225
     87  CA        35.4750   42.4010   12.3390 C.3   529  ASN529      0.1785
     88  C         34.7100   41.1260   12.0470 C.2   529  ASN529      0.2598
     89  O         33.5820   41.1700   11.5580 O.2   529  ASN529     -0.2718
     90  CB        34.5940   43.3850   13.1210 C.3   529  ASN529      0.1169
     91  CG        33.6380   42.6880   14.0800 C.2   529  ASN529      0.2627
     92  OD1       33.9960   41.7030   14.7270 O.2   529  ASN529     -0.2716
     93  ND2       32.4070   43.2010   14.1710 N.am  529  ASN529     -0.0877
     94  N         35.3340   39.9850   12.3260 N.am  530  THR530     -0.1939
     95  CA        34.6810   38.7090   12.0670 C.3   530  THR530      0.2028
     96  C         34.5020   37.9390   13.3860 C.2   530  THR530      0.2642
     97  O         35.0730   38.3150   14.4080 O.2   530  THR530     -0.2714
     98  CB        35.4530   37.9030   11.0100 C.3   530  THR530      0.1808
     99  OG1       34.7100   36.7250   10.6580 O.3   530  THR530     -0.2208
    100  CG2       36.8430   37.5250   11.5310 C.3   530  THR530      0.0379
    101  N         33.6840   36.8930   13.3840 N.am  531  SER531     -0.1949
    102  CA        33.4080   36.1750   14.6210 C.3   531  SER531      0.1924
    103  C         34.6760   35.5540   15.2040 C.2   531  SER531      0.2314
    104  O         35.5170   35.0150   14.4730 O.2   531  SER531     -0.2863
    105  CB        32.3420   35.1020   14.3970 C.3   531  SER531      0.2116
    106  OG        32.8010   34.1590   13.4560 O.3   531  SER531     -0.2180
@<TRIPOS>BOND
     1    48    45    1
     2    48    49    1
     3    44    45    1
     4    44    50    1
     5    45    46    1
     6    50    49    1
     7    36    35    2
     8    35    34    1
     9    46    51   am
    10    46    47    2
    11    51    52    1
    12    54    53    2
    13    75    76    1
    14    58    60   ar
    15    58    56   ar
    16    60    61   ar
    17    34    33    1
    18    34    37    1
    19    52    53    1
    20    52    55    1
    21    53    62   am
    22    79    76    1
    23    79    80    1
    24    76    77    1
    25    55    56    1
    26    56    57   ar
    27    38    37    1
    28    38    39    1
    29    61    59   ar
    30    80    81    1
    31    62    63    1
    32    40    39    1
    33    40    41    2
    34    63    66    1
    35    63    64    1
    36    77    78    2
    37    43    41    1
    38    57    59   ar
    39    41    42    1
    40    82    81    1
    41    82    83    2
    42    64    65    2
    43    85    83    1
    44    83    84    1
    45    26    27    2
    46    26    25    1
    47    24    25    1
    48    28    25    1
    49    28    29    1
    50    70    69    2
    51    69    68    1
    52    30    29    1
    53    30    31    1
    54    99    98    1
    55    17    16    1
    56    68    71    1
    57    68    67    1
    58    98   100    1
    59    98    95    1
    60    86    87    1
    61    74    73    1
    62    18    16    1
    63    16    15    2
    64    72    71    1
    65    72    73    1
    66    89    88    2
    67    15    14    1
    68    14    13    1
    69    31    32    1
    70    88    94   am
    71    88    87    1
    72    95    94    1
    73    95    96    1
    74    87    90    1
    75    13    12    1
    76    90    91    1
    77   101    96   am
    78   101   102    1
    79    96    97    2
    80   106   105    1
    81     6     5    1
    82     6     7    1
    83    91    93   am
    84    91    92    2
    85    12     9    1
    86     5     2    1
    87   105   102    1
    88   104   103    2
    89     4     3    2
    90   102   103    1
    91     9     8    1
    92     9    10    1
    93     3     8   am
    94     3     2    1
    95    22    21    2
    96     7     1    1
    97     2     1    1
    98    19    10   am
    99    19    20    1
   100    10    11    2
   101    23    20    1
   102    21    20    1
