@<TRIPOS>MOLECULE
tmp/3verA00.pdb
 169 161 0 0 0
SMALL
GASTEIGER

@<TRIPOS>ATOM
      1  N         23.5110   31.1520    6.1720 N.3   186  GLY186     -0.1225
      2  CA        24.3340   32.3240    5.9430 C.3   186  GLY186      0.1811
      3  C         25.4130   32.1030    4.8960 C.2   186  GLY186      0.2280
      4  O         25.8430   33.0450    4.2400 O.2   186  GLY186     -0.2866
      5  N         23.8380   32.4630    1.4780 N.3   189  MET189     -0.1230
      6  CA        23.7620   33.9080    1.2350 C.3   189  MET189      0.1702
      7  C         25.0870   34.5160    0.7540 C.2   189  MET189      0.2592
      8  O         25.0860   35.3730   -0.1210 O.2   189  MET189     -0.2718
      9  CB        23.2620   34.6540    2.4700 C.3   189  MET189      0.0401
     10  CG        23.0230   36.1390    2.2300 C.3   189  MET189      0.0596
     11  SD        22.4640   37.0150    3.7100 S.3   189  MET189     -0.1393
     12  CE        23.9190   36.8870    4.7470 C.3   189  MET189      0.0692
     13  N         26.2070   34.0740    1.3250 N.am  190  GLY190     -0.1957
     14  CA        27.5290   34.5220    0.9000 C.3   190  GLY190      0.1869
     15  C         27.9060   34.0270   -0.4950 C.2   190  GLY190      0.2309
     16  O         28.5330   34.7370   -1.2810 O.2   190  GLY190     -0.2863
     17  N         21.5660   40.5130    3.2420 N.3   316  THR316     -0.1218
     18  CA        21.5190   40.9710    1.8580 C.3   316  THR316      0.1862
     19  C         20.0900   41.4440    1.5560 C.2   316  THR316      0.2287
     20  O         19.8740   42.5720    1.1130 O.2   316  THR316     -0.2866
     21  CB        21.9990   39.8480    0.8880 C.3   316  THR316      0.1770
     22  OG1       23.3400   39.4710    1.2240 O.3   316  THR316     -0.2211
     23  CG2       21.9580   40.2900   -0.5800 C.3   316  THR316      0.0375
     24  N         24.4630   36.0200   16.5200 N.3   417  PRO417     -0.2102
     25  CA        25.5290   35.3700   15.7480 C.3   417  PRO417      0.1504
     26  C         26.6800   36.2870   15.3200 C.2   417  PRO417      0.2576
     27  O         27.7080   35.7530   14.9110 O.2   417  PRO417     -0.2718
     28  CB        24.7870   34.8300   14.5180 C.3   417  PRO417      0.0282
     29  CG        23.6290   35.7980   14.3590 C.3   417  PRO417      0.0208
     30  CD        23.2100   36.1450   15.7530 C.3   417  PRO417      0.0893
     31  N         26.5290   37.6080   15.4110 N.am  418  ARG418     -0.1966
     32  CA        27.5820   38.5210   14.9610 C.3   418  ARG418      0.1729
     33  C         28.4720   39.0090   16.0800 C.2   418  ARG418      0.2616
     34  O         27.9930   39.4270   17.1340 O.2   418  ARG418     -0.2715
     35  CB        27.0040   39.7440   14.2300 C.3   418  ARG418      0.0348
     36  CG        26.1560   39.4120   12.9980 C.3   418  ARG418      0.0492
     37  CD        27.0030   39.0200   11.7790 C.3   418  ARG418      0.2205
     38  NE        27.4990   37.6470   11.8200 N.pl3 418  ARG418     -0.0865
     39  CZ        26.8050   36.5840   11.4270 C.cat 418  ARG418      0.5346
     40  NH1       25.5630   36.7280   10.9830 N.pl3 418  ARG418      0.1354
     41  NH2       27.3490   35.3720   11.4860 N.pl3 418  ARG418      0.1354
     42  N         29.7780   38.9750   15.8310 N.am  419  ALA419     -0.1977
     43  CA        30.7350   39.6250   16.7140 C.3   419  ALA419      0.1597
     44  C         30.6490   41.1210   16.4750 C.2   419  ALA419      0.2287
     45  O         30.6200   41.5690   15.3190 O.2   419  ALA419     -0.2864
     46  CB        32.1460   39.1030   16.4380 C.3   419  ALA419      0.0319
     47  N         37.9270   29.1250    6.4980 N.3   445  ARG445     -0.1245
     48  CA        36.7250   29.3380    5.6920 C.3   445  ARG445      0.1563
     49  C         37.0230   29.1550    4.2090 C.2   445  ARG445      0.2260
     50  O         38.1760   29.2390    3.7920 O.2   445  ARG445     -0.2867
     51  CB        36.1740   30.7510    5.9050 C.3   445  ARG445      0.0307
     52  CG        35.6050   31.0040    7.2890 C.3   445  ARG445      0.0489
     53  CD        34.9400   32.3720    7.3960 C.3   445  ARG445      0.2205
     54  NE        34.2520   32.5290    8.6740 N.pl3 445  ARG445     -0.0865
     55  CZ        33.5750   33.6150    9.0380 C.cat 445  ARG445      0.5346
     56  NH1       33.4950   34.6590    8.2120 N.pl3 445  ARG445      0.1354
     57  NH2       32.9840   33.6580   10.2290 N.pl3 445  ARG445      0.1354
     58  N         34.2500   33.4710    0.8870 N.3   449  ARG449     -0.1231
     59  CA        33.4960   34.1190    1.9540 C.3   449  ARG449      0.1679
     60  C         34.0350   35.5230    2.1880 C.2   449  ARG449      0.2434
     61  O         35.2340   35.7120    2.3000 O.2   449  ARG449     -0.2733
     62  CB        33.5860   33.2910    3.2300 C.3   449  ARG449      0.0321
     63  CG        33.2500   31.8210    3.0150 C.3   449  ARG449      0.0489
     64  CD        31.8030   31.5410    3.3070 C.3   449  ARG449      0.2205
     65  NE        31.3950   32.1220    4.5890 N.pl3 449  ARG449     -0.0865
     66  CZ        31.5690   31.5490    5.7790 C.cat 449  ARG449      0.5346
     67  NH1       32.1620   30.3600    5.8810 N.pl3 449  ARG449      0.1354
     68  NH2       31.1530   32.1780    6.8780 N.pl3 449  ARG449      0.1354
     69  N         33.1460   36.5190    2.2460 N.am  450  PRO450     -0.2718
     70  CA        33.5680   37.9010    2.4880 C.3   450  PRO450      0.1535
     71  C         33.6640   38.2080    3.9830 C.2   450  PRO450      0.2599
     72  O         33.1180   37.4570    4.7920 O.2   450  PRO450     -0.2715
     73  CB        32.4150   38.7050    1.8910 C.3   450  PRO450      0.0310
     74  CG        31.2270   37.8500    2.2010 C.3   450  PRO450      0.0237
     75  CD        31.6980   36.4280    1.9870 C.3   450  PRO450      0.0939
     76  N         34.3530   39.2970    4.3310 N.am  451  PHE451     -0.1960
     77  CA        34.3840   39.8000    5.7030 C.3   451  PHE451      0.1771
     78  C         33.6580   41.1320    5.8020 C.2   451  PHE451      0.2619
     79  O         33.4370   41.8020    4.7940 O.2   451  PHE451     -0.2715
     80  CB        35.8240   39.9370    6.2230 C.3   451  PHE451      0.0574
     81  CG        36.5130   38.6250    6.4230 C.ar  451  PHE451     -0.0200
     82  CD1       36.3490   37.9160    7.6000 C.ar  451  PHE451     -0.0042
     83  CD2       37.2980   38.0740    5.4180 C.ar  451  PHE451     -0.0042
     84  CE1       36.9670   36.6970    7.7760 C.ar  451  PHE451     -0.0003
     85  CE2       37.9340   36.8450    5.6030 C.ar  451  PHE451     -0.0003
     86  CZ        37.7670   36.1600    6.7760 C.ar  451  PHE451     -0.0000
     87  N         33.2950   41.4970    7.0280 N.am  452  ALA452     -0.1977
     88  CA        32.5710   42.7240    7.3260 C.3   452  ALA452      0.1597
     89  C         33.4250   43.7350    8.1170 C.2   452  ALA452      0.2287
     90  O         34.3520   43.3570    8.8280 O.2   452  ALA452     -0.2864
     91  CB        31.2810   42.3930    8.0880 C.3   452  ALA452      0.0319
     92  N         25.2770   44.7370   12.1950 N.3   473  MET473     -0.1245
     93  CA        25.7130   43.9730   11.0310 C.3   473  MET473      0.1570
     94  C         24.5910   43.0810   10.5180 C.2   473  MET473      0.2261
     95  O         24.8690   41.9770   10.0650 O.2   473  MET473     -0.2867
     96  CB        26.8770   43.0320   11.3840 C.3   473  MET473      0.0387
     97  CG        28.2390   43.6460   11.3610 C.3   473  MET473      0.0595
     98  SD        29.5190   42.3870   11.5360 S.3   473  MET473     -0.1393
     99  CE        30.9630   43.4350   11.5840 C.3   473  MET473      0.0692
    100  N         23.2520   44.6960    4.7810 N.3   476  THR476     -0.1218
    101  CA        24.3150   45.0910    3.8650 C.3   476  THR476      0.1862
    102  C         23.9710   46.4240    3.1950 C.2   476  THR476      0.2287
    103  O         22.8120   46.8380    3.1600 O.2   476  THR476     -0.2866
    104  CB        24.6070   44.0010    2.8100 C.3   476  THR476      0.1770
    105  OG1       23.4000   43.6610    2.1190 O.3   476  THR476     -0.2211
    106  CG2       25.1580   42.7510    3.4850 C.3   476  THR476      0.0375
    107  N         32.5260   42.7690   -0.7070 N.3   492  HIS492     -0.1241
    108  CA        32.0760   41.4990   -1.2570 C.3   492  HIS492      0.1621
    109  C         32.0680   41.5540   -2.7790 C.2   492  HIS492      0.2264
    110  O         32.3550   42.5950   -3.3760 O.2   492  HIS492     -0.2867
    111  CB        30.6890   41.1210   -0.7210 C.3   492  HIS492      0.0745
    112  CG        30.2870   39.7040   -1.0150 C.ar  492  HIS492      0.0817
    113  ND1       31.1910   38.7310   -1.3940 N.ar  492  HIS492     -0.2268
    114  CD2       29.0740   39.0980   -0.9870 C.ar  492  HIS492      0.1154
    115  CE1       30.5530   37.5900   -1.5850 C.ar  492  HIS492      0.1986
    116  NE2       29.2690   37.7830   -1.3400 N.ar  492  HIS492     -0.2212
    117  N         29.6910   41.4790   -4.9620 N.3   494  ASP494     -0.1239
    118  CA        28.7030   42.3940   -5.5380 C.3   494  ASP494      0.1674
    119  C         28.9030   43.8740   -5.1440 C.2   494  ASP494      0.2266
    120  O         28.0070   44.6960   -5.3320 O.2   494  ASP494     -0.2867
    121  CB        27.2830   41.9340   -5.1780 C.3   494  ASP494      0.1410
    122  CG        27.0610   41.8570   -3.6810 C.2   494  ASP494      0.3668
    123  OD1       26.1350   41.1480   -3.2300 O.co2 494  ASP494     -0.2456
    124  OD2       27.8280   42.5050   -2.9450 O.co2 494  ASP494     -0.2456
    125  N         29.0620   45.0860   -2.2080 N.3   496  SER496     -0.1202
    126  CA        28.3930   45.3650   -0.9490 C.3   496  SER496      0.2020
    127  C         29.3330   45.1570    0.2400 C.2   496  SER496      0.2619
    128  O         30.3640   44.4940    0.1160 O.2   496  SER496     -0.2717
    129  CB        27.1640   44.4670   -0.8000 C.3   496  SER496      0.2103
    130  OG        27.5200   43.1200   -0.5110 O.3   496  SER496     -0.2182
    131  N         28.9770   45.7340    1.3840 N.am  497  THR497     -0.1938
    132  CA        29.6510   45.4430    2.6480 C.3   497  THR497      0.2028
    133  C         28.6020   45.3510    3.7570 C.2   497  THR497      0.2642
    134  O         27.5270   45.9300    3.6310 O.2   497  THR497     -0.2714
    135  CB        30.7280   46.4920    2.9930 C.3   497  THR497      0.1808
    136  OG1       31.5890   45.9810    4.0150 O.3   497  THR497     -0.2208
    137  CG2       30.1000   47.7770    3.4740 C.3   497  THR497      0.0379
    138  N         28.9040   44.5950    4.8120 N.am  498  ARG498     -0.1977
    139  CA        27.9690   44.3580    5.9230 C.3   498  ARG498      0.1597
    140  C         28.5020   45.0880    7.1540 C.2   498  ARG498      0.2287
    141  O         29.2630   44.5140    7.9320 O.2   498  ARG498     -0.2864
    142  CB        27.8420   42.8490    6.2330 C.3   498  ARG498      0.0334
    143  CG        26.5430   42.4520    6.9500 C.3   498  ARG498      0.0492
    144  CD        26.7110   41.3070    7.9760 C.3   498  ARG498      0.2205
    145  NE        26.5400   39.9720    7.4020 N.pl3 498  ARG498     -0.0865
    146  CZ        25.6770   39.0460    7.8350 C.cat 498  ARG498      0.5346
    147  NH1       24.8630   39.2820    8.8600 N.pl3 498  ARG498      0.1354
    148  NH2       25.6270   37.8620    7.2320 N.pl3 498  ARG498      0.1354
    149  N         36.3080   43.0810   11.0790 N.3   528  ASN528     -0.1225
    150  CA        35.8580   42.4810   12.3340 C.3   528  ASN528      0.1785
    151  C         35.0500   41.2060   12.0840 C.2   528  ASN528      0.2598
    152  O         33.8930   41.2530   11.6490 O.2   528  ASN528     -0.2718
    153  CB        35.0380   43.4880   13.1440 C.3   528  ASN528      0.1169
    154  CG        34.0920   42.8170   14.1200 C.2   528  ASN528      0.2627
    155  OD1       34.4510   41.8360   14.7480 O.2   528  ASN528     -0.2716
    156  ND2       32.8640   43.3310   14.2250 N.am  528  ASN528     -0.0877
    157  N         35.6830   40.0690   12.3520 N.am  529  THR529     -0.1939
    158  CA        35.0620   38.7600   12.1710 C.3   529  THR529      0.2028
    159  C         34.8650   38.1260   13.5560 C.2   529  THR529      0.2642
    160  O         35.3770   38.6470   14.5600 O.2   529  THR529     -0.2714
    161  CB        35.9450   37.8910   11.2420 C.3   529  THR529      0.1808
    162  OG1       35.2210   36.7380   10.7960 O.3   529  THR529     -0.2208
    163  CG2       37.2710   37.4860   11.9370 C.3   529  THR529      0.0379
    164  N         34.1260   37.0210   13.6270 N.am  530  SER530     -0.1949
    165  CA        33.7950   36.4240   14.9280 C.3   530  SER530      0.1924
    166  C         34.9800   35.6830   15.5280 C.2   530  SER530      0.2314
    167  O         35.7120   34.9890   14.8200 O.2   530  SER530     -0.2863
    168  CB        32.5780   35.4860   14.8290 C.3   530  SER530      0.2116
    169  OG        32.8630   34.3640   14.0160 O.3   530  SER530     -0.2180
@<TRIPOS>BOND
     1   118   121    1
     2   118   119    1
     3   118   117    1
     4   120   119    2
     5   121   122    1
     6   122   123   ar
     7   122   124   ar
     8   110   109    2
     9   109   108    1
    10   125   126    1
    11   115   113   ar
    12   115   116   ar
    13   113   112   ar
    14   116   114   ar
    15    16    15    2
    16   108   111    1
    17   108   107    1
    18   112   114   ar
    19   112   111    1
    20   126   129    1
    21   126   127    1
    22   129   130    1
    23    23    21    1
    24    15    14    1
    25     8     7    2
    26   128   127    2
    27   127   131   am
    28     7     6    1
    29     7    13   am
    30    58    59    1
    31    21    22    1
    32    21    18    1
    33    14    13    1
    34    20    19    2
    35     6     5    1
    36     6     9    1
    37   131   132    1
    38    19    18    1
    39    18    17    1
    40    73    74    1
    41    73    70    1
    42    59    60    1
    43    59    62    1
    44    75    74    1
    45    75    69    1
    46   105   104    1
    47    60    69   am
    48    60    61    2
    49    10     9    1
    50    10    11    1
    51    69    70    1
    52    70    71    1
    53   132   135    1
    54   132   133    1
    55   104   106    1
    56   104   101    1
    57   135   137    1
    58   135   136    1
    59    63    62    1
    60    63    64    1
    61   103   102    2
    62   102   101    1
    63    64    65    1
    64   134   133    2
    65    11    12    1
    66   133   138   am
    67    50    49    2
    68   101   100    1
    69    71    76   am
    70    71    72    2
    71    49    48    1
    72     4     3    2
    73    76    77    1
    74    65    66    2
    75    79    78    2
    76   138   139    1
    77     3     2    1
    78    83    85   ar
    79    83    81   ar
    80    85    86   ar
    81    48    51    1
    82    48    47    1
    83    77    78    1
    84    77    80    1
    85    66    67    1
    86    66    68    1
    87    78    87   am
    88    51    52    1
    89   139   142    1
    90   139   140    1
    91     2     1    1
    92    80    81    1
    93   142   143    1
    94    81    82   ar
    95    86    84   ar
    96   143   144    1
    97    87    88    1
    98   140   141    2
    99   148   146    1
   100    52    53    1
   101    88    91    1
   102    88    89    1
   103    53    54    1
   104   145   146    2
   105   145   144    1
   106    82    84   ar
   107   146   147    1
   108    89    90    2
   109    56    55    1
   110    54    55    2
   111    55    57    1
   112    95    94    2
   113    94    93    1
   114   162   161    1
   115    40    39    1
   116    93    96    1
   117    93    92    1
   118   149   150    1
   119   161   163    1
   120   161   158    1
   121    97    96    1
   122    97    98    1
   123    39    41    1
   124    39    38    2
   125    98    99    1
   126   152   151    2
   127    37    38    1
   128    37    36    1
   129   151   150    1
   130   151   157   am
   131   158   157    1
   132   158   159    1
   133   150   153    1
   134    36    35    1
   135   153   154    1
   136   159   164   am
   137   159   160    2
   138   164   165    1
   139   169   168    1
   140   154   156   am
   141   154   155    2
   142    35    32    1
   143    29    28    1
   144    29    30    1
   145    28    25    1
   146   167   166    2
   147   168   165    1
   148    27    26    2
   149   165   166    1
   150    32    31    1
   151    32    33    1
   152    45    44    2
   153    26    31   am
   154    26    25    1
   155    25    24    1
   156    30    24    1
   157    42    33   am
   158    42    43    1
   159    33    34    2
   160    46    43    1
   161    44    43    1
