@<TRIPOS>MOLECULE
tmp/3vetA00.pdb
 194 184 0 0 0
SMALL
GASTEIGER

@<TRIPOS>ATOM
      1  N         28.0360   24.6040   19.9880 N.3    40  LYS40      -0.1245
      2  CA        27.4690   25.4680   18.9610 C.3    40  LYS40       0.1561
      3  C         25.9770   25.2310   18.7440 C.2    40  LYS40       0.2260
      4  O         25.5250   24.0860   18.6930 O.2    40  LYS40      -0.2867
      5  CB        28.2270   25.3030   17.6370 C.3    40  LYS40       0.0271
      6  CG        28.7720   26.6170   17.0710 C.3    40  LYS40       0.0035
      7  CD        28.2920   26.8870   15.6430 C.3    40  LYS40       0.0206
      8  CE        28.7830   28.2500   15.1200 C.3    40  LYS40       0.1093
      9  NZ        28.3200   29.4100   15.9480 N.3    40  LYS40      -0.1314
     10  N         24.5550   31.0810    6.3570 N.3   187  GLY187     -0.1210
     11  CA        25.4300   32.2260    6.1810 C.3   187  GLY187      0.1956
     12  C         26.5120   31.9730    5.1370 C.2   187  GLY187      0.2611
     13  O         26.9160   32.8910    4.4240 O.2   187  GLY187     -0.2717
     14  N         26.9940   30.7340    5.0430 N.am  188  LYS188     -0.1979
     15  CA        27.9880   30.4100    4.0150 C.3   188  LYS188      0.1596
     16  C         27.3860   30.5390    2.6200 C.2   188  LYS188      0.2287
     17  O         28.0550   31.0100    1.6860 O.2   188  LYS188     -0.2864
     18  CB        28.5740   29.0110    4.1990 C.3   188  LYS188      0.0298
     19  CG        29.5020   28.8360    5.4100 C.3   188  LYS188      0.0038
     20  CD        30.1390   27.4460    5.3680 C.3   188  LYS188      0.0206
     21  CE        31.1960   27.2180    6.4370 C.3   188  LYS188      0.1093
     22  NZ        31.9670   25.9420    6.1390 N.3   188  LYS188     -0.1314
     23  N         24.9890   32.5130    1.7420 N.3   190  MET190     -0.1230
     24  CA        24.8480   33.9360    1.4660 C.3   190  MET190      0.1702
     25  C         26.1590   34.4910    0.9210 C.2   190  MET190      0.2592
     26  O         26.1660   35.2970   -0.0060 O.2   190  MET190     -0.2718
     27  CB        24.4480   34.7030    2.7310 C.3   190  MET190      0.0401
     28  CG        24.0650   36.1520    2.4550 C.3   190  MET190      0.0596
     29  SD        23.4260   37.0000    3.9230 S.3   190  MET190     -0.1393
     30  CE        24.9140   37.0780    4.9200 C.3   190  MET190      0.0692
     31  N         27.2670   34.0530    1.5040 N.am  191  GLY191     -0.1957
     32  CA        28.5780   34.5000    1.0710 C.3   191  GLY191      0.1869
     33  C         28.9130   33.9880   -0.3240 C.2   191  GLY191      0.2309
     34  O         29.5260   34.6980   -1.1170 O.2   191  GLY191     -0.2863
     35  N         22.5290   40.5940    3.2440 N.3   317  THR317     -0.1218
     36  CA        22.4440   41.0280    1.8490 C.3   317  THR317      0.1862
     37  C         21.0210   41.4780    1.4910 C.2   317  THR317      0.2287
     38  O         20.8060   42.5720    0.9680 O.2   317  THR317     -0.2866
     39  CB        22.8920   39.9160    0.8710 C.3   317  THR317      0.1770
     40  OG1       24.2330   39.5060    1.1850 O.3   317  THR317     -0.2211
     41  CG2       22.8410   40.4300   -0.5830 C.3   317  THR317      0.0375
     42  N         24.9210   36.5710   16.4670 N.3   418  PRO418     -0.2102
     43  CA        26.0180   35.8290   15.8330 C.3   418  PRO418      0.1504
     44  C         27.2380   36.6700   15.4340 C.2   418  PRO418      0.2575
     45  O         28.2270   36.0880   14.9990 O.2   418  PRO418     -0.2718
     46  CB        25.3550   35.2480   14.5780 C.3   418  PRO418      0.0282
     47  CG        24.3170   36.2720   14.2200 C.3   418  PRO418      0.0208
     48  CD        23.8210   36.8560   15.5290 C.3   418  PRO418      0.0893
     49  N         27.1760   37.9920   15.5740 N.am  419  ARG419     -0.1980
     50  CA        28.2680   38.8600   15.1340 C.3   419  ARG419      0.1597
     51  C         29.1200   39.3690   16.2950 C.2   419  ARG419      0.2287
     52  O         28.5840   39.7730   17.3260 O.2   419  ARG419     -0.2864
     53  CB        27.7040   40.0880   14.4070 C.3   419  ARG419      0.0334
     54  CG        26.8530   39.7810   13.1950 C.3   419  ARG419      0.0492
     55  CD        27.7190   39.5010   11.9580 C.3   419  ARG419      0.2205
     56  NE        28.2420   38.1390   11.9320 N.pl3 419  ARG419     -0.0865
     57  CZ        27.5190   37.0730   11.5990 C.cat 419  ARG419      0.5346
     58  NH1       26.2450   37.2240   11.2640 N.pl3 419  ARG419      0.1354
     59  NH2       28.0660   35.8590   11.5920 N.pl3 419  ARG419      0.1354
     60  N         41.7400   31.3670   10.6330 N.3   444  LYS444     -0.1245
     61  CA        40.4620   30.7700   11.0180 C.3   444  LYS444      0.1561
     62  C         40.1230   29.5190   10.2240 C.2   444  LYS444      0.2260
     63  O         39.1460   28.8430   10.5250 O.2   444  LYS444     -0.2867
     64  CB        39.3150   31.7890   10.9220 C.3   444  LYS444      0.0271
     65  CG        39.3110   32.8240   12.0510 C.3   444  LYS444      0.0035
     66  CD        38.2320   33.8980   11.8820 C.3   444  LYS444      0.0206
     67  CE        36.8620   33.3930   12.2870 C.3   444  LYS444      0.1093
     68  NZ        35.8850   34.4980   12.5010 N.3   444  LYS444     -0.1314
     69  N         39.1280   28.9540    6.8150 N.3   446  ARG446     -0.1245
     70  CA        37.8540   29.0310    6.1110 C.3   446  ARG446      0.1563
     71  C         38.0190   28.9370    4.5970 C.2   446  ARG446      0.2260
     72  O         39.1160   29.0780    4.0580 O.2   446  ARG446     -0.2867
     73  CB        37.1400   30.3460    6.4390 C.3   446  ARG446      0.0307
     74  CG        37.2920   30.7940    7.8730 C.3   446  ARG446      0.0489
     75  CD        36.2570   31.8500    8.2340 C.3   446  ARG446      0.2205
     76  NE        36.2530   32.9420    7.2740 N.pl3 446  ARG446     -0.0865
     77  CZ        35.3600   33.9250    7.2620 C.cat 446  ARG446      0.5346
     78  NH1       34.3930   33.9470    8.1680 N.pl3 446  ARG446      0.1354
     79  NH2       35.4320   34.8780    6.3330 N.pl3 446  ARG446      0.1354
     80  N         35.0540   33.2180    1.2290 N.3   450  ARG450     -0.1231
     81  CA        34.2570   33.9050    2.2490 C.3   450  ARG450      0.1679
     82  C         34.8040   35.2880    2.5940 C.2   450  ARG450      0.2434
     83  O         35.9990   35.4540    2.8420 O.2   450  ARG450     -0.2733
     84  CB        34.0700   33.0150    3.4770 C.3   450  ARG450      0.0321
     85  CG        33.1530   31.8500    3.1400 C.3   450  ARG450      0.0489
     86  CD        33.0710   30.8410    4.2400 C.3   450  ARG450      0.2205
     87  NE        32.5250   31.4130    5.4680 N.pl3 450  ARG450     -0.0865
     88  CZ        32.7100   30.8600    6.6600 C.cat 450  ARG450      0.5346
     89  NH1       33.4360   29.7490    6.7550 N.pl3 450  ARG450      0.1354
     90  NH2       32.2010   31.4220    7.7470 N.pl3 450  ARG450      0.1354
     91  N         33.9310   36.2960    2.5680 N.am  451  PRO451     -0.2718
     92  CA        34.3520   37.6910    2.7640 C.3   451  PRO451      0.1535
     93  C         34.4160   38.0680    4.2480 C.2   451  PRO451      0.2598
     94  O         33.8450   37.3700    5.0820 O.2   451  PRO451     -0.2715
     95  CB        33.2310   38.4820    2.0790 C.3   451  PRO451      0.0310
     96  CG        31.9980   37.6350    2.3440 C.3   451  PRO451      0.0237
     97  CD        32.4810   36.1820    2.3150 C.3   451  PRO451      0.0939
     98  N         35.1260   39.1500    4.5550 N.am  452  PHE452     -0.1974
     99  CA        35.1570   39.7300    5.8860 C.3   452  PHE452      0.1639
    100  C         34.4710   41.0920    5.8680 C.2   452  PHE452      0.2290
    101  O         34.1870   41.6440    4.7880 O.2   452  PHE452     -0.2864
    102  CB        36.5970   39.8660    6.3830 C.3   452  PHE452      0.0560
    103  CG        37.2590   38.5480    6.6830 C.ar  452  PHE452     -0.0200
    104  CD1       36.9060   37.8250    7.8140 C.ar  452  PHE452     -0.0042
    105  CD2       38.2220   38.0290    5.8340 C.ar  452  PHE452     -0.0042
    106  CE1       37.5000   36.6150    8.1040 C.ar  452  PHE452     -0.0003
    107  CE2       38.8290   36.8100    6.1130 C.ar  452  PHE452     -0.0003
    108  CZ        38.4630   36.0990    7.2510 C.ar  452  PHE452     -0.0000
    109  N         24.0800   44.7020    4.6530 N.3   477  THR477     -0.1218
    110  CA        25.2000   45.0300    3.7900 C.3   477  THR477      0.1862
    111  C         24.8950   46.3470    3.1150 C.2   477  THR477      0.2287
    112  O         23.7470   46.7890    3.0910 O.2   477  THR477     -0.2866
    113  CB        25.4550   43.9420    2.7450 C.3   477  THR477      0.1770
    114  OG1       24.2810   43.7740    1.9490 O.3   477  THR477     -0.2211
    115  CG2       25.7890   42.6170    3.4390 C.3   477  THR477      0.0375
    116  N         33.4900   42.6860   -0.6150 N.3   493  HIS493     -0.1241
    117  CA        33.0840   41.4070   -1.1660 C.3   493  HIS493      0.1621
    118  C         33.1730   41.4230   -2.6990 C.2   493  HIS493      0.2264
    119  O         33.4820   42.4510   -3.3050 O.2   493  HIS493     -0.2867
    120  CB        31.6730   41.0500   -0.6820 C.3   493  HIS493      0.0745
    121  CG        31.3010   39.6140   -0.8970 C.ar  493  HIS493      0.0817
    122  ND1       32.2380   38.6150   -1.0580 N.ar  493  HIS493     -0.2268
    123  CD2       30.0920   39.0100   -0.9890 C.ar  493  HIS493      0.1154
    124  CE1       31.6240   37.4580   -1.2340 C.ar  493  HIS493      0.1986
    125  NE2       30.3210   37.6690   -1.1960 N.ar  493  HIS493     -0.2212
    126  N         30.1080   44.8680   -2.0480 N.3   497  SER497     -0.1202
    127  CA        29.3020   44.9750   -0.8490 C.3   497  SER497      0.2020
    128  C         30.1910   44.8430    0.3880 C.2   497  SER497      0.2619
    129  O         31.2660   44.2210    0.3500 O.2   497  SER497     -0.2717
    130  CB        28.2100   43.8990   -0.8320 C.3   497  SER497      0.2103
    131  OG        28.7330   42.6230   -0.4780 O.3   497  SER497     -0.2182
    132  N         29.7350   45.4400    1.4820 N.am  498  THR498     -0.1938
    133  CA        30.3370   45.2180    2.7850 C.3   498  THR498      0.2028
    134  C         29.2260   45.1610    3.8480 C.2   498  THR498      0.2642
    135  O         28.1270   45.6510    3.6200 O.2   498  THR498     -0.2714
    136  CB        31.4140   46.2900    3.1060 C.3   498  THR498      0.1808
    137  OG1       32.2340   45.8390    4.1880 O.3   498  THR498     -0.2208
    138  CG2       30.7750   47.6170    3.4520 C.3   498  THR498      0.0379
    139  N         29.5160   44.5360    4.9890 N.am  499  ARG499     -0.1977
    140  CA        28.5300   44.3040    6.0460 C.3   499  ARG499      0.1597
    141  C         29.0820   44.9820    7.3040 C.2   499  ARG499      0.2287
    142  O         29.6850   44.3330    8.1630 O.2   499  ARG499     -0.2864
    143  CB        28.3720   42.7940    6.2520 C.3   499  ARG499      0.0334
    144  CG        27.2130   42.3500    7.1170 C.3   499  ARG499      0.0492
    145  CD        27.5060   40.9710    7.7000 C.3   499  ARG499      0.2205
    146  NE        28.6950   40.9900    8.5610 N.pl3 499  ARG499     -0.0865
    147  CZ        29.3510   39.9100    8.9800 C.cat 499  ARG499      0.5346
    148  NH1       30.4200   40.0440    9.7550 N.pl3 499  ARG499      0.1354
    149  NH2       28.9440   38.6960    8.6370 N.pl3 499  ARG499      0.1354
    150  N         36.4100   40.3870   12.5170 N.3   530  THR530     -0.1203
    151  CA        35.7680   39.0850   12.3960 C.3   530  THR530      0.1994
    152  C         35.6570   38.4850   13.8010 C.2   530  THR530      0.2618
    153  O         36.3490   38.9170   14.7170 O.2   530  THR530     -0.2717
    154  CB        36.5490   38.1500   11.4320 C.3   530  THR530      0.1784
    155  OG1       35.7330   37.0300   11.0770 O.3   530  THR530     -0.2211
    156  CG2       37.8550   37.6720   12.0610 C.3   530  THR530      0.0376
    157  N         34.7930   37.5020   13.9930 N.am  531  SER531     -0.1951
    158  CA        34.6030   37.0020   15.3510 C.3   531  SER531      0.1924
    159  C         35.7750   36.1590   15.8590 C.2   531  SER531      0.2314
    160  O         36.4230   35.4210   15.1130 O.2   531  SER531     -0.2863
    161  CB        33.2980   36.2300   15.4850 C.3   531  SER531      0.2116
    162  OG        33.3710   35.0480   14.7350 O.3   531  SER531     -0.2180
    163  N         37.1490   33.3200   17.2070 N.3   533  ASN533     -0.1240
    164  CA        36.8730   31.8940   17.2870 C.3   533  ASN533      0.1653
    165  C         37.5070   31.2410   16.0800 C.2   533  ASN533      0.2266
    166  O         37.6800   31.8810   15.0380 O.2   533  ASN533     -0.2867
    167  CB        35.3660   31.5950   17.2650 C.3   533  ASN533      0.1155
    168  CG        34.6240   32.3690   16.1720 C.2   533  ASN533      0.2627
    169  OD1       34.1740   33.4860   16.4000 O.2   533  ASN533     -0.2716
    170  ND2       34.4950   31.7760   14.9940 N.am  533  ASN533     -0.0877
    171  N         37.1810   29.0570   12.9270 N.3   535  ARG535     -0.1231
    172  CA        36.0280   28.9080   12.0350 C.3   535  ARG535      0.1694
    173  C         35.1970   27.7540   12.5520 C.2   535  ARG535      0.2593
    174  O         35.7390   26.7050   12.9070 O.2   535  ARG535     -0.2718
    175  CB        36.4600   28.6120   10.5880 C.3   535  ARG535      0.0321
    176  CG        35.4170   28.9410    9.4960 C.3   535  ARG535      0.0489
    177  CD        34.2260   27.9890    9.4500 C.3   535  ARG535      0.2205
    178  NE        32.9710   28.6800    9.7560 N.pl3 535  ARG535     -0.0865
    179  CZ        31.7850   28.0830    9.8530 C.cat 535  ARG535      0.5346
    180  NH1       30.7030   28.8010   10.1410 N.pl3 535  ARG535      0.1354
    181  NH2       31.6790   26.7700    9.6630 N.pl3 535  ARG535      0.1354
    182  N         33.8850   27.9440   12.6050 N.am  536  GLY536     -0.1942
    183  CA        33.0080   26.8930   13.0820 C.3   536  GLY536      0.2014
    184  C         32.6590   26.9540   14.5590 C.2   536  GLY536      0.2638
    185  O         31.5010   26.7170   14.9110 O.2   536  GLY536     -0.2714
    186  N         33.6300   27.2560   15.4290 N.am  537  GLU537     -0.1977
    187  CA        33.3850   27.1980   16.8860 C.3   537  GLU537      0.1602
    188  C         32.6380   28.4370   17.3880 C.2   537  GLU537      0.2287
    189  O         32.7230   29.5040   16.7750 O.2   537  GLU537     -0.2864
    190  CB        34.6870   27.0120   17.6870 C.3   537  GLU537      0.0415
    191  CG        35.4070   28.3310   18.0130 C.3   537  GLU537      0.1163
    192  CD        36.3360   28.2620   19.2300 C.2   537  GLU537      0.3649
    193  OE1       35.9000   27.7780   20.3030 O.co2 537  GLU537     -0.2457
    194  OE2       37.5030   28.7090   19.1120 O.co2 537  GLU537     -0.2457
@<TRIPOS>BOND
     1   119   118    2
     2   118   117    1
     3   126   127    1
     4   124   125   ar
     5   124   122   ar
     6   125   123   ar
     7   117   120    1
     8   117   116    1
     9    34    33    2
    10   122   121   ar
    11   123   121   ar
    12   121   120    1
    13   127   130    1
    14   127   128    1
    15   130   131    1
    16    41    39    1
    17    33    32    1
    18    26    25    2
    19   129   128    2
    20   128   132   am
    21    39    40    1
    22    39    36    1
    23    25    24    1
    24    25    31   am
    25    38    37    2
    26    32    31    1
    27    80    81    1
    28    24    23    1
    29    24    27    1
    30   132   133    1
    31    37    36    1
    32    17    16    2
    33    36    35    1
    34   114   113    1
    35    95    96    1
    36    95    92    1
    37    81    82    1
    38    81    84    1
    39    97    96    1
    40    97    91    1
    41    28    27    1
    42    28    29    1
    43    91    82   am
    44    91    92    1
    45    82    83    2
    46    16    15    1
    47   113   115    1
    48   113   110    1
    49    92    93    1
    50   133   136    1
    51   133   134    1
    52   112   111    2
    53   136   138    1
    54   136   137    1
    55   111   110    1
    56    85    84    1
    57    85    86    1
    58   135   134    2
    59   110   109    1
    60   134   139   am
    61    29    30    1
    62    15    18    1
    63    15    14    1
    64    72    71    2
    65    18    19    1
    66    86    87    1
    67    93    98   am
    68    93    94    2
    69    13    12    2
    70    98    99    1
    71    71    70    1
    72   101   100    2
    73   139   140    1
    74    14    12   am
    75    12    11    1
    76    20    19    1
    77    20    21    1
    78    87    88    2
    79   105   107   ar
    80   105   103   ar
    81   100    99    1
    82    99   102    1
    83   140   143    1
    84   140   141    1
    85    70    73    1
    86    70    69    1
    87   107   108   ar
    88    22    21    1
    89    11    10    1
    90   143   144    1
    91    79    77    1
    92   102   103    1
    93    73    74    1
    94    88    89    1
    95    88    90    1
    96   103   104   ar
    97   144   145    1
    98   108   106   ar
    99    77    76    2
   100    77    78    1
   101    76    75    1
   102   141   142    2
   103   145   146    1
   104   104   106   ar
   105    74    75    1
   106   146   147    2
   107   149   147    1
   108   147   148    1
   109   177   176    1
   110   177   178    1
   111   176   175    1
   112   181   179    1
   113   178   179    2
   114   179   180    1
   115    62    63    2
   116    62    61    1
   117   175   172    1
   118    60    61    1
   119    64    61    1
   120    64    65    1
   121   155   154    1
   122    58    57    1
   123   154   156    1
   124   154   151    1
   125    59    57    1
   126    57    56    2
   127    66    65    1
   128    66    67    1
   129    56    55    1
   130    55    54    1
   131   172   173    1
   132   172   171    1
   133    67    68    1
   134   151   150    1
   135   151   152    1
   136   173   182   am
   137   173   174    2
   138   182   183    1
   139   183   184    1
   140    54    53    1
   141   152   157   am
   142   152   153    2
   143   157   158    1
   144    47    46    1
   145    47    48    1
   146    53    50    1
   147   184   185    2
   148   184   186   am
   149    46    43    1
   150   162   161    1
   151   170   168   am
   152    45    44    2
   153   166   165    2
   154   160   159    2
   155     8     7    1
   156     8     9    1
   157    50    49    1
   158    50    51    1
   159   158   161    1
   160   158   159    1
   161   186   187    1
   162    44    49   am
   163    44    43    1
   164    48    42    1
   165     7     6    1
   166    43    42    1
   167   165   164    1
   168   168   169    2
   169   168   167    1
   170    51    52    2
   171   189   188    2
   172   187   188    1
   173   187   190    1
   174     6     5    1
   175   163   164    1
   176   167   164    1
   177     5     2    1
   178   190   191    1
   179   191   192    1
   180     4     3    2
   181     3     2    1
   182     2     1    1
   183   194   192   ar
   184   192   193   ar
