@<TRIPOS>MOLECULE
tmp/3vetA03.pdb
 165 163 0 0 0
SMALL
GASTEIGER

@<TRIPOS>ATOM
      1  N         14.0110   18.6160   20.4020 N.3    13  ASP13      -0.1225
      2  CA        14.1900   19.1960   19.0560 C.3    13  ASP13       0.1805
      3  C         14.1520   20.7260   19.0250 C.2    13  ASP13       0.2598
      4  O         13.2310   21.3250   18.4700 O.2    13  ASP13      -0.2718
      5  CB        13.1690   18.6190   18.0570 C.3    13  ASP13       0.1424
      6  CG        13.3590   19.1670   16.6270 C.2    13  ASP13       0.3668
      7  OD1       12.4030   19.1010   15.8240 O.co2  13  ASP13      -0.2456
      8  OD2       14.4610   19.6710   16.3030 O.co2  13  ASP13      -0.2456
      9  N         15.1580   21.3490   19.6240 N.am   14  PHE14      -0.1962
     10  CA        15.1920   22.7970   19.7710 C.3    14  PHE14       0.1771
     11  C         16.6040   23.2820   19.5140 C.2    14  PHE14       0.2619
     12  O         17.5560   22.5020   19.5670 O.2    14  PHE14      -0.2715
     13  CB        14.7580   23.2010   21.1880 C.3    14  PHE14       0.0574
     14  CG        13.4780   23.9740   21.2280 C.ar   14  PHE14      -0.0200
     15  CD1       12.2640   23.3380   20.9970 C.ar   14  PHE14      -0.0042
     16  CD2       13.4860   25.3380   21.4910 C.ar   14  PHE14      -0.0042
     17  CE1       11.0730   24.0490   21.0220 C.ar   14  PHE14      -0.0003
     18  CE2       12.3040   26.0590   21.5170 C.ar   14  PHE14      -0.0003
     19  CZ        11.0940   25.4140   21.2830 C.ar   14  PHE14      -0.0000
     20  N         16.7320   24.5770   19.2500 N.am   15  HIS15      -0.1973
     21  CA        18.0160   25.1620   18.9160 C.3    15  HIS15       0.1656
     22  C         18.0450   26.5950   19.4260 C.2    15  HIS15       0.2291
     23  O         16.9970   27.1790   19.7250 O.2    15  HIS15      -0.2864
     24  CB        18.2280   25.1290   17.3900 C.3    15  HIS15       0.0771
     25  CG        17.1880   25.8900   16.6240 C.ar   15  HIS15       0.0820
     26  ND1       17.3390   27.2160   16.2710 N.ar   15  HIS15      -0.2267
     27  CD2       15.9700   25.5150   16.1620 C.ar   15  HIS15       0.1154
     28  CE1       16.2630   27.6210   15.6160 C.ar   15  HIS15       0.1986
     29  NE2       15.4170   26.6080   15.5360 N.ar   15  HIS15      -0.2212
     30  N         21.6970   23.3670   20.9450 N.3    43  TYR43      -0.1241
     31  CA        20.6830   22.3680   20.6070 C.3    43  TYR43       0.1605
     32  C         20.0800   21.6580   21.8100 C.2    43  TYR43       0.2264
     33  O         20.7790   21.3420   22.7660 O.2    43  TYR43      -0.2867
     34  CB        21.2940   21.2840   19.7080 C.3    43  TYR43       0.0534
     35  CG        21.6110   21.7270   18.2930 C.ar   43  TYR43      -0.0201
     36  CD1       20.6450   22.3350   17.4990 C.ar   43  TYR43      -0.0009
     37  CD2       22.8790   21.5210   17.7480 C.ar   43  TYR43      -0.0009
     38  CE1       20.9310   22.7350   16.2010 C.ar   43  TYR43       0.0417
     39  CE2       23.1770   21.9170   16.4550 C.ar   43  TYR43       0.0417
     40  CZ        22.2010   22.5250   15.6850 C.ar   43  TYR43       0.1957
     41  OH        22.4970   22.9170   14.3950 O.3    43  TYR43      -0.2866
     42  N          7.8550   30.6070   22.6630 N.3    72  TRP72      -0.1241
     43  CA         7.0310   29.7860   21.7740 C.3    72  TRP72       0.1605
     44  C          5.7370   29.5000   22.5250 C.2    72  TRP72       0.2264
     45  O          5.7460   29.4440   23.7480 O.2    72  TRP72      -0.2867
     46  CB         7.6940   28.4320   21.4780 C.3    72  TRP72       0.0550
     47  CG         8.9390   28.4550   20.6140 C.ar   72  TRP72       0.0003
     48  CD1       10.1820   28.8550   20.9890 C.ar   72  TRP72       0.0946
     49  CD2        9.0570   28.0040   19.2460 C.ar   72  TRP72       0.0152
     50  NE1       11.0630   28.7140   19.9400 N.ar   72  TRP72      -0.2442
     51  CE2       10.4030   28.1850   18.8640 C.ar   72  TRP72       0.0810
     52  CE3        8.1520   27.4840   18.3100 C.ar   72  TRP72       0.0012
     53  CZ2       10.8750   27.8650   17.5820 C.ar   72  TRP72       0.0191
     54  CZ3        8.6210   27.1570   17.0320 C.ar   72  TRP72       0.0001
     55  CH2        9.9740   27.3550   16.6830 C.ar   72  TRP72       0.0015
     56  N         12.2440   29.8310    9.7390 N.3   139  GLY139     -0.1210
     57  CA        12.0160   28.4730    9.2780 C.3   139  GLY139      0.1956
     58  C         10.5520   28.1530    9.5030 C.2   139  GLY139      0.2611
     59  O          9.7980   27.9610    8.5490 O.2   139  GLY139     -0.2717
     60  N         10.1460   28.1180   10.7720 N.am  140  GLN140     -0.1979
     61  CA         8.7440   27.9270   11.1190 C.3   140  GLN140      0.1601
     62  C          8.5170   28.1490   12.6060 C.2   140  GLN140      0.2287
     63  O          9.2930   27.6690   13.4260 O.2   140  GLN140     -0.2864
     64  CB         8.2940   26.5180   10.7310 C.3   140  GLN140      0.0394
     65  CG         6.7900   26.2690   10.8410 C.3   140  GLN140      0.0908
     66  CD         6.3910   24.8710   10.3630 C.2   140  GLN140      0.2608
     67  OE1        7.2330   24.0790    9.9330 O.2   140  GLN140     -0.2717
     68  NE2        5.1080   24.5680   10.4430 N.am  140  GLN140     -0.0878
     69  N         13.2920   27.2770    5.3670 N.3   170  PHE170     -0.1241
     70  CA        13.5390   25.8810    5.0140 C.3   170  PHE170      0.1605
     71  C         14.1550   25.7860    3.6080 C.2   170  PHE170      0.2264
     72  O         15.1630   25.1010    3.3960 O.2   170  PHE170     -0.2867
     73  CB        12.2450   25.0580    5.1230 C.3   170  PHE170      0.0534
     74  CG        11.7820   24.8190    6.5530 C.ar  170  PHE170     -0.0203
     75  CD1       12.6520   24.9850    7.6160 C.ar  170  PHE170     -0.0042
     76  CD2       10.4740   24.4300    6.8210 C.ar  170  PHE170     -0.0042
     77  CE1       12.2300   24.7620    8.9380 C.ar  170  PHE170     -0.0003
     78  CE2       10.0400   24.2030    8.1280 C.ar  170  PHE170     -0.0003
     79  CZ        10.9210   24.3720    9.1910 C.ar  170  PHE170     -0.0000
     80  N         17.8000   26.8290    3.6800 N.3   173  GLU173     -0.1245
     81  CA        18.5190   25.8220    4.4410 C.3   173  GLU173      0.1567
     82  C         18.7370   24.5770    3.6000 C.2   173  GLU173      0.2260
     83  O         19.8120   23.9700    3.6100 O.2   173  GLU173     -0.2867
     84  CB        17.6460   25.4190    5.6250 C.3   173  GLU173      0.0388
     85  CG        18.3100   25.4240    6.9330 C.3   173  GLU173      0.1160
     86  CD        17.4270   24.8000    7.9750 C.2   173  GLU173      0.3649
     87  OE1       17.7550   23.6710    8.3820 O.co2 173  GLU173     -0.2457
     88  OE2       16.4020   25.4230    8.3490 O.co2 173  GLU173     -0.2457
     89  N         22.1410   22.8860    2.4150 N.3   177  GLU177     -0.1245
     90  CA        22.4610   21.4770    2.6260 C.3   177  GLU177      0.1567
     91  C         22.8430   20.8320    1.2770 C.2   177  GLU177      0.2260
     92  O         23.8400   20.1180    1.1680 O.2   177  GLU177     -0.2867
     93  CB        21.2480   20.7580    3.2360 C.3   177  GLU177      0.0388
     94  CG        21.4720   19.2830    3.5290 C.3   177  GLU177      0.1160
     95  CD        22.3740   19.0570    4.7440 C.2   177  GLU177      0.3649
     96  OE1       22.7350   20.0460    5.4170 O.co2 177  GLU177     -0.2457
     97  OE2       22.7230   17.8980    5.0220 O.co2 177  GLU177     -0.2457
     98  N         22.9700   22.5950    5.9950 N.3   183  GLY183     -0.1210
     99  CA        21.7710   23.3230    6.3760 C.3   183  GLY183      0.1956
    100  C         21.9940   24.2390    7.5760 C.2   183  GLY183      0.2611
    101  O         21.2530   25.2040    7.7930 O.2   183  GLY183     -0.2717
    102  N         23.0230   23.9310    8.3590 N.am  184  ASP184     -0.1973
    103  CA        23.3370   24.6930    9.5630 C.3   184  ASP184      0.1709
    104  C         24.2420   25.8850    9.2630 C.2   184  ASP184      0.2293
    105  O         24.6080   26.6310   10.1690 O.2   184  ASP184     -0.2864
    106  CB        23.9400   23.7770   10.6650 C.3   184  ASP184      0.1436
    107  CG        25.1250   22.9320   10.1720 C.2   184  ASP184      0.3671
    108  OD1       25.2650   22.6830    8.9410 O.co2 184  ASP184     -0.2456
    109  OD2       25.9170   22.4900   11.0350 O.co2 184  ASP184     -0.2456
    110  N          6.6190   17.6040   14.2730 N.3   228  TRP228     -0.1227
    111  CA         5.8720   18.7840   14.7110 C.3   228  TRP228      0.1737
    112  C          6.1850   20.0580   13.9300 C.2   228  TRP228      0.2595
    113  O          5.7340   21.1380   14.2920 O.2   228  TRP228     -0.2718
    114  CB         6.0180   19.0200   16.2160 C.3   228  TRP228      0.0564
    115  CG         7.3670   19.4850   16.6500 C.ar  228  TRP228      0.0003
    116  CD1        8.4750   19.6440   15.8690 C.ar  228  TRP228      0.0946
    117  CD2        7.7530   19.8590   17.9810 C.ar  228  TRP228      0.0152
    118  NE1        9.5280   20.0950   16.6320 N.ar  228  TRP228     -0.2442
    119  CE2        9.1130   20.2340   17.9310 C.ar  228  TRP228      0.0810
    120  CE3        7.0800   19.9100   19.2070 C.ar  228  TRP228      0.0012
    121  CZ2        9.8180   20.6510   19.0640 C.ar  228  TRP228      0.0191
    122  CZ3        7.7800   20.3280   20.3360 C.ar  228  TRP228      0.0001
    123  CH2        9.1360   20.6940   20.2540 C.ar  228  TRP228      0.0015
    124  N          6.9670   19.9370   12.8680 N.am  229  ASP229     -0.1974
    125  CA         7.0260   20.9990   11.8640 C.3   229  ASP229      0.1709
    126  C          7.2810   20.4110   10.4910 C.2   229  ASP229      0.2293
    127  O          7.4780   19.2020   10.3550 O.2   229  ASP229     -0.2864
    128  CB         8.0390   22.1000   12.2100 C.3   229  ASP229      0.1436
    129  CG         9.4680   21.5930   12.3000 C.2   229  ASP229      0.3671
    130  OD1        9.7950   20.5590   11.6810 O.co2 229  ASP229     -0.2456
    131  OD2       10.2730   22.2510   12.9920 O.co2 229  ASP229     -0.2456
    132  N          9.7570   20.7340    8.3900 N.3   231  TYR231     -0.1241
    133  CA        11.1480   20.6650    7.9410 C.3   231  TYR231      0.1605
    134  C         11.3890   19.4930    6.9870 C.2   231  TYR231      0.2264
    135  O         11.9180   19.6710    5.8800 O.2   231  TYR231     -0.2867
    136  CB        12.1110   20.5850    9.1390 C.3   231  TYR231      0.0534
    137  CG        13.5740   20.5560    8.7490 C.ar  231  TYR231     -0.0201
    138  CD1       14.2620   21.7320    8.4830 C.ar  231  TYR231     -0.0009
    139  CD2       14.2690   19.3530    8.6410 C.ar  231  TYR231     -0.0009
    140  CE1       15.5990   21.7160    8.1170 C.ar  231  TYR231      0.0417
    141  CE2       15.6090   19.3310    8.2770 C.ar  231  TYR231      0.0417
    142  CZ        16.2660   20.5170    8.0130 C.ar  231  TYR231      0.1957
    143  OH        17.5960   20.5140    7.6510 O.3   231  TYR231     -0.2866
    144  N         28.0680   14.2510    1.8410 N.3   253  PHE253     -0.1241
    145  CA        29.0700   14.3110    2.9020 C.3   253  PHE253      0.1605
    146  C         29.8720   13.0290    2.9840 C.2   253  PHE253      0.2264
    147  O         29.3430   11.9430    2.7950 O.2   253  PHE253     -0.2867
    148  CB        28.4200   14.7020    4.2310 C.3   253  PHE253      0.0534
    149  CG        27.8110   16.0610    4.1800 C.ar  253  PHE253     -0.0203
    150  CD1       28.6100   17.1940    4.3080 C.ar  253  PHE253     -0.0042
    151  CD2       26.4630   16.2180    3.9030 C.ar  253  PHE253     -0.0042
    152  CE1       28.0630   18.4590    4.2040 C.ar  253  PHE253     -0.0003
    153  CE2       25.9070   17.4790    3.8080 C.ar  253  PHE253     -0.0003
    154  CZ        26.7100   18.6030    3.9600 C.ar  253  PHE253     -0.0000
    155  N         34.6900   14.9620    8.6320 N.3   266  ARG266     -0.1245
    156  CA        33.6170   15.1190    7.6670 C.3   266  ARG266      0.1563
    157  C         34.0240   16.1130    6.5840 C.2   266  ARG266      0.2260
    158  O         34.5330   17.1910    6.8740 O.2   266  ARG266     -0.2867
    159  CB        32.3230   15.5600    8.3590 C.3   266  ARG266      0.0307
    160  CG        31.0850   15.4050    7.4790 C.3   266  ARG266      0.0489
    161  CD        29.8240   15.9370    8.1570 C.3   266  ARG266      0.2205
    162  NE        29.7240   17.3940    8.0760 N.pl3 266  ARG266     -0.0865
    163  CZ        28.5820   18.0610    7.9220 C.cat 266  ARG266      0.5346
    164  NH1       27.4310   17.4000    7.8310 N.pl3 266  ARG266      0.1354
    165  NH2       28.5870   19.3900    7.8520 N.pl3 266  ARG266      0.1354
@<TRIPOS>BOND
     1    92    91    2
     2    91    90    1
     3   144   145    1
     4    89    90    1
     5    90    93    1
     6   147   146    2
     7   145   146    1
     8   145   148    1
     9    93    94    1
    10    72    71    2
    11    94    95    1
    12    82    83    2
    13    82    81    1
    14    71    70    1
    15    80    81    1
    16   153   151   ar
    17   153   154   ar
    18   151   149   ar
    19   154   152   ar
    20   149   148    1
    21   149   150   ar
    22   152   150   ar
    23    81    84    1
    24    95    97   ar
    25    95    96   ar
    26    70    73    1
    27    70    69    1
    28    73    74    1
    29    84    85    1
    30   135   134    2
    31    98    99    1
    32    99   100    1
    33    74    76   ar
    34    74    75   ar
    35   157   158    2
    36   157   156    1
    37    76    78   ar
    38    85    86    1
    39   134   133    1
    40   160   161    1
    41   160   159    1
    42   100   101    2
    43   100   102   am
    44    75    77   ar
    45   143   142    1
    46   156   159    1
    47   156   155    1
    48   164   163    1
    49   165   163    1
    50   163   162    2
    51   133   132    1
    52   133   136    1
    53    86    88   ar
    54    86    87   ar
    55   142   140   ar
    56   142   141   ar
    57   162   161    1
    58   140   138   ar
    59    78    79   ar
    60   141   139   ar
    61   102   103    1
    62   138   137   ar
    63    59    58    2
    64   139   137   ar
    65   137   136    1
    66    77    79   ar
    67   108   107   ar
    68   104   103    1
    69   104   105    2
    70    57    58    1
    71    57    56    1
    72    58    60   am
    73   103   106    1
    74    67    66    2
    75   107   106    1
    76   107   109   ar
    77   127   126    2
    78    66    68   am
    79    66    65    1
    80   126   125    1
    81    64    65    1
    82    64    61    1
    83    60    61    1
    84    61    62    1
    85   130   129   ar
    86   125   128    1
    87   125   124    1
    88   128   129    1
    89   129   131   ar
    90    62    63    2
    91   124   112   am
    92   112   113    2
    93   112   111    1
    94   110   111    1
    95    41    40    1
    96   111   114    1
    97    29    28   ar
    98    29    27   ar
    99    28    26   ar
   100    40    38   ar
   101    40    39   ar
   102     7     6   ar
   103   116   118   ar
   104   116   115   ar
   105    27    25   ar
   106    38    36   ar
   107   114   115    1
   108    26    25   ar
   109     8     6   ar
   110    39    37   ar
   111    25    24    1
   112     6     5    1
   113   118   119   ar
   114   115   117   ar
   115    55    54   ar
   116    55    53   ar
   117    54    52   ar
   118    24    21    1
   119    36    35   ar
   120    53    51   ar
   121    37    35   ar
   122   119   117   ar
   123   119   121   ar
   124   117   120   ar
   125     5     2    1
   126    35    34    1
   127    52    49   ar
   128     4     3    2
   129    51    49   ar
   130    51    50   ar
   131    21    20    1
   132    21    22    1
   133     3     2    1
   134     3     9   am
   135     2     1    1
   136   121   123   ar
   137   120   122   ar
   138    49    47   ar
   139    20    11   am
   140    22    23    2
   141    11    12    2
   142    11    10    1
   143     9    10    1
   144    34    31    1
   145    10    13    1
   146    50    48   ar
   147   123   122   ar
   148    31    30    1
   149    31    32    1
   150    47    48   ar
   151    47    46    1
   152    15    17   ar
   153    15    14   ar
   154    17    19   ar
   155    13    14    1
   156    14    16   ar
   157    19    18   ar
   158    46    43    1
   159    16    18   ar
   160    43    44    1
   161    43    42    1
   162    32    33    2
   163    44    45    2
