@<TRIPOS>MOLECULE
tmp/3vevA01.pdb
 166 162 0 0 0
SMALL
GASTEIGER

@<TRIPOS>ATOM
      1  N        -15.3460   -4.3810   24.1260 N.3    58  TYR58      -0.1227
      2  CA       -13.9330   -4.4520   24.5410 C.3    58  TYR58       0.1736
      3  C        -13.0280   -3.4760   23.7910 C.2    58  TYR58       0.2595
      4  O        -11.7970   -3.5680   23.8880 O.2    58  TYR58      -0.2718
      5  CB       -13.3970   -5.8980   24.5740 C.3    58  TYR58       0.0548
      6  CG       -14.0150   -6.6520   25.7250 C.ar   58  TYR58      -0.0200
      7  CD1      -13.4140   -6.6560   26.9870 C.ar   58  TYR58      -0.0009
      8  CD2      -15.2380   -7.3010   25.5810 C.ar   58  TYR58      -0.0009
      9  CE1      -14.0200   -7.2860   28.0730 C.ar   58  TYR58       0.0417
     10  CE2      -15.8400   -7.9550   26.6560 C.ar   58  TYR58       0.0417
     11  CZ       -15.2270   -7.9410   27.8990 C.ar   58  TYR58       0.1957
     12  OH       -15.8190   -8.5900   28.9550 O.3    58  TYR58      -0.2866
     13  N        -13.6390   -2.4750   23.1210 N.am   59  VAL59      -0.1966
     14  CA       -12.9080   -1.3710   22.4800 C.3    59  VAL59       0.1727
     15  C        -12.9980   -0.2650   23.5090 C.2    59  VAL59       0.2616
     16  O        -14.1050    0.1250   23.9010 O.2    59  VAL59      -0.2715
     17  CB       -13.5260   -0.9830   21.1000 C.3    59  VAL59       0.0290
     18  CG1      -13.0180    0.3750   20.6230 C.3    59  VAL59       0.0023
     19  CG2      -13.2440   -2.0610   20.0590 C.3    59  VAL59       0.0023
     20  N        -11.8400    0.2350   23.9600 N.am   60  ARG60      -0.1963
     21  CA       -11.7120    1.2080   25.0480 C.3    60  ARG60       0.1729
     22  C        -11.0340    2.5060   24.6200 C.2    60  ARG60       0.2617
     23  O        -10.3280    2.5440   23.6140 O.2    60  ARG60      -0.2715
     24  CB       -10.8890    0.5900   26.2140 C.3    60  ARG60       0.0348
     25  CG       -11.4140   -0.7380   26.7610 C.3    60  ARG60       0.0492
     26  CD       -10.4480   -1.3520   27.7560 C.3    60  ARG60       0.2205
     27  NE       -10.8720   -2.6920   28.1680 N.pl3  60  ARG60      -0.0865
     28  CZ       -11.4150   -2.9760   29.3440 C.cat  60  ARG60       0.5346
     29  NH1      -11.6100   -2.0180   30.2420 N.pl3  60  ARG60       0.1354
     30  NH2      -11.7760   -4.2170   29.6310 N.pl3  60  ARG60       0.1354
     31  N        -11.2090    3.5560   25.4310 N.am   61  SER61      -0.1936
     32  CA       -10.5830    4.8570   25.2280 C.3    61  SER61       0.2055
     33  C         -9.1760    4.6290   25.8210 C.2    61  SER61       0.2644
     34  O         -9.0360    3.8250   26.7510 O.2    61  SER61      -0.2714
     35  CB       -11.3110    5.9150   26.0530 C.3    61  SER61       0.2130
     36  OG       -11.3800    5.5240   27.4160 O.3    61  SER61      -0.2179
     37  N         -8.1530    5.3120   25.3100 N.am   62  THR62      -0.1937
     38  CA        -6.7820    5.1900   25.8390 C.3    62  THR62       0.2013
     39  C         -6.3120    3.7000   25.9120 C.2    62  THR62       0.2484
     40  O         -6.0860    3.1830   27.0130 O.2    62  THR62      -0.2729
     41  CB        -6.6490    5.9610   27.1810 C.3    62  THR62       0.1807
     42  OG1       -7.4760    7.1280   27.1420 O.3    62  THR62      -0.2208
     43  CG2       -5.2100    6.3460   27.5000 C.3    62  THR62       0.0379
     44  N         -6.1940    2.9870   24.7670 N.am   63  PRO63      -0.2726
     45  CA        -5.7530    1.5790   24.8200 C.3    63  PRO63       0.1402
     46  C         -4.2570    1.3820   25.1130 C.2    63  PRO63       0.2269
     47  O         -3.8320    0.2530   25.3970 O.2    63  PRO63      -0.2865
     48  CB        -6.1300    1.0610   23.4400 C.3    63  PRO63       0.0296
     49  CG        -5.9820    2.2410   22.5520 C.3    63  PRO63       0.0237
     50  CD        -6.4190    3.4210   23.3720 C.3    63  PRO63       0.0939
     51  N        -14.0710  -11.0500   25.1870 N.3   150  ASP150     -0.1225
     52  CA       -12.8910  -10.1990   24.9840 C.3   150  ASP150      0.1805
     53  C        -12.9220   -9.7440   23.5270 C.2   150  ASP150      0.2597
     54  O        -13.8540  -10.0860   22.8010 O.2   150  ASP150     -0.2718
     55  CB       -11.5900  -11.0010   25.2630 C.3   150  ASP150      0.1424
     56  CG       -10.3660  -10.1910   25.6570 C.2   150  ASP150      0.3668
     57  OD1       -9.4320  -10.7800   26.2450 O.co2 150  ASP150     -0.2456
     58  OD2      -10.3260   -8.9760   25.3560 O.co2 150  ASP150     -0.2456
     59  N        -11.9410   -8.9450   23.1220 N.am  151  ILE151     -0.1980
     60  CA       -11.8390   -8.4270   21.7580 C.3   151  ILE151      0.1595
     61  C        -11.7780   -9.5000   20.6660 C.2   151  ILE151      0.2287
     62  O        -12.1920   -9.2370   19.5390 O.2   151  ILE151     -0.2864
     63  CB       -10.6580   -7.4040   21.6380 C.3   151  ILE151      0.0276
     64  CG1      -10.7590   -6.5410   20.3470 C.3   151  ILE151      0.0022
     65  CG2       -9.2510   -8.0630   21.7740 C.3   151  ILE151      0.0022
     66  CD1      -11.9080   -5.5280   20.3780 C.3   151  ILE151      0.0001
     67  N        -17.0560    3.9590   13.5660 N.3   202  MET202     -0.1230
     68  CA       -16.7000    4.9560   14.5610 C.3   202  MET202      0.1702
     69  C        -15.1790    5.1240   14.5920 C.2   202  MET202      0.2592
     70  O        -14.6960    6.2550   14.6660 O.2   202  MET202     -0.2718
     71  CB       -17.2090    4.5160   15.9420 C.3   202  MET202      0.0401
     72  CG       -16.9280    5.5230   17.0340 C.3   202  MET202      0.0596
     73  SD       -17.2720    4.8530   18.6880 S.3   202  MET202     -0.1393
     74  CE       -16.0400    3.5790   18.8030 C.3   202  MET202      0.0692
     75  N        -14.4250    4.0030   14.5960 N.am  203  ILE203     -0.1980
     76  CA       -12.9430    4.0720   14.6860 C.3   203  ILE203      0.1595
     77  C        -12.2930    4.7090   13.4640 C.2   203  ILE203      0.2287
     78  O        -11.3810    5.5450   13.6210 O.2   203  ILE203     -0.2864
     79  CB       -12.3390    2.6860   15.0720 C.3   203  ILE203      0.0276
     80  CG1      -12.8380    2.2810   16.4670 C.3   203  ILE203      0.0022
     81  CG2      -10.7700    2.6790   15.0440 C.3   203  ILE203      0.0022
     82  CD1      -12.6830    0.8530   16.7510 C.3   203  ILE203      0.0001
     83  N        -13.0650    8.3230   13.8840 N.3   206  TYR206     -0.1227
     84  CA       -12.2970    8.8340   15.0200 C.3   206  TYR206      0.1736
     85  C        -10.8840    9.1720   14.5280 C.2   206  TYR206      0.2595
     86  O        -10.3410   10.1980   14.9060 O.2   206  TYR206     -0.2718
     87  CB       -12.2250    7.8200   16.1800 C.3   206  TYR206      0.0548
     88  CG       -11.3080    8.2610   17.3100 C.ar  206  TYR206     -0.0200
     89  CD1      -11.7940    9.0130   18.3760 C.ar  206  TYR206     -0.0009
     90  CD2       -9.9600    7.9190   17.3150 C.ar  206  TYR206     -0.0009
     91  CE1      -10.9640    9.3940   19.4290 C.ar  206  TYR206      0.0417
     92  CE2       -9.1100    8.3400   18.3320 C.ar  206  TYR206      0.0417
     93  CZ        -9.6180    9.0690   19.3930 C.ar  206  TYR206      0.1957
     94  OH        -8.7770    9.4570   20.4030 O.3   206  TYR206     -0.2866
     95  N        -10.3290    8.3270   13.6490 N.am  207  TYR207     -0.1976
     96  CA        -8.9920    8.5220   13.0480 C.3   207  TYR207      0.1639
     97  C         -8.8530    9.9280   12.3940 C.2   207  TYR207      0.2290
     98  O         -7.7760   10.5150   12.4620 O.2   207  TYR207     -0.2864
     99  CB        -8.7690    7.4070   12.0190 C.3   207  TYR207      0.0560
    100  CG        -7.4750    7.4800   11.2380 C.ar  207  TYR207     -0.0198
    101  CD1       -6.2820    7.0130   11.7830 C.ar  207  TYR207     -0.0009
    102  CD2       -7.4600    7.9180    9.9170 C.ar  207  TYR207     -0.0009
    103  CE1       -5.0950    7.0400   11.0560 C.ar  207  TYR207      0.0417
    104  CE2       -6.2790    7.9370    9.1730 C.ar  207  TYR207      0.0417
    105  CZ        -5.0980    7.4930    9.7470 C.ar  207  TYR207      0.1957
    106  OH        -3.9250    7.5170    9.0240 O.3   207  TYR207     -0.2866
    107  N        -11.0080   13.2750   16.4420 N.3   210  HIS210     -0.1241
    108  CA       -10.9710   12.6970   17.7930 C.3   210  HIS210      0.1621
    109  C        -12.2400   12.9200   18.6480 C.2   210  HIS210      0.2264
    110  O        -12.3520   12.3370   19.7260 O.2   210  HIS210     -0.2867
    111  CB        -9.6990   13.0880   18.5500 C.3   210  HIS210      0.0745
    112  CG        -8.4450   12.3910   18.1040 C.ar  210  HIS210      0.0817
    113  ND1       -8.4040   11.6070   16.9620 N.ar  210  HIS210     -0.2268
    114  CD2       -7.2160   12.3950   18.6750 C.ar  210  HIS210      0.1154
    115  CE1       -7.1640   11.1440   16.8860 C.ar  210  HIS210      0.1986
    116  NE2       -6.4120   11.5960   17.8940 N.ar  210  HIS210     -0.2212
    117  N        -15.1130   11.9710   17.4820 N.3   212  CYS212     -0.1221
    118  CA       -16.0410   10.9350   17.0690 C.3   212  CYS212      0.1808
    119  C        -16.1140    9.7820   18.0490 C.2   212  CYS212      0.2601
    120  O        -15.1950    8.9610   18.1060 O.2   212  CYS212     -0.2717
    121  CB       -15.7880   10.4500   15.6460 C.3   212  CYS212      0.0970
    122  SG       -16.9630    9.1730   15.1230 S.3   212  CYS212     -0.0800
    123  N        -17.2470    9.6990   18.7880 N.am  213  GLU213     -0.1979
    124  CA       -17.4770    8.6660   19.7970 C.3   213  GLU213      0.1602
    125  C        -18.7900    7.9460   19.6160 C.2   213  GLU213      0.2287
    126  O        -19.3210    7.3620   20.5680 O.2   213  GLU213     -0.2864
    127  CB       -17.3670    9.2630   21.1940 C.3   213  GLU213      0.0415
    128  CG       -15.9340    9.6460   21.5150 C.3   213  GLU213      0.1163
    129  CD       -15.8070   10.0750   22.9480 C.2   213  GLU213      0.3649
    130  OE1      -15.8430    9.1800   23.8220 O.co2 213  GLU213     -0.2457
    131  OE2      -15.8240   11.3040   23.2000 O.co2 213  GLU213     -0.2457
    132  N        -19.3620    5.4030   22.8780 N.3   227  MET227     -0.1245
    133  CA       -18.4300    5.2390   24.0110 C.3   227  MET227      0.1570
    134  C        -19.1670    5.4980   25.3290 C.2   227  MET227      0.2261
    135  O        -19.5000    6.6350   25.6510 O.2   227  MET227     -0.2867
    136  CB       -17.2310    6.2030   23.8920 C.3   227  MET227      0.0387
    137  CG       -16.3380    5.9310   22.6950 C.3   227  MET227      0.0595
    138  SD       -15.7030    4.2210   22.5470 S.3   227  MET227     -0.1393
    139  CE       -14.7200    4.0700   24.0660 C.3   227  MET227      0.0692
    140  N         -6.9420   -0.7890   12.9620 N.3   443  LEU443     -0.1231
    141  CA        -6.5020    0.0060   14.1190 C.3   443  LEU443      0.1693
    142  C         -6.7840   -0.7470   15.4060 C.2   443  LEU443      0.2591
    143  O         -5.9590   -0.7380   16.3190 O.2   443  LEU443     -0.2718
    144  CB        -7.1540    1.3990   14.1290 C.3   443  LEU443      0.0284
    145  CG        -6.6230    2.3770   13.0570 C.3   443  LEU443      0.0019
    146  CD1       -7.5840    3.5440   12.8530 C.3   443  LEU443      0.0001
    147  CD2       -5.2010    2.8720   13.4010 C.3   443  LEU443      0.0001
    148  N         -7.9330   -1.4470   15.4610 N.am  444  VAL444     -0.1980
    149  CA        -8.2880   -2.2920   16.6050 C.3   444  VAL444      0.1595
    150  C         -7.3150   -3.4820   16.6570 C.2   444  VAL444      0.2287
    151  O         -6.8070   -3.7960   17.7360 O.2   444  VAL444     -0.2864
    152  CB        -9.7510   -2.7850   16.5440 C.3   444  VAL444      0.0276
    153  CG1      -10.0570   -3.7550   17.6940 C.3   444  VAL444      0.0022
    154  CG2      -10.6990   -1.6220   16.6140 C.3   444  VAL444      0.0022
    155  N         -3.7440   -2.7180   18.1450 N.3   447  VAL447     -0.1231
    156  CA        -3.7690   -2.6490   19.6100 C.3   447  VAL447      0.1692
    157  C         -3.8880   -4.0650   20.1810 C.2   447  VAL447      0.2591
    158  O         -3.0850   -4.4450   21.0310 O.2   447  VAL447     -0.2718
    159  CB        -4.9090   -1.7240   20.1100 C.3   447  VAL447      0.0266
    160  CG1       -5.0640   -1.7980   21.6260 C.3   447  VAL447      0.0020
    161  CG2       -4.7020   -0.2820   19.6490 C.3   447  VAL447      0.0020
    162  N         -4.8810   -4.8470   19.6990 N.am  448  ALA448     -0.1980
    163  CA        -5.1420   -6.2170   20.1520 C.3   448  ALA448      0.1597
    164  C         -3.9350   -7.1500   20.0730 C.2   448  ALA448      0.2287
    165  O         -3.7580   -7.9800   20.9640 O.2   448  ALA448     -0.2864
    166  CB        -6.3090   -6.8100   19.3840 C.3   448  ALA448      0.0319
@<TRIPOS>BOND
     1   106   105    1
     2   104   105   ar
     3   104   102   ar
     4   105   103   ar
     5   102   100   ar
     6   103   101   ar
     7   100   101   ar
     8   100    99    1
     9    99    96    1
    10    97    98    2
    11    97    96    1
    12   146   145    1
    13   140   141    1
    14    96    95    1
    15   145   147    1
    16   145   144    1
    17    77    78    2
    18    77    76    1
    19    67    68    1
    20    95    85   am
    21    83    84    1
    22   141   144    1
    23   141   142    1
    24    85    86    2
    25    85    84    1
    26    68    69    1
    27    68    71    1
    28    69    75   am
    29    69    70    2
    30    75    76    1
    31    76    79    1
    32    84    87    1
    33    81    79    1
    34    79    80    1
    35   122   121    1
    36   142   148   am
    37   142   143    2
    38   148   149    1
    39   121   118    1
    40    71    72    1
    41    87    88    1
    42   107   108    1
    43    80    82    1
    44   152   149    1
    45   152   154    1
    46   152   153    1
    47   149   150    1
    48   150   151    2
    49   115   113   ar
    50   115   116   ar
    51   113   112   ar
    52    72    73    1
    53   118   117    1
    54   118   119    1
    55    88    90   ar
    56    88    89   ar
    57    90    92   ar
    58   108   111    1
    59   108   109    1
    60   116   114   ar
    61   119   120    2
    62   119   123   am
    63   112   111    1
    64   112   114   ar
    65   155   156    1
    66    92    93   ar
    67    89    91   ar
    68   109   110    2
    69    73    74    1
    70   123   124    1
    71   166   163    1
    72    93    91   ar
    73    93    94    1
    74    62    61    2
    75   156   159    1
    76   156   157    1
    77   125   124    1
    78   125   126    2
    79   161   159    1
    80   162   163    1
    81   162   157   am
    82   124   127    1
    83    19    17    1
    84   164   163    1
    85   164   165    2
    86   159   160    1
    87   157   158    2
    88    64    66    1
    89    64    63    1
    90    18    17    1
    91    61    60    1
    92    17    14    1
    93   127   128    1
    94   128   129    1
    95    63    60    1
    96    63    65    1
    97    60    59    1
    98    14    13    1
    99    14    15    1
   100   138   137    1
   101   138   139    1
   102    49    50    1
   103    49    48    1
   104   137   136    1
   105    54    53    2
   106   132   133    1
   107   129   131   ar
   108   129   130   ar
   109    13     3   am
   110    59    53   am
   111    50    44    1
   112    48    45    1
   113    15    16    2
   114    15    20   am
   115    53    52    1
   116    23    22    2
   117     3     4    2
   118     3     2    1
   119   136   133    1
   120    20    21    1
   121   133   134    1
   122     1     2    1
   123     2     5    1
   124     5     6    1
   125    22    21    1
   126    22    31   am
   127    44    45    1
   128    44    39   am
   129    45    46    1
   130    52    51    1
   131    52    55    1
   132    21    24    1
   133    46    47    2
   134    32    31    1
   135    32    33    1
   136    32    35    1
   137    55    56    1
   138    37    33   am
   139    37    38    1
   140   134   135    2
   141    58    56   ar
   142     8     6   ar
   143     8    10   ar
   144    56    57   ar
   145     6     7   ar
   146    33    34    2
   147    38    39    1
   148    38    41    1
   149    39    40    2
   150    35    36    1
   151    24    25    1
   152    10    11   ar
   153    25    26    1
   154     7     9   ar
   155    42    41    1
   156    41    43    1
   157    26    27    1
   158    11     9   ar
   159    11    12    1
   160    27    28    2
   161    28    30    1
   162    28    29    1
