@<TRIPOS>MOLECULE
tmp/3vexA00.pdb
 186 179 0 0 0
SMALL
GASTEIGER

@<TRIPOS>ATOM
      1  N         15.5530   23.6980   18.9840 N.3    14  ASN14      -0.1225
      2  CA        16.8590   24.3330   18.8240 C.3    14  ASN14       0.1785
      3  C         16.8170   25.7650   19.3330 C.2    14  ASN14       0.2597
      4  O         15.7610   26.2540   19.7250 O.2    14  ASN14      -0.2718
      5  CB        17.2720   24.3400   17.3560 C.3    14  ASN14       0.1169
      6  CG        16.1880   24.9020   16.4630 C.2    14  ASN14       0.2627
      7  OD1       15.8120   26.0690   16.5850 O.2    14  ASN14      -0.2716
      8  ND2       15.6620   24.0680   15.5690 N.am   14  ASN14      -0.0877
      9  N         17.9800   26.4130   19.3180 N.am   15  ASP15      -0.1974
     10  CA        18.1430   27.8250   19.6560 C.3    15  ASP15       0.1709
     11  C         17.6690   28.1750   21.0710 C.2    15  ASP15       0.2293
     12  O         17.0440   29.2110   21.3040 O.2    15  ASP15      -0.2864
     13  CB        17.5140   28.7160   18.5830 C.3    15  ASP15       0.1436
     14  CG        18.4040   28.8400   17.3260 C.2    15  ASP15       0.3671
     15  OD1       19.6360   28.6230   17.4240 O.co2  15  ASP15      -0.2456
     16  OD2       17.8770   29.1650   16.2450 O.co2  15  ASP15      -0.2456
     17  N          6.7870   29.7530   22.6850 N.3    71  TRP71      -0.1241
     18  CA         5.9660   28.9270   21.7950 C.3    71  TRP71       0.1605
     19  C          4.7270   28.5260   22.5850 C.2    71  TRP71       0.2264
     20  O          4.7760   28.4260   23.8120 O.2    71  TRP71      -0.2867
     21  CB         6.6690   27.6210   21.4280 C.3    71  TRP71       0.0550
     22  CG         7.9290   27.7120   20.6240 C.ar   71  TRP71       0.0003
     23  CD1        9.1480   28.1530   21.0480 C.ar   71  TRP71       0.0946
     24  CD2        8.1100   27.2650   19.2740 C.ar   71  TRP71       0.0152
     25  NE1       10.0710   28.0310   20.0360 N.ar   71  TRP71      -0.2442
     26  CE2        9.4570   27.4940   18.9350 C.ar   71  TRP71       0.0810
     27  CE3        7.2600   26.6960   18.3200 C.ar   71  TRP71       0.0012
     28  CZ2        9.9750   27.1890   17.6730 C.ar   71  TRP71       0.0191
     29  CZ3        7.7750   26.3940   17.0660 C.ar   71  TRP71       0.0001
     30  CH2        9.1210   26.6350   16.7580 C.ar   71  TRP71       0.0015
     31  N          4.2850   31.5920   19.1510 N.3   114  HIS114     -0.1241
     32  CA         5.6120   31.7710   18.5820 C.3   114  HIS114      0.1621
     33  C          5.7970   33.0570   17.7580 C.2   114  HIS114      0.2264
     34  O          6.7620   33.8020   17.9510 O.2   114  HIS114     -0.2867
     35  CB         5.9790   30.5550   17.7430 C.3   114  HIS114      0.0745
     36  CG         7.4110   30.5240   17.3440 C.ar  114  HIS114      0.0817
     37  ND1        8.4340   30.5200   18.2690 N.ar  114  HIS114     -0.2268
     38  CD2        8.0010   30.5250   16.1260 C.ar  114  HIS114      0.1154
     39  CE1        9.5930   30.4990   17.6350 C.ar  114  HIS114      0.1986
     40  NE2        9.3570   30.5140   16.3360 N.ar  114  HIS114     -0.2212
     41  N          8.1790   36.4380   18.3090 N.3   118  HIS118     -0.1241
     42  CA         9.0600   37.0230   17.2980 C.3   118  HIS118      0.1621
     43  C          8.7120   38.5040   17.1180 C.2   118  HIS118      0.2264
     44  O          9.5900   39.3560   17.1470 O.2   118  HIS118     -0.2867
     45  CB         8.8990   36.3010   15.9540 C.3   118  HIS118      0.0745
     46  CG         9.7970   35.1090   15.7660 C.ar  118  HIS118      0.0817
     47  ND1       11.1330   35.1090   16.1110 N.ar  118  HIS118     -0.2268
     48  CD2        9.5520   33.8920   15.2210 C.ar  118  HIS118      0.1154
     49  CE1       11.6710   33.9450   15.7920 C.ar  118  HIS118      0.1986
     50  NE2       10.7330   33.1860   15.2530 N.ar  118  HIS118     -0.2212
     51  N          9.6370   32.8000    9.1410 N.3   137  ASP137     -0.1225
     52  CA        10.5510   31.8150    9.7190 C.3   137  ASP137      0.1805
     53  C         10.4080   30.4420    9.0860 C.2   137  ASP137      0.2598
     54  O          9.9230   30.3200    7.9660 O.2   137  ASP137     -0.2718
     55  CB        10.4930   31.7620   11.2660 C.3   137  ASP137      0.1424
     56  CG         9.1560   31.2700   11.8180 C.2   137  ASP137      0.3668
     57  OD1        9.0640   31.1380   13.0560 O.co2 137  ASP137     -0.2456
     58  OD2        8.2000   31.0270   11.0610 O.co2 137  ASP137     -0.2456
     59  N         10.8690   29.4160    9.7840 N.am  138  GLY138     -0.1942
     60  CA        10.6670   28.0620    9.3090 C.3   138  GLY138      0.2014
     61  C          9.2050   27.7580    9.5620 C.2   138  GLY138      0.2638
     62  O          8.3910   27.7180    8.6430 O.2   138  GLY138     -0.2714
     63  N          8.8660   27.5730   10.8270 N.am  139  GLN139     -0.1977
     64  CA         7.4740   27.4000   11.2150 C.3   139  GLN139      0.1601
     65  C          7.3210   27.6200   12.7140 C.2   139  GLN139      0.2287
     66  O          8.1710   27.2020   13.4880 O.2   139  GLN139     -0.2864
     67  CB         7.0160   25.9820   10.8660 C.3   139  GLN139      0.0394
     68  CG         5.5190   25.7530   11.0180 C.3   139  GLN139      0.0908
     69  CD         5.0810   24.3680   10.5570 C.2   139  GLN139      0.2608
     70  OE1        5.8990   23.5430   10.1500 O.2   139  GLN139     -0.2717
     71  NE2        3.7880   24.1060   10.6370 N.am  139  GLN139     -0.0878
     72  N         11.2790   29.7830    4.9720 N.3   168  GLY168     -0.1210
     73  CA        12.3940   29.3570    5.8000 C.3   168  GLY168      0.1956
     74  C         12.7930   27.9220    5.4930 C.2   168  GLY168      0.2611
     75  O         13.9740   27.6230    5.2780 O.2   168  GLY168     -0.2717
     76  N         11.8120   27.0210    5.4900 N.am  169  PHE169     -0.1976
     77  CA        12.0950   25.6170    5.1920 C.3   169  PHE169      0.1639
     78  C         12.6730   25.4770    3.7810 C.2   169  PHE169      0.2290
     79  O         13.6270   24.7210    3.5580 O.2   169  PHE169     -0.2864
     80  CB        10.8320   24.7610    5.3340 C.3   169  PHE169      0.0560
     81  CG        10.4040   24.5300    6.7580 C.ar  169  PHE169     -0.0200
     82  CD1       11.2730   24.7800    7.8070 C.ar  169  PHE169     -0.0042
     83  CD2        9.1380   24.0420    7.0430 C.ar  169  PHE169     -0.0042
     84  CE1       10.8810   24.5560    9.1370 C.ar  169  PHE169     -0.0003
     85  CE2        8.7340   23.8150    8.3580 C.ar  169  PHE169     -0.0003
     86  CZ         9.6100   24.0710    9.4100 C.ar  169  PHE169     -0.0000
     87  N         14.4590   27.5980    2.1080 N.3   171  TYR171     -0.1227
     88  CA        15.8400   28.0560    2.1070 C.3   171  TYR171      0.1736
     89  C         16.7460   27.0410    2.8070 C.2   171  TYR171      0.2595
     90  O         17.8560   26.7790    2.3450 O.2   171  TYR171     -0.2718
     91  CB        15.9240   29.4210    2.7900 C.3   171  TYR171      0.0548
     92  CG        17.0890   30.2750    2.3580 C.ar  171  TYR171     -0.0200
     93  CD1       17.0440   31.0060    1.1790 C.ar  171  TYR171     -0.0009
     94  CD2       18.2350   30.3540    3.1380 C.ar  171  TYR171     -0.0009
     95  CE1       18.1160   31.8060    0.7920 C.ar  171  TYR171      0.0417
     96  CE2       19.3050   31.1340    2.7600 C.ar  171  TYR171      0.0417
     97  CZ        19.2440   31.8500    1.5930 C.ar  171  TYR171      0.1957
     98  OH        20.3150   32.6250    1.2380 O.3   171  TYR171     -0.2866
     99  N         16.2740   26.4660    3.9120 N.am  172  GLU172     -0.1979
    100  CA        17.0390   25.4240    4.6000 C.3   172  GLU172      0.1602
    101  C         17.2790   24.2370    3.6800 C.2   172  GLU172      0.2287
    102  O         18.3840   23.6960    3.6220 O.2   172  GLU172     -0.2864
    103  CB        16.2970   24.9150    5.8470 C.3   172  GLU172      0.0415
    104  CG        16.4310   25.7640    7.0810 C.3   172  GLU172      0.1163
    105  CD        15.7170   25.1260    8.2670 C.2   172  GLU172      0.3649
    106  OE1       16.2130   24.1020    8.7830 O.co2 172  GLU172     -0.2457
    107  OE2       14.6450   25.6300    8.6490 O.co2 172  GLU172     -0.2457
    108  N         22.1900   28.1460    6.8260 N.3   185  PRO185     -0.2102
    109  CA        21.5810   28.9610    5.7620 C.3   185  PRO185      0.1504
    110  C         22.3430   30.2590    5.5230 C.2   185  PRO185      0.2576
    111  O         22.3340   30.7770    4.4130 O.2   185  PRO185     -0.2718
    112  CB        20.1850   29.2720    6.3190 C.3   185  PRO185      0.0282
    113  CG        20.3610   29.1810    7.8340 C.3   185  PRO185      0.0208
    114  CD        21.3130   28.0270    8.0060 C.3   185  PRO185      0.0893
    115  N         22.9750   30.7920    6.5630 N.am  186  GLY186     -0.1957
    116  CA        23.8190   31.9620    6.3920 C.3   186  GLY186      0.1869
    117  C         24.8410   31.7370    5.2850 C.2   186  GLY186      0.2309
    118  O         25.1710   32.6570    4.5340 O.2   186  GLY186     -0.2863
    119  N         23.3860   32.2250    1.7730 N.3   189  MET189     -0.1245
    120  CA        23.2950   33.6480    1.4520 C.3   189  MET189      0.1570
    121  C         24.6300   34.1550    0.9080 C.2   189  MET189      0.2261
    122  O         24.6710   34.8930   -0.0810 O.2   189  MET189     -0.2867
    123  CB        22.8830   34.4620    2.6870 C.3   189  MET189      0.0387
    124  CG        22.6890   35.9630    2.4170 C.3   189  MET189      0.0595
    125  SD        22.2030   36.8960    3.8910 S.3   189  MET189     -0.1393
    126  CE        23.6520   36.6630    4.9310 C.3   189  MET189      0.0692
    127  N         13.5380   34.0180   -2.6480 N.3   285  LEU285     -0.1245
    128  CA        13.2490   34.4550   -1.2870 C.3   285  LEU285      0.1561
    129  C         13.0040   35.9570   -1.2710 C.2   285  LEU285      0.2260
    130  O         12.0180   36.4420   -0.7080 O.2   285  LEU285     -0.2867
    131  CB        14.4200   34.1240   -0.3590 C.3   285  LEU285      0.0270
    132  CG        14.2030   34.5750    1.0890 C.3   285  LEU285      0.0019
    133  CD1       13.1460   33.6900    1.7190 C.3   285  LEU285      0.0001
    134  CD2       15.5020   34.5080    1.9050 C.3   285  LEU285      0.0001
    135  N         13.5430   33.8110   11.6680 N.3   310  GLY310     -0.1210
    136  CA        14.8930   33.5020   11.2340 C.3   310  GLY310      0.1956
    137  C         15.2340   33.9820    9.8310 C.2   310  GLY310      0.2611
    138  O         16.3980   34.2320    9.5310 O.2   310  GLY310     -0.2717
    139  N         14.2420   34.1130    8.9610 N.am  311  VAL311     -0.1979
    140  CA        14.5340   34.6430    7.6230 C.3   311  VAL311      0.1595
    141  C         15.0090   36.0980    7.7040 C.2   311  VAL311      0.2287
    142  O         15.7330   36.5810    6.8300 O.2   311  VAL311     -0.2864
    143  CB        13.3480   34.4430    6.6310 C.3   311  VAL311      0.0276
    144  CG1       13.5370   35.2790    5.3550 C.3   311  VAL311      0.0022
    145  CG2       13.2400   32.9840    6.2720 C.3   311  VAL311      0.0022
    146  N         17.2830   37.1300    9.4160 N.3   313  LEU313     -0.1231
    147  CA        18.7470   37.1490    9.4780 C.3   313  LEU313      0.1693
    148  C         19.3600   37.3660    8.0960 C.2   313  LEU313      0.2592
    149  O         20.5710   37.5590    7.9750 O.2   313  LEU313     -0.2718
    150  CB        19.2940   35.8530   10.0920 C.3   313  LEU313      0.0284
    151  CG        19.0380   35.6910   11.5970 C.3   313  LEU313      0.0019
    152  CD1       19.5690   34.3510   12.0870 C.3   313  LEU313      0.0001
    153  CD2       19.6840   36.8370   12.3670 C.3   313  LEU313      0.0001
    154  N         18.5330   37.3250    7.0500 N.am  314  ASN314     -0.1974
    155  CA        19.0720   37.4680    5.6940 C.3   314  ASN314      0.1688
    156  C         19.3880   38.9320    5.3870 C.2   314  ASN314      0.2292
    157  O         18.5400   39.6690    4.8690 O.2   314  ASN314     -0.2864
    158  CB        18.1180   36.8740    4.6530 C.3   314  ASN314      0.1181
    159  CG        18.7920   36.6410    3.3100 C.2   314  ASN314      0.2629
    160  OD1       19.2460   37.5810    2.6600 O.2   314  ASN314     -0.2716
    161  ND2       18.8610   35.3830    2.8890 N.am  314  ASN314     -0.0877
    162  N         15.9930   35.3960   14.8750 N.3   337  SER337     -0.1202
    163  CA        15.7380   33.9550   14.8460 C.3   337  SER337      0.2020
    164  C         15.0980   33.4760   16.1570 C.2   337  SER337      0.2618
    165  O         14.8030   34.2790   17.0310 O.2   337  SER337     -0.2717
    166  CB        17.0420   33.2030   14.6060 C.3   337  SER337      0.2103
    167  OG        17.8680   33.2800   15.7520 O.3   337  SER337     -0.2182
    168  N         14.8700   32.1730   16.2880 N.am  338  ASP338     -0.1973
    169  CA        14.2630   31.6380   17.5200 C.3   338  ASP338      0.1709
    170  C         14.9590   32.0450   18.8190 C.2   338  ASP338      0.2293
    171  O         14.3340   32.0740   19.8780 O.2   338  ASP338     -0.2864
    172  CB        14.1620   30.1140   17.4460 C.3   338  ASP338      0.1436
    173  CG        13.0110   29.6580   16.5610 C.2   338  ASP338      0.3671
    174  OD1       12.8350   28.4430   16.3840 O.co2 338  ASP338     -0.2456
    175  OD2       12.2760   30.5250   16.0650 O.co2 338  ASP338     -0.2456
    176  N         26.1700   37.1280   15.2860 N.3   418  ARG418     -0.1245
    177  CA        27.2120   38.0210   14.7770 C.3   418  ARG418      0.1563
    178  C         28.0190   38.7150   15.8700 C.2   418  ARG418      0.2260
    179  O         27.4620   39.2640   16.8120 O.2   418  ARG418     -0.2867
    180  CB        26.6000   39.0460   13.8260 C.3   418  ARG418      0.0307
    181  CG        26.1130   38.3920   12.5350 C.3   418  ARG418      0.0489
    182  CD        25.3760   39.3470   11.6390 C.3   418  ARG418      0.2205
    183  NE        25.0200   38.7190   10.3690 N.pl3 418  ARG418     -0.0865
    184  CZ        23.7770   38.4180    9.9970 C.cat 418  ARG418      0.5346
    185  NH1       22.7510   38.6900   10.7980 N.pl3 418  ARG418      0.1354
    186  NH2       23.5610   37.8510    8.8150 N.pl3 418  ARG418      0.1354
@<TRIPOS>BOND
     1   127   128    1
     2   128   129    1
     3   128   131    1
     4   129   130    2
     5   131   132    1
     6   122   121    2
     7    95    93   ar
     8    95    97   ar
     9   121   120    1
    10   132   133    1
    11   132   134    1
    12    93    92   ar
    13    98    97    1
    14   120   119    1
    15   120   123    1
    16    97    96   ar
    17    88    87    1
    18    88    91    1
    19    88    89    1
    20    90    89    2
    21    92    91    1
    22    92    94   ar
    23   124   123    1
    24   124   125    1
    25   160   159    2
    26    96    94   ar
    27    89    99   am
    28   161   159   am
    29   159   158    1
    30    79    78    2
    31   102   101    2
    32   101   100    1
    33    78    77    1
    34   125   126    1
    35    99   100    1
    36   111   110    2
    37   118   117    2
    38   100   103    1
    39   158   155    1
    40   157   156    2
    41    72    73    1
    42    77    80    1
    43    77    76    1
    44    75    74    2
    45   117   116    1
    46    80    81    1
    47   144   143    1
    48   156   155    1
    49    76    74   am
    50    74    73    1
    51   110   109    1
    52   110   115   am
    53   155   154    1
    54   109   112    1
    55   109   108    1
    56   103   104    1
    57   145   143    1
    58   112   113    1
    59   116   115    1
    60   143   140    1
    61    81    83   ar
    62    81    82   ar
    63   108   114    1
    64   142   141    2
    65    83    85   ar
    66   154   148   am
    67   104   105    1
    68   140   141    1
    69   140   139    1
    70    82    84   ar
    71   113   114    1
    72    54    53    2
    73   149   148    2
    74   148   147    1
    75   105   107   ar
    76   105   106   ar
    77    85    86   ar
    78    62    61    2
    79   186   184    1
    80   139   137   am
    81    53    52    1
    82    53    59   am
    83    84    86   ar
    84    51    52    1
    85    60    61    1
    86    60    59    1
    87   146   147    1
    88   147   150    1
    89   138   137    2
    90    61    63   am
    91    52    55    1
    92   137   136    1
    93   184   183    2
    94   184   185    1
    95   150   151    1
    96    70    69    2
    97   183   182    1
    98    69    71   am
    99    69    68    1
   100    63    64    1
   101    67    68    1
   102    67    64    1
   103    58    56   ar
   104    64    65    1
   105   136   135    1
   106    55    56    1
   107   151   152    1
   108   151   153    1
   109   182   181    1
   110    56    57   ar
   111   181   180    1
   112    65    66    2
   113   180   177    1
   114   166   163    1
   115   166   167    1
   116   177   176    1
   117   177   178    1
   118   163   162    1
   119   163   164    1
   120    48    50   ar
   121    48    46   ar
   122    50    49   ar
   123     8     6   am
   124    46    45    1
   125    46    47   ar
   126    49    47   ar
   127   178   179    2
   128    45    42    1
   129   175   173   ar
   130    38    40   ar
   131    38    36   ar
   132   164   168   am
   133   164   165    2
   134    16    14   ar
   135   168   169    1
   136    40    39   ar
   137   174   173   ar
   138     6     7    2
   139     6     5    1
   140   173   172    1
   141    30    29   ar
   142    30    28   ar
   143    29    27   ar
   144    43    44    2
   145    43    42    1
   146    42    41    1
   147    14    15   ar
   148    14    13    1
   149    36    35    1
   150    36    37   ar
   151     5     2    1
   152   172   169    1
   153   169   170    1
   154    39    37   ar
   155    28    26   ar
   156    35    32    1
   157    33    34    2
   158    33    32    1
   159    27    24   ar
   160    32    31    1
   161    13    10    1
   162   170   171    2
   163     2     1    1
   164     2     3    1
   165    26    24   ar
   166    26    25   ar
   167    24    22   ar
   168     9     3   am
   169     9    10    1
   170     3     4    2
   171    10    11    1
   172    25    23   ar
   173    22    23   ar
   174    22    21    1
   175    11    12    2
   176    21    18    1
   177    18    19    1
   178    18    17    1
   179    19    20    2
