@<TRIPOS>MOLECULE
tmp/3veyA02.pdb
 158 152 0 0 0
SMALL
GASTEIGER

@<TRIPOS>ATOM
      1  N         32.4690   14.7390   56.7950 N.3    48  TYR48      -0.1227
      2  CA        33.0570   16.0490   56.4800 C.3    48  TYR48       0.1736
      3  C         34.1040   16.4810   57.5270 C.2    48  TYR48       0.2595
      4  O         34.5420   17.6230   57.5350 O.2    48  TYR48      -0.2718
      5  CB        31.9900   17.1220   56.1480 C.3    48  TYR48       0.0548
      6  CG        31.2960   16.8430   54.8330 C.ar   48  TYR48      -0.0200
      7  CD1       31.7380   17.4310   53.6510 C.ar   48  TYR48      -0.0009
      8  CD2       30.2400   15.9370   54.7570 C.ar   48  TYR48      -0.0009
      9  CE1       31.1420   17.1300   52.4250 C.ar   48  TYR48       0.0417
     10  CE2       29.6420   15.6240   53.5400 C.ar   48  TYR48       0.0417
     11  CZ        30.0920   16.2260   52.3760 C.ar   48  TYR48       0.1957
     12  OH        29.4870   15.9360   51.1780 O.3    48  TYR48      -0.2866
     13  N         34.5330   15.5310   58.3810 N.am   49  VAL49      -0.1966
     14  CA        35.5660   15.7190   59.3970 C.3    49  VAL49       0.1727
     15  C         36.8510   15.2770   58.7000 C.2    49  VAL49       0.2616
     16  O         37.0050   14.1110   58.3540 O.2    49  VAL49      -0.2715
     17  CB        35.2630   14.9350   60.7030 C.3    49  VAL49       0.0290
     18  CG1       36.4610   14.9330   61.6530 C.3    49  VAL49       0.0023
     19  CG2       34.0310   15.4890   61.3990 C.3    49  VAL49       0.0023
     20  N         37.7300   16.2360   58.4320 N.am   50  ARG50      -0.1963
     21  CA        38.9780   16.0230   57.7070 C.3    50  ARG50       0.1729
     22  C         40.1700   16.1240   58.6420 C.2    50  ARG50       0.2617
     23  O         40.0670   16.7580   59.6920 O.2    50  ARG50      -0.2715
     24  CB        39.1030   17.0730   56.5760 C.3    50  ARG50       0.0348
     25  CG        37.9810   17.0280   55.5480 C.3    50  ARG50       0.0492
     26  CD        37.7300   18.4090   54.9550 C.3    50  ARG50       0.2205
     27  NE        36.6390   18.4210   53.9720 N.pl3  50  ARG50      -0.0865
     28  CZ        36.7940   18.1420   52.6800 C.cat  50  ARG50       0.5346
     29  NH1       37.9930   17.8230   52.1990 N.pl3  50  ARG50       0.1354
     30  NH2       35.7500   18.1680   51.8600 N.pl3  50  ARG50       0.1354
     31  N         41.3100   15.5280   58.2510 N.am   51  SER51      -0.1936
     32  CA        42.5680   15.5990   59.0030 C.3    51  SER51       0.2055
     33  C         43.1450   17.0220   58.8080 C.2    51  SER51       0.2643
     34  O         44.0040   17.2550   57.9580 O.2    51  SER51      -0.2714
     35  CB        43.5340   14.5130   58.5370 C.3    51  SER51       0.2130
     36  OG        43.7010   14.5300   57.1290 O.3    51  SER51      -0.2179
     37  N         42.5820   17.9780   59.5800 N.am   52  THR52      -0.1950
     38  CA        42.8150   19.4330   59.5840 C.3    52  THR52       0.1897
     39  C         44.2650   19.9470   59.5210 C.2    52  THR52       0.2313
     40  O         45.0970   19.5360   60.3340 O.2    52  THR52      -0.2863
     41  CB        41.9410   20.1350   60.6560 C.3    52  THR52       0.1794
     42  OG1       42.0990   21.5540   60.5520 O.3    52  THR52      -0.2208
     43  CG2       42.2430   19.6680   62.0890 C.3    52  THR52       0.0378
     44  N         27.3830   18.6610   54.5400 N.3   145  ASP145     -0.1225
     45  CA        28.5050   19.3740   55.1470 C.3   145  ASP145      0.1805
     46  C         28.5930   19.0260   56.6450 C.2   145  ASP145      0.2597
     47  O         27.8460   18.1660   57.1120 O.2   145  ASP145     -0.2718
     48  CB        28.3830   20.9040   54.9230 C.3   145  ASP145      0.1424
     49  CG        29.7060   21.6580   54.9210 C.2   145  ASP145      0.3668
     50  OD1       29.7260   22.8230   54.4570 O.co2 145  ASP145     -0.2456
     51  OD2       30.7240   21.0860   55.3840 O.co2 145  ASP145     -0.2456
     52  N         29.5240   19.6610   57.3830 N.am  146  ILE146     -0.1980
     53  CA        29.7470   19.4620   58.8160 C.3   146  ILE146      0.1595
     54  C         28.5550   19.8990   59.6840 C.2   146  ILE146      0.2287
     55  O         28.2980   19.3010   60.7300 O.2   146  ILE146     -0.2864
     56  CB        31.1300   20.0350   59.2820 C.3   146  ILE146      0.0276
     57  CG1       31.5260   19.5800   60.7030 C.3   146  ILE146      0.0022
     58  CG2       31.2330   21.5530   59.1470 C.3   146  ILE146      0.0022
     59  CD1       31.7470   18.1500   60.8550 C.3   146  ILE146      0.0001
     60  N         36.4580    9.4430   68.7610 N.3   197  MET197     -0.1230
     61  CA        37.7360    9.4080   68.0530 C.3   197  MET197      0.1702
     62  C         38.4590   10.7580   68.1820 C.2   197  MET197      0.2592
     63  O         39.6290   10.7750   68.5620 O.2   197  MET197     -0.2718
     64  CB        37.5290    9.0220   66.5780 C.3   197  MET197      0.0401
     65  CG        38.8170    8.8960   65.8070 C.3   197  MET197      0.0596
     66  SD        38.5680    9.0040   64.0260 S.3   197  MET197     -0.1393
     67  CE        38.2020   10.7250   63.8730 C.3   197  MET197      0.0692
     68  N         37.7660   11.8710   67.8940 N.am  198  ILE198     -0.1980
     69  CA        38.3340   13.2290   67.9840 C.3   198  ILE198      0.1595
     70  C         38.8980   13.5360   69.3940 C.2   198  ILE198      0.2287
     71  O         40.0360   14.0040   69.4980 O.2   198  ILE198     -0.2864
     72  CB        37.3490   14.3120   67.4310 C.3   198  ILE198      0.0276
     73  CG1       37.0970   14.1490   65.9070 C.3   198  ILE198      0.0022
     74  CG2       37.7610   15.7520   67.7880 C.3   198  ILE198      0.0022
     75  CD1       38.3470   14.1600   64.9790 C.3   198  ILE198      0.0001
     76  N         42.1580   11.5280   69.9340 N.3   201  TYR201     -0.1227
     77  CA        43.2520   11.9770   69.0550 C.3   201  TYR201      0.1736
     78  C         44.2480   12.9240   69.7560 C.2   201  TYR201      0.2595
     79  O         45.4550   12.8200   69.5290 O.2   201  TYR201     -0.2718
     80  CB        42.7050   12.5980   67.7460 C.3   201  TYR201      0.0548
     81  CG        43.7610   13.2890   66.9040 C.ar  201  TYR201     -0.0200
     82  CD1       44.4690   12.5930   65.9310 C.ar  201  TYR201     -0.0009
     83  CD2       44.0630   14.6350   67.0930 C.ar  201  TYR201     -0.0009
     84  CE1       45.4530   13.2180   65.1670 C.ar  201  TYR201      0.0417
     85  CE2       45.0610   15.2660   66.3500 C.ar  201  TYR201      0.0417
     86  CZ        45.7480   14.5550   65.3820 C.ar  201  TYR201      0.1957
     87  OH        46.7240   15.1730   64.6340 O.3   201  TYR201     -0.2866
     88  N         43.7480   13.8430   70.5910 N.am  202  TYR202     -0.1976
     89  CA        44.6060   14.7860   71.3010 C.3   202  TYR202      0.1639
     90  C         45.4940   14.1470   72.3700 C.2   202  TYR202      0.2290
     91  O         46.5220   14.7170   72.7390 O.2   202  TYR202     -0.2864
     92  CB        43.7980   15.9810   71.8070 C.3   202  TYR202      0.0560
     93  CG        43.2350   16.7960   70.6610 C.ar  202  TYR202     -0.0198
     94  CD1       44.0180   17.7370   69.9980 C.ar  202  TYR202     -0.0009
     95  CD2       41.9410   16.5800   70.1960 C.ar  202  TYR202     -0.0009
     96  CE1       43.5160   18.4670   68.9230 C.ar  202  TYR202      0.0417
     97  CE2       41.4300   17.3000   69.1190 C.ar  202  TYR202      0.0417
     98  CZ        42.2180   18.2520   68.4920 C.ar  202  TYR202      0.1957
     99  OH        41.7180   18.9790   67.4440 O.3   202  TYR202     -0.2866
    100  N         45.2480    7.8820   66.8940 N.3   207  CYS207     -0.1221
    101  CA        43.8290    7.5330   66.9870 C.3   207  CYS207      0.1808
    102  C         43.0720    7.9390   65.7420 C.2   207  CYS207      0.2601
    103  O         42.7890    9.1170   65.5370 O.2   207  CYS207     -0.2717
    104  CB        43.1640    8.0740   68.2470 C.3   207  CYS207      0.0970
    105  SG        41.4990    7.4170   68.5090 S.3   207  CYS207     -0.0800
    106  N         42.7430    6.9480   64.9160 N.am  208  GLU208     -0.1979
    107  CA        42.0470    7.1640   63.6510 C.3   208  GLU208      0.1602
    108  C         40.8110    6.2780   63.5320 C.2   208  GLU208      0.2287
    109  O         40.2300    6.1810   62.4500 O.2   208  GLU208     -0.2864
    110  CB        43.0070    6.9310   62.4820 C.3   208  GLU208      0.0415
    111  CG        44.0470    8.0240   62.3340 C.3   208  GLU208      0.1163
    112  CD        44.7960    7.9070   61.0280 C.2   208  GLU208      0.3649
    113  OE1       44.3360    8.5150   60.0360 O.co2 208  GLU208     -0.2457
    114  OE2       45.7820    7.1360   60.9700 O.co2 208  GLU208     -0.2457
    115  N         39.3060    6.9680   59.7200 N.3   222  MET222     -0.1245
    116  CA        39.8330    7.9160   58.7450 C.3   222  MET222      0.1570
    117  C         40.1400    7.1900   57.4490 C.2   222  MET222      0.2261
    118  O         41.0520    6.3680   57.3950 O.2   222  MET222     -0.2867
    119  CB        41.0760    8.6440   59.2810 C.3   222  MET222      0.0387
    120  CG        40.8420    9.4310   60.5730 C.3   222  MET222      0.0595
    121  SD        39.5020   10.6430   60.4490 S.3   222  MET222     -0.1393
    122  CE        40.2240   11.8570   59.2880 C.3   222  MET222      0.0692
    123  N         35.5160   20.1110   70.1550 N.3   438  LEU438     -0.1231
    124  CA        36.7820   20.1280   69.4100 C.3   438  LEU438      0.1693
    125  C         36.5810   20.2660   67.8950 C.2   438  LEU438      0.2591
    126  O         37.3150   21.0270   67.2570 O.2   438  LEU438     -0.2718
    127  CB        37.6720   18.9280   69.7570 C.3   438  LEU438      0.0284
    128  CG        38.3630   18.9750   71.1200 C.3   438  LEU438      0.0019
    129  CD1       38.6710   17.5750   71.6120 C.3   438  LEU438      0.0001
    130  CD2       39.6260   19.8260   71.0830 C.3   438  LEU438      0.0001
    131  N         35.5630   19.5730   67.3370 N.am  439  VAL439     -0.1980
    132  CA        35.2020   19.6560   65.9140 C.3   439  VAL439      0.1595
    133  C         34.6480   21.0600   65.6510 C.2   439  VAL439      0.2287
    134  O         35.0170   21.6860   64.6560 O.2   439  VAL439     -0.2864
    135  CB        34.2090   18.5370   65.4700 C.3   439  VAL439      0.0276
    136  CG1       33.7160   18.7620   64.0400 C.3   439  VAL439      0.0022
    137  CG2       34.8410   17.1580   65.5930 C.3   439  VAL439      0.0022
    138  N         37.2970   23.9360   65.3290 N.3   442  VAL442     -0.1231
    139  CA        37.9610   23.9600   64.0210 C.3   442  VAL442      0.1692
    140  C         36.9930   24.4950   62.9590 C.2   442  VAL442      0.2591
    141  O         37.3670   25.3770   62.1870 O.2   442  VAL442     -0.2718
    142  CB        38.5780   22.5810   63.6540 C.3   442  VAL442      0.0266
    143  CG1       39.0510   22.5440   62.2000 C.3   442  VAL442      0.0020
    144  CG2       39.7290   22.2360   64.5930 C.3   442  VAL442      0.0020
    145  N         35.7380   23.9970   62.9580 N.am  443  ALA443     -0.1980
    146  CA        34.6800   24.4210   62.0350 C.3   443  ALA443      0.1597
    147  C         34.3120   25.9130   62.1870 C.2   443  ALA443      0.2287
    148  O         33.8390   26.5210   61.2180 O.2   443  ALA443     -0.2864
    149  CB        33.4510   23.5480   62.2110 C.3   443  ALA443      0.0319
    150  N         35.9180   28.8120   59.8180 N.3   446  LYS446     -0.1245
    151  CA        35.3260   29.0010   58.4880 C.3   446  LYS446      0.1561
    152  C         33.9260   29.6460   58.5030 C.2   446  LYS446      0.2260
    153  O         33.6880   30.5900   57.7430 O.2   446  LYS446     -0.2867
    154  CB        35.2980   27.6730   57.7060 C.3   446  LYS446      0.0271
    155  CG        36.4640   27.4970   56.7350 C.3   446  LYS446      0.0035
    156  CD        36.3880   26.1530   56.0170 C.3   446  LYS446      0.0206
    157  CE        37.6050   25.8590   55.1710 C.3   446  LYS446      0.1093
    158  NZ        37.5350   26.5200   53.8420 N.3   446  LYS446     -0.1314
@<TRIPOS>BOND
     1    12    11    1
     2    30    28    1
     3    29    28    1
     4    11     9   ar
     5    11    10   ar
     6     9     7   ar
     7    28    27    2
     8    10     8   ar
     9     7     6   ar
    10   158   157    1
    11    27    26    1
    12    50    49   ar
    13    44    45    1
    14     8     6   ar
    15     6     5    1
    16    49    48    1
    17    49    51   ar
    18    48    45    1
    19    26    25    1
    20    45    46    1
    21   157   156    1
    22    25    24    1
    23   156   155    1
    24     5     2    1
    25     2     1    1
    26     2     3    1
    27    24    21    1
    28    46    47    2
    29    46    52   am
    30   155   154    1
    31    36    35    1
    32    52    53    1
    33   118   117    2
    34   117   116    1
    35     3     4    2
    36     3    13   am
    37   154   151    1
    38    21    20    1
    39    21    22    1
    40   153   152    2
    41    34    33    2
    42    31    22   am
    43    31    32    1
    44    16    15    2
    45    13    14    1
    46    20    15   am
    47   151   152    1
    48   151   150    1
    49    35    32    1
    50    22    23    2
    51    15    14    1
    52   116   119    1
    53   116   115    1
    54    33    32    1
    55    33    37   am
    56    53    56    1
    57    53    54    1
    58    58    56    1
    59   119   120    1
    60    56    57    1
    61   122   121    1
    62    14    17    1
    63    39    38    1
    64    39    40    2
    65    37    38    1
    66    38    41    1
    67    54    55    2
    68   113   112   ar
    69   121   120    1
    70    42    41    1
    71    41    43    1
    72    17    19    1
    73    17    18    1
    74    57    59    1
    75   114   112   ar
    76   112   111    1
    77   148   147    2
    78   146   147    1
    79   146   149    1
    80   146   145    1
    81   141   140    2
    82   143   142    1
    83   111   110    1
    84   109   108    2
    85   110   107    1
    86   145   140   am
    87   140   139    1
    88   108   107    1
    89   107   106    1
    90   142   139    1
    91   142   144    1
    92    67    66    1
    93   139   138    1
    94    66    65    1
    95   136   135    1
    96    87    86    1
    97   134   133    2
    98   106   102   am
    99    75    73    1
   100    84    86   ar
   101    84    82   ar
   102    86    85   ar
   103   135   137    1
   104   135   132    1
   105   103   102    2
   106   133   132    1
   107   102   101    1
   108    65    64    1
   109    73    72    1
   110   132   131    1
   111    82    81   ar
   112    85    83   ar
   113    64    61    1
   114   100   101    1
   115    81    83   ar
   116    81    80    1
   117   101   104    1
   118   126   125    2
   119   131   125   am
   120    72    74    1
   121    72    69    1
   122    99    98    1
   123    80    77    1
   124    68    69    1
   125    68    62   am
   126   125   124    1
   127    69    70    1
   128    61    62    1
   129    61    60    1
   130    62    63    2
   131   104   105    1
   132    98    96   ar
   133    98    97   ar
   134    96    94   ar
   135    77    78    1
   136    77    76    1
   137    97    95   ar
   138    70    71    2
   139   124   127    1
   140   124   123    1
   141    79    78    2
   142    78    88   am
   143   127   128    1
   144    94    93   ar
   145    95    93   ar
   146    88    89    1
   147    93    92    1
   148   130   128    1
   149   128   129    1
   150    89    92    1
   151    89    90    1
   152    90    91    2
