@<TRIPOS>MOLECULE
tmp/3veyA01.pdb
 167 156 0 0 0
SMALL
GASTEIGER

@<TRIPOS>ATOM
      1  N         24.1420   16.2030   73.3970 N.3    65  ASP65      -0.1239
      2  CA        24.2820   14.7650   73.2260 C.3    65  ASP65       0.1674
      3  C         22.9220   14.0800   73.2140 C.2    65  ASP65       0.2266
      4  O         22.3170   13.8650   74.2680 O.2    65  ASP65      -0.2867
      5  CB        25.1920   14.1790   74.3160 C.3    65  ASP65       0.1410
      6  CG        25.6310   12.7440   74.0990 C.2    65  ASP65       0.3668
      7  OD1       25.2370   12.1440   73.0760 O.co2  65  ASP65      -0.2456
      8  OD2       26.4350   12.2510   74.9040 O.co2  65  ASP65      -0.2456
      9  N         20.9900   10.6360   71.7860 N.3    67  GLY67      -0.1210
     10  CA        21.1620    9.2840   71.2810 C.3    67  GLY67       0.1956
     11  C         20.9290    8.2220   72.3250 C.2    67  GLY67       0.2612
     12  O         20.3620    7.1720   72.0170 O.2    67  GLY67      -0.2717
     13  N         21.3850    8.4970   73.5470 N.am   68  GLY68      -0.1942
     14  CA        21.2550    7.5970   74.6870 C.3    68  GLY68       0.2014
     15  C         19.8580    7.5150   75.2650 C.2    68  GLY68       0.2639
     16  O         18.9130    8.0920   74.7100 O.2    68  GLY68      -0.2714
     17  N         19.7230    6.8050   76.4070 N.am   69  THR69      -0.1950
     18  CA        18.4480    6.6280   77.1280 C.3    69  THR69       0.1897
     19  C         17.8500    7.9990   77.4990 C.2    69  THR69       0.2313
     20  O         16.6280    8.1550   77.5420 O.2    69  THR69      -0.2863
     21  CB        18.6270    5.7160   78.3660 C.3    69  THR69       0.1794
     22  OG1       19.3340    6.4200   79.3920 O.3    69  THR69      -0.2208
     23  CG2       19.3320    4.3830   78.0430 C.3    69  THR69       0.0378
     24  N         23.7020   10.5890   67.6900 N.3   138  SER138     -0.1217
     25  CA        24.0350    9.1570   67.5930 C.3   138  SER138      0.1889
     26  C         23.0630    8.3670   66.7120 C.2   138  SER138      0.2288
     27  O         22.5250    7.3470   67.1530 O.2   138  SER138     -0.2866
     28  CB        24.0870    8.5370   68.9870 C.3   138  SER138      0.2089
     29  OG        24.8340    9.3130   69.9060 O.3   138  SER138     -0.2183
     30  N         17.8160    2.1390   67.6010 N.3   156  LYS156     -0.1245
     31  CA        17.7640    1.9590   69.0600 C.3   156  LYS156      0.1561
     32  C         16.4060    2.3240   69.7320 C.2   156  LYS156      0.2260
     33  O         16.3910    2.7960   70.8780 O.2   156  LYS156     -0.2867
     34  CB        18.9450    2.6850   69.7450 C.3   156  LYS156      0.0271
     35  CG        20.3230    2.3500   69.1700 C.3   156  LYS156      0.0035
     36  CD        21.3970    3.3370   69.6320 C.3   156  LYS156      0.0206
     37  CE        21.2820    4.6920   68.9570 C.3   156  LYS156      0.1093
     38  NZ        22.4010    5.5900   69.3270 N.3   156  LYS156     -0.1314
     39  N         28.3820    9.9070   67.5140 N.3   192  ASP192     -0.1239
     40  CA        29.0760    9.5690   68.7620 C.3   192  ASP192      0.1674
     41  C         30.4040    8.8530   68.5540 C.2   192  ASP192      0.2266
     42  O         31.3160    9.0400   69.3550 O.2   192  ASP192     -0.2867
     43  CB        28.1630    8.8240   69.7660 C.3   192  ASP192      0.1410
     44  CG        27.4670    7.5940   69.2260 C.2   192  ASP192      0.3668
     45  OD1       27.0930    6.7180   70.0400 O.co2 192  ASP192     -0.2456
     46  OD2       27.2820    7.5090   67.9960 O.co2 192  ASP192     -0.2456
     47  N         31.8270    2.5420   69.3600 N.3   212  ILE212     -0.1245
     48  CA        30.8470    2.6300   70.4350 C.3   212  ILE212      0.1561
     49  C         30.2160    1.2730   70.6380 C.2   212  ILE212      0.2260
     50  O         29.6900    0.6920   69.6910 O.2   212  ILE212     -0.2867
     51  CB        29.7570    3.7310   70.1980 C.3   212  ILE212      0.0252
     52  CG1       30.3510    5.1490   69.9640 C.3   212  ILE212      0.0019
     53  CG2       28.6540    3.7130   71.2870 C.3   212  ILE212      0.0019
     54  CD1       31.0330    5.8590   71.1700 C.3   212  ILE212      0.0001
     55  N         27.6640    0.4660   73.3720 N.3   214  GLY214     -0.1210
     56  CA        26.7580    0.8380   74.4540 C.3   214  GLY214      0.1956
     57  C         25.3790    0.2890   74.1830 C.2   214  GLY214      0.2613
     58  O         25.2350   -0.9240   74.0320 O.2   214  GLY214     -0.2717
     59  N         24.3630    1.1780   74.0840 N.am  215  THR215     -0.1938
     60  CA        22.9810    0.8260   73.7290 C.3   215  THR215      0.2028
     61  C         23.0360    0.2130   72.3230 C.2   215  THR215      0.2642
     62  O         22.4990   -0.8780   72.0860 O.2   215  THR215     -0.2714
     63  CB        22.0960    2.0790   73.7780 C.3   215  THR215      0.1808
     64  OG1       22.1900    2.6400   75.0750 O.3   215  THR215     -0.2208
     65  CG2       20.6270    1.7940   73.4560 C.3   215  THR215      0.0379
     66  N         23.7500    0.9110   71.4370 N.am  216  GLY216     -0.1954
     67  CA        23.9940    0.5020   70.0660 C.3   216  GLY216      0.1869
     68  C         25.4500    0.1730   69.8420 C.2   216  GLY216      0.2309
     69  O         26.2770    0.2450   70.7600 O.2   216  GLY216     -0.2863
     70  N         23.6790   -3.1070   73.9280 N.3   282  GLY282     -0.1210
     71  CA        23.0670   -3.1900   75.2530 C.3   282  GLY282      0.1956
     72  C         21.5530   -3.1450   75.2230 C.2   282  GLY282      0.2611
     73  O         20.9030   -3.6260   76.1480 O.2   282  GLY282     -0.2717
     74  N         20.9720   -2.5780   74.1560 N.am  283  LYS283     -0.1979
     75  CA        19.5230   -2.5360   73.9860 C.3   283  LYS283      0.1596
     76  C         18.9680   -3.9730   73.8130 C.2   283  LYS283      0.2287
     77  O         17.8350   -4.2580   74.2150 O.2   283  LYS283     -0.2864
     78  CB        19.1830   -1.6620   72.7570 C.3   283  LYS283      0.0298
     79  CG        17.6920   -1.5030   72.4190 C.3   283  LYS283      0.0038
     80  CD        17.0010   -0.4370   73.2450 C.3   283  LYS283      0.0206
     81  CE        15.6010   -0.1650   72.7490 C.3   283  LYS283      0.1093
     82  NZ        14.9370    0.8970   73.5480 N.3   283  LYS283     -0.1314
     83  N         17.5230   -6.9810   82.1920 N.3   318  GLU318     -0.1231
     84  CA        18.3110   -5.8130   81.7970 C.3   318  GLU318      0.1699
     85  C         19.7570   -6.2120   81.4460 C.2   318  GLU318      0.2593
     86  O         20.2650   -7.1830   81.9960 O.2   318  GLU318     -0.2718
     87  CB        18.2860   -4.7690   82.9220 C.3   318  GLU318      0.0402
     88  CG        16.9370   -4.0840   83.0950 C.3   318  GLU318      0.1161
     89  CD        16.6930   -3.4140   84.4360 C.2   318  GLU318      0.3649
     90  OE1       17.6120   -2.7320   84.9470 O.co2 318  GLU318     -0.2457
     91  OE2       15.5660   -3.5480   84.9650 O.co2 318  GLU318     -0.2457
     92  N         20.4170   -5.4650   80.5350 N.am  319  THR319     -0.1939
     93  CA        21.7990   -5.7320   80.1160 C.3   319  THR319      0.2028
     94  C         22.8010   -5.6740   81.2780 C.2   319  THR319      0.2642
     95  O         23.7400   -6.4720   81.3110 O.2   319  THR319     -0.2714
     96  CB        22.1650   -4.9010   78.8840 C.3   319  THR319      0.1808
     97  OG1       21.3500   -5.3620   77.8040 O.3   319  THR319     -0.2208
     98  CG2       23.6370   -5.0390   78.4860 C.3   319  THR319      0.0379
     99  N         22.5790   -4.7550   82.2420 N.am  320  ARG320     -0.1977
    100  CA        23.4040   -4.6270   83.4430 C.3   320  ARG320      0.1597
    101  C         23.3620   -5.9130   84.2710 C.2   320  ARG320      0.2287
    102  O         24.3530   -6.2270   84.9330 O.2   320  ARG320     -0.2864
    103  CB        23.0130   -3.3930   84.2900 C.3   320  ARG320      0.0334
    104  CG        21.5970   -3.3880   84.8600 C.3   320  ARG320      0.0492
    105  CD        21.3000   -2.0660   85.5550 C.3   320  ARG320      0.2205
    106  NE        20.0170   -2.1000   86.2600 N.pl3 320  ARG320     -0.0865
    107  CZ        19.8790   -2.3860   87.5520 C.cat 320  ARG320      0.5346
    108  NH1       20.9450   -2.6490   88.3000 N.pl3 320  ARG320      0.1354
    109  NH2       18.6730   -2.4070   88.1080 N.pl3 320  ARG320      0.1354
    110  N         26.0730   -8.3900   83.0250 N.3   323  SER323     -0.1202
    111  CA        27.3380   -7.9030   83.5500 C.3   323  SER323      0.2020
    112  C         27.4530   -8.2300   85.0510 C.2   323  SER323      0.2618
    113  O         28.5190   -8.6340   85.5040 O.2   323  SER323     -0.2717
    114  CB        27.4230   -6.4000   83.2960 C.3   323  SER323      0.2103
    115  OG        28.6530   -5.8520   83.7260 O.3   323  SER323     -0.2182
    116  N         26.3370   -8.1460   85.7950 N.am  324  GLN324     -0.1979
    117  CA        26.2940   -8.4690   87.2240 C.3   324  GLN324      0.1601
    118  C         26.4430   -9.9710   87.4560 C.2   324  GLN324      0.2287
    119  O         27.2290  -10.3720   88.3150 O.2   324  GLN324     -0.2864
    120  CB        25.0110   -7.9430   87.8750 C.3   324  GLN324      0.0394
    121  CG        24.9920   -6.4430   88.1310 C.3   324  GLN324      0.0908
    122  CD        23.5970   -5.9430   88.4430 C.2   324  GLN324      0.2608
    123  OE1       23.1690   -4.8990   87.9500 O.2   324  GLN324     -0.2717
    124  NE2       22.8550   -6.6590   89.2800 N.am  324  GLN324     -0.0878
    125  N         34.0660    3.9680   73.5980 N.3   396  ASP396     -0.1225
    126  CA        33.0430    4.3600   74.5530 C.3   396  ASP396      0.1805
    127  C         31.8800    3.3530   74.5190 C.2   396  ASP396      0.2598
    128  O         31.7890    2.5360   73.5970 O.2   396  ASP396     -0.2718
    129  CB        32.5630    5.8070   74.3450 C.3   396  ASP396      0.1424
    130  CG        31.9500    6.4450   75.5850 C.2   396  ASP396      0.3668
    131  OD1       32.0560    5.8450   76.6780 O.co2 396  ASP396     -0.2456
    132  OD2       31.3890    7.5550   75.4650 O.co2 396  ASP396     -0.2456
    133  N         31.0280    3.4160   75.5320 N.am  397  GLY397     -0.1942
    134  CA        29.8760    2.5410   75.6790 C.3   397  GLY397      0.2014
    135  C         29.9570    1.7200   76.9440 C.2   397  GLY397      0.2640
    136  O         31.0370    1.2300   77.2920 O.2   397  GLY397     -0.2714
    137  N         28.8040    1.5460   77.6240 N.am  398  SER398     -0.1935
    138  CA        28.6990    0.8260   78.8880 C.3   398  SER398      0.2055
    139  C         28.9850   -0.6560   78.7720 C.2   398  SER398      0.2642
    140  O         29.5440   -1.2310   79.7060 O.2   398  SER398     -0.2714
    141  CB        27.3350    1.0520   79.5240 C.3   398  SER398      0.2130
    142  OG        26.3470    0.4410   78.7120 O.3   398  SER398     -0.2179
    143  N         28.6070   -1.2820   77.6460 N.am  399  VAL399     -0.1977
    144  CA        28.8640   -2.7110   77.4120 C.3   399  VAL399      0.1596
    145  C         30.3780   -2.9560   77.4050 C.2   399  VAL399      0.2287
    146  O         30.8580   -3.8190   78.1270 O.2   399  VAL399     -0.2864
    147  CB        28.1760   -3.2480   76.1170 C.3   399  VAL399      0.0276
    148  CG1       28.6210   -4.6740   75.7960 C.3   399  VAL399      0.0022
    149  CG2       26.6580   -3.1790   76.2240 C.3   399  VAL399      0.0022
    150  N         31.9230   -1.4680   81.1210 N.3   402  LEU402     -0.1231
    151  CA        31.4670   -2.0050   82.4130 C.3   402  LEU402      0.1693
    152  C         31.3420   -3.5080   82.5470 C.2   402  LEU402      0.2592
    153  O         31.3790   -4.0080   83.6790 O.2   402  LEU402     -0.2718
    154  CB        30.1930   -1.2900   82.9110 C.3   402  LEU402      0.0284
    155  CG        30.1820    0.2600   82.8920 C.3   402  LEU402      0.0019
    156  CD1       28.8040    0.8020   83.2500 C.3   402  LEU402      0.0001
    157  CD2       31.2230    0.8450   83.8400 C.3   402  LEU402      0.0001
    158  N         31.1630   -4.2250   81.4200 N.am  403  HIS403     -0.1976
    159  CA        31.0510   -5.6760   81.4390 C.3   403  HIS403      0.1656
    160  C         32.3860   -6.2580   81.9160 C.2   403  HIS403      0.2291
    161  O         33.4270   -5.7690   81.4730 O.2   403  HIS403     -0.2864
    162  CB        30.6390   -6.2230   80.0720 C.3   403  HIS403      0.0771
    163  CG        30.1880   -7.6440   80.1340 C.ar  403  HIS403      0.0820
    164  ND1       31.0970   -8.6830   80.2290 N.ar  403  HIS403     -0.2267
    165  CD2       28.9360   -8.1530   80.1350 C.ar  403  HIS403      0.1154
    166  CE1       30.3770   -9.7860   80.2620 C.ar  403  HIS403      0.1986
    167  NE2       29.0690   -9.5180   80.2170 N.ar  403  HIS403     -0.2212
@<TRIPOS>BOND
     1    26    27    2
     2    26    25    1
     3    39    40    1
     4    25    24    1
     5    25    28    1
     6    30    31    1
     7    46    44   ar
     8    41    40    1
     9    41    42    2
    10    40    43    1
    11    37    38    1
    12    37    36    1
    13    28    29    1
    14    31    32    1
    15    31    34    1
    16    35    36    1
    17    35    34    1
    18    44    43    1
    19    44    45   ar
    20    47    48    1
    21    50    49    2
    22    32    33    2
    23    68    67    1
    24    68    69    2
    25    52    51    1
    26    52    54    1
    27    67    66    1
    28    51    48    1
    29    51    53    1
    30    48    49    1
    31    10     9    1
    32    10    11    1
    33    66    61   am
    34    12    11    2
    35    62    61    2
    36    61    60    1
    37    11    13   am
    38    79    78    1
    39    79    80    1
    40    81    80    1
    41    81    82    1
    42    78    75    1
    43     7     6   ar
    44     3     2    1
    45     3     4    2
    46     2     1    1
    47     2     5    1
    48    55    56    1
    49    65    63    1
    50    13    14    1
    51   128   127    2
    52   125   126    1
    53    60    63    1
    54    60    59    1
    55    63    64    1
    56    76    75    1
    57    76    77    2
    58    70    71    1
    59    75    74    1
    60    58    57    2
    61    59    57   am
    62     6     5    1
    63     6     8   ar
    64    74    72   am
    65    57    56    1
    66   129   126    1
    67   129   130    1
    68   127   126    1
    69   127   133   am
    70    14    15    1
    71    16    15    2
    72    72    71    1
    73    72    73    2
    74    15    17   am
    75   132   130   ar
    76   133   134    1
    77   130   131   ar
    78   134   135    1
    79   148   147    1
    80   147   149    1
    81   147   144    1
    82    17    18    1
    83   135   136    2
    84   135   137   am
    85    18    19    1
    86    18    21    1
    87   145   144    1
    88   145   146    2
    89   144   143    1
    90    19    20    2
    91   137   138    1
    92   143   139   am
    93    97    96    1
    94    23    21    1
    95    21    22    1
    96    98    96    1
    97   142   141    1
    98   139   138    1
    99   139   140    2
   100    96    93    1
   101   138   141    1
   102   162   163    1
   103   162   159    1
   104    93    92    1
   105    93    94    1
   106   163   165   ar
   107   163   164   ar
   108   165   167   ar
   109   167   166   ar
   110   164   166   ar
   111    92    85   am
   112   150   151    1
   113    94    95    2
   114    94    99   am
   115   158   159    1
   116   158   152   am
   117   159   160    1
   118    85    84    1
   119    85    86    2
   120   161   160    2
   121    84    83    1
   122    84    87    1
   123    99   100    1
   124   151   152    1
   125   151   154    1
   126   152   153    2
   127   155   154    1
   128   155   156    1
   129   155   157    1
   130    87    88    1
   131   110   111    1
   132    88    89    1
   133   114   111    1
   134   114   115    1
   135   100   101    1
   136   100   103    1
   137   111   112    1
   138   101   102    2
   139   103   104    1
   140    89    90   ar
   141    89    91   ar
   142   104   105    1
   143   112   113    2
   144   112   116   am
   145   105   106    1
   146   116   117    1
   147   106   107    2
   148   117   118    1
   149   117   120    1
   150   118   119    2
   151   107   109    1
   152   107   108    1
   153   120   121    1
   154   123   122    2
   155   121   122    1
   156   122   124   am
