@<TRIPOS>MOLECULE
tmp/3vezA01.pdb
 222 210 0 0 0
SMALL
GASTEIGER

@<TRIPOS>ATOM
      1  N         27.2610   24.3810   19.3690 N.3    39  LYS39      -0.1245
      2  CA        26.5980   25.3600   18.4980 C.3    39  LYS39       0.1561
      3  C         25.0930   25.1340   18.3320 C.2    39  LYS39       0.2260
      4  O         24.6470   24.0060   18.1650 O.2    39  LYS39      -0.2867
      5  CB        27.2910   25.4050   17.1220 C.3    39  LYS39       0.0271
      6  CG        27.4540   26.8200   16.5450 C.3    39  LYS39       0.0035
      7  CD        28.0510   26.8320   15.1240 C.3    39  LYS39       0.0206
      8  CE        27.9870   28.2410   14.5210 C.3    39  LYS39       0.1093
      9  NZ        28.3110   28.2800   13.0610 N.3    39  LYS39      -0.1314
     10  N         21.9500   23.8920    8.4770 N.3   183  ASP183     -0.1225
     11  CA        22.3010   24.6630    9.6710 C.3   183  ASP183      0.1805
     12  C         23.2070   25.8690    9.3560 C.2   183  ASP183      0.2598
     13  O         23.6240   26.5960   10.2680 O.2   183  ASP183     -0.2718
     14  CB        22.9710   23.7510   10.7160 C.3   183  ASP183      0.1424
     15  CG        24.0170   22.8200   10.0970 C.2   183  ASP183      0.3668
     16  OD1       24.0300   22.6690    8.8500 O.co2 183  ASP183     -0.2456
     17  OD2       24.8160   22.2240   10.8550 O.co2 183  ASP183     -0.2456
     18  N         23.5090   26.0710    8.0740 N.am  184  ASN184     -0.1961
     19  CA        24.4160   27.1360    7.6640 C.3   184  ASN184      0.1804
     20  C         23.8500   28.0240    6.5460 C.2   184  ASN184      0.2463
     21  O         24.5670   28.3740    5.5930 O.2   184  ASN184     -0.2730
     22  CB        25.7630   26.5550    7.2370 C.3   184  ASN184      0.1195
     23  CG        26.5510   25.9910    8.4050 C.2   184  ASN184      0.2630
     24  OD1       26.9360   26.7230    9.3170 O.2   184  ASN184     -0.2716
     25  ND2       26.8090   24.6910    8.3760 N.am  184  ASN184     -0.0877
     26  N         22.5760   28.4320    6.6800 N.am  185  PRO185     -0.2716
     27  CA        21.9590   29.2510    5.6220 C.3   185  PRO185      0.1536
     28  C         22.7590   30.5340    5.3380 C.2   185  PRO185      0.2599
     29  O         22.8140   30.9740    4.2030 O.2   185  PRO185     -0.2715
     30  CB        20.5600   29.5610    6.1800 C.3   185  PRO185      0.0310
     31  CG        20.7290   29.4750    7.6740 C.3   185  PRO185      0.0237
     32  CD        21.7880   28.4320    7.9260 C.3   185  PRO185      0.0939
     33  N         23.3940   31.1090    6.3510 N.am  186  GLY186     -0.1941
     34  CA        24.2490   32.2730    6.1430 C.3   186  GLY186      0.2014
     35  C         25.3280   32.0880    5.0860 C.2   186  GLY186      0.2638
     36  O         25.7480   33.0440    4.4350 O.2   186  GLY186     -0.2714
     37  N         25.7880   30.8540    4.9190 N.am  187  LYS187     -0.1977
     38  CA        26.8040   30.5470    3.9200 C.3   187  LYS187      0.1596
     39  C         26.1960   30.5430    2.5170 C.2   187  LYS187      0.2287
     40  O         26.7840   31.0770    1.5740 O.2   187  LYS187     -0.2864
     41  CB        27.4730   29.2060    4.2230 C.3   187  LYS187      0.0298
     42  CG        28.4400   29.2420    5.3940 C.3   187  LYS187      0.0038
     43  CD        28.7350   27.8290    5.8690 C.3   187  LYS187      0.0206
     44  CE        30.2130   27.5920    6.1370 C.3   187  LYS187      0.1093
     45  NZ        30.5360   26.1270    6.1760 N.3   187  LYS187     -0.1314
     46  N         23.9000   32.4160    1.6550 N.3   189  MET189     -0.1230
     47  CA        23.7570   33.8360    1.3570 C.3   189  MET189      0.1702
     48  C         25.0380   34.4070    0.7640 C.2   189  MET189      0.2592
     49  O         24.9970   35.1280   -0.2250 O.2   189  MET189     -0.2718
     50  CB        23.3540   34.6220    2.6100 C.3   189  MET189      0.0401
     51  CG        23.1130   36.1080    2.3580 C.3   189  MET189      0.0596
     52  SD        22.4370   36.9940    3.7880 S.3   189  MET189     -0.1393
     53  CE        23.8680   36.9970    4.8780 C.3   189  MET189      0.0692
     54  N         26.1770   34.0770    1.3650 N.am  190  GLY190     -0.1957
     55  CA        27.4640   34.5680    0.8980 C.3   190  GLY190      0.1869
     56  C         27.9050   33.9470   -0.4180 C.2   190  GLY190      0.2309
     57  O         28.6790   34.5350   -1.1790 O.2   190  GLY190     -0.2863
     58  N         26.3360   35.7120   -4.1100 N.3   193  ALA193     -0.1245
     59  CA        27.0300   36.7820   -4.8070 C.3   193  ALA193      0.1562
     60  C         27.9540   36.2670   -5.9040 C.2   193  ALA193      0.2260
     61  O         28.3270   37.0090   -6.8230 O.2   193  ALA193     -0.2867
     62  CB        27.8220   37.6140   -3.8140 C.3   193  ALA193      0.0290
     63  N         21.5030   40.5700    3.2470 N.3   316  THR316     -0.1218
     64  CA        21.4310   41.0030    1.8730 C.3   316  THR316      0.1862
     65  C         20.0060   41.4610    1.5510 C.2   316  THR316      0.2287
     66  O         19.8020   42.5660    1.0680 O.2   316  THR316     -0.2866
     67  CB        21.8990   39.8860    0.9190 C.3   316  THR316      0.1770
     68  OG1       23.3050   39.6640    1.1020 O.3   316  THR316     -0.2211
     69  CG2       21.6370   40.2660   -0.5320 C.3   316  THR316      0.0375
     70  N         24.2960   36.1120   16.4570 N.3   417  PRO417     -0.2102
     71  CA        25.3570   35.4830   15.6580 C.3   417  PRO417      0.1504
     72  C         26.5360   36.3830   15.2520 C.2   417  PRO417      0.2575
     73  O         27.5460   35.8410   14.8090 O.2   417  PRO417     -0.2718
     74  CB        24.6090   35.0240   14.3970 C.3   417  PRO417      0.0282
     75  CG        23.4700   35.9420   14.2950 C.3   417  PRO417      0.0208
     76  CD        23.0380   36.2210   15.7060 C.3   417  PRO417      0.0893
     77  N         26.4180   37.7020   15.3960 N.am  418  ARG418     -0.1980
     78  CA        27.4730   38.6160   14.9710 C.3   418  ARG418      0.1597
     79  C         28.3200   39.0820   16.1270 C.2   418  ARG418      0.2287
     80  O         27.7990   39.3990   17.1880 O.2   418  ARG418     -0.2864
     81  CB        26.8760   39.8370   14.2770 C.3   418  ARG418      0.0334
     82  CG        25.9810   39.4960   13.0660 C.3   418  ARG418      0.0492
     83  CD        26.8120   39.2250   11.8060 C.3   418  ARG418      0.2205
     84  NE        27.3970   37.8850   11.7820 N.pl3 418  ARG418     -0.0865
     85  CZ        26.6980   36.7900   11.4910 C.cat 418  ARG418      0.5346
     86  NH1       25.4010   36.8930   11.2210 N.pl3 418  ARG418      0.1354
     87  NH2       27.2870   35.5960   11.4770 N.pl3 418  ARG418      0.1354
     88  N         38.3440   29.1070    6.5670 N.3   445  ARG445     -0.1245
     89  CA        37.0150   29.3470    6.0150 C.3   445  ARG445      0.1563
     90  C         37.1390   29.2070    4.5100 C.2   445  ARG445      0.2260
     91  O         38.2420   29.3210    3.9650 O.2   445  ARG445     -0.2867
     92  CB        36.4870   30.7600    6.3200 C.3   445  ARG445      0.0307
     93  CG        36.5620   31.2020    7.7560 C.3   445  ARG445      0.0489
     94  CD        35.3810   32.1090    8.1330 C.3   445  ARG445      0.2205
     95  NE        35.1260   33.1510    7.1490 N.pl3 445  ARG445     -0.0865
     96  CZ        34.1910   34.0890    7.2780 C.cat 445  ARG445      0.5346
     97  NH1       33.4170   34.1210    8.3620 N.pl3 445  ARG445      0.1354
     98  NH2       34.0230   34.9970    6.3210 N.pl3 445  ARG445      0.1354
     99  N         33.8030   33.2310    1.1510 N.3   449  ARG449     -0.1231
    100  CA        33.0380   33.9460    2.1840 C.3   449  ARG449      0.1679
    101  C         33.6270   35.3370    2.4110 C.2   449  ARG449      0.2434
    102  O         34.8330   35.4840    2.5220 O.2   449  ARG449     -0.2733
    103  CB        33.0300   33.1860    3.5200 C.3   449  ARG449      0.0321
    104  CG        33.0100   31.6660    3.4030 C.3   449  ARG449      0.0489
    105  CD        31.8140   31.0570    4.1060 C.3   449  ARG449      0.2205
    106  NE        31.6800   31.5070    5.4910 N.pl3 449  ARG449     -0.0865
    107  CZ        32.1070   30.8310    6.5510 C.cat 449  ARG449      0.5346
    108  NH1       32.7100   29.6630    6.3970 N.pl3 449  ARG449      0.1354
    109  NH2       31.9310   31.3310    7.7630 N.pl3 449  ARG449      0.1354
    110  N         32.7700   36.3620    2.4990 N.am  450  PRO450     -0.2718
    111  CA        33.2440   37.7320    2.7010 C.3   450  PRO450      0.1535
    112  C         33.3760   38.0970    4.1850 C.2   450  PRO450      0.2599
    113  O         32.7750   37.4490    5.0340 O.2   450  PRO450     -0.2715
    114  CB        32.1260   38.5570    2.0680 C.3   450  PRO450      0.0310
    115  CG        30.8890   37.7670    2.4060 C.3   450  PRO450      0.0237
    116  CD        31.3030   36.3100    2.3410 C.3   450  PRO450      0.0939
    117  N         34.1720   39.1240    4.4760 N.am  451  PHE451     -0.1960
    118  CA        34.2580   39.7080    5.8180 C.3   451  PHE451      0.1771
    119  C         33.5910   41.0730    5.8260 C.2   451  PHE451      0.2619
    120  O         33.2550   41.6180    4.7690 O.2   451  PHE451     -0.2715
    121  CB        35.7130   39.8310    6.2960 C.3   451  PHE451      0.0574
    122  CG        36.4080   38.5080    6.4670 C.ar  451  PHE451     -0.0200
    123  CD1       36.1800   37.7310    7.5850 C.ar  451  PHE451     -0.0042
    124  CD2       37.2770   38.0380    5.5040 C.ar  451  PHE451     -0.0042
    125  CE1       36.8110   36.5140    7.7420 C.ar  451  PHE451     -0.0003
    126  CE2       37.9200   36.8170    5.6630 C.ar  451  PHE451     -0.0003
    127  CZ        37.6850   36.0570    6.7770 C.ar  451  PHE451     -0.0000
    128  N         33.4150   41.6270    7.0200 N.am  452  ALA452     -0.1977
    129  CA        32.6450   42.8460    7.1870 C.3   452  ALA452      0.1597
    130  C         33.3610   43.8220    8.1200 C.2   452  ALA452      0.2287
    131  O         34.2640   43.4370    8.8600 O.2   452  ALA452     -0.2864
    132  CB        31.2280   42.5240    7.6900 C.3   452  ALA452      0.0319
    133  N         23.1260   44.7790    4.7860 N.3   476  THR476     -0.1218
    134  CA        24.1310   45.1900    3.8220 C.3   476  THR476      0.1862
    135  C         23.7510   46.5550    3.2500 C.2   476  THR476      0.2287
    136  O         22.5750   46.9370    3.2300 O.2   476  THR476     -0.2866
    137  CB        24.2350   44.1800    2.6890 C.3   476  THR476      0.1770
    138  OG1       22.9450   44.0360    2.0740 O.3   476  THR476     -0.2211
    139  CG2       24.6890   42.8390    3.2310 C.3   476  THR476      0.0375
    140  N         36.8620   44.1830    3.3370 N.3   490  VAL490     -0.1245
    141  CA        35.5010   44.1680    3.8710 C.3   490  VAL490      0.1561
    142  C         34.4570   44.4590    2.7940 C.2   490  VAL490      0.2260
    143  O         33.3230   44.8320    3.0880 O.2   490  VAL490     -0.2867
    144  CB        35.3470   45.1480    5.0350 C.3   490  VAL490      0.0252
    145  CG1       36.2060   44.6980    6.2020 C.3   490  VAL490      0.0019
    146  CG2       35.7310   46.5550    4.5900 C.3   490  VAL490      0.0019
    147  N         32.3450   42.9040   -0.6400 N.3   492  HIS492     -0.1241
    148  CA        31.8820   41.6380   -1.1880 C.3   492  HIS492      0.1621
    149  C         31.8440   41.7120   -2.7090 C.2   492  HIS492      0.2264
    150  O         31.9730   42.7940   -3.2960 O.2   492  HIS492     -0.2867
    151  CB        30.5080   41.2500   -0.6190 C.3   492  HIS492      0.0745
    152  CG        30.1260   39.8160   -0.8690 C.ar  492  HIS492      0.0817
    153  ND1       31.0270   38.8650   -1.3080 N.ar  492  HIS492     -0.2268
    154  CD2       28.9370   39.1730   -0.7440 C.ar  492  HIS492      0.1154
    155  CE1       30.4120   37.7000   -1.4350 C.ar  492  HIS492      0.1986
    156  NE2       29.1440   37.8590   -1.0980 N.ar  492  HIS492     -0.2212
    157  N         29.8060   42.0230   -4.8800 N.3   494  ASP494     -0.1239
    158  CA        28.9520   43.0400   -5.5130 C.3   494  ASP494      0.1674
    159  C         29.0740   44.4780   -4.9600 C.2   494  ASP494      0.2266
    160  O         28.1580   45.2840   -5.1240 O.2   494  ASP494     -0.2867
    161  CB        27.4810   42.5880   -5.5130 C.3   494  ASP494      0.1410
    162  CG        27.0860   41.8590   -4.2360 C.2   494  ASP494      0.3668
    163  OD1       27.8390   41.9270   -3.2450 O.co2 494  ASP494     -0.2456
    164  OD2       26.0140   41.2190   -4.2200 O.co2 494  ASP494     -0.2456
    165  N         28.9630   45.5260   -1.9940 N.3   496  SER496     -0.1202
    166  CA        28.1950   45.6910   -0.7790 C.3   496  SER496      0.2020
    167  C         29.0890   45.4110    0.4280 C.2   496  SER496      0.2619
    168  O         30.0640   44.6570    0.3330 O.2   496  SER496     -0.2717
    169  CB        27.0210   44.7130   -0.7800 C.3   496  SER496      0.2103
    170  OG        27.4830   43.3700   -0.7190 O.3   496  SER496     -0.2182
    171  N         28.7560   46.0270    1.5580 N.am  497  THR497     -0.1938
    172  CA        29.3430   45.6430    2.8350 C.3   497  THR497      0.2028
    173  C         28.2470   45.4470    3.8860 C.2   497  THR497      0.2642
    174  O         27.1380   45.9660    3.7390 O.2   497  THR497     -0.2714
    175  CB        30.3980   46.6560    3.3100 C.3   497  THR497      0.1808
    176  OG1       31.3190   46.0090    4.1900 O.3   497  THR497     -0.2208
    177  CG2       29.7550   47.8220    4.0150 C.3   497  THR497      0.0379
    178  N         28.5530   44.6690    4.9220 N.am  498  ARG498     -0.1977
    179  CA        27.6110   44.3840    6.0120 C.3   498  ARG498      0.1597
    180  C         28.2020   44.9710    7.2900 C.2   498  ARG498      0.2287
    181  O         28.8430   44.2560    8.0640 O.2   498  ARG498     -0.2864
    182  CB        27.4050   42.8650    6.1590 C.3   498  ARG498      0.0334
    183  CG        26.2640   42.4350    7.1030 C.3   498  ARG498      0.0492
    184  CD        26.4860   41.0180    7.6430 C.3   498  ARG498      0.2205
    185  NE        27.6980   40.9670    8.4680 N.pl3 498  ARG498     -0.0865
    186  CZ        28.3350   39.8550    8.8250 C.cat 498  ARG498      0.5346
    187  NH1       27.8780   38.6740    8.4480 N.pl3 498  ARG498      0.1354
    188  NH2       29.4310   39.9260    9.5690 N.pl3 498  ARG498      0.1354
    189  N         33.9260   37.2180   13.6520 N.3   530  SER530     -0.1217
    190  CA        33.6570   36.6580   14.9780 C.3   530  SER530      0.1889
    191  C         34.7930   35.7950   15.4920 C.2   530  SER530      0.2288
    192  O         35.4380   35.0630   14.7280 O.2   530  SER530     -0.2866
    193  CB        32.3370   35.8840   15.0240 C.3   530  SER530      0.2089
    194  OG        32.4130   34.7290   14.2220 O.3   530  SER530     -0.2183
    195  N         36.1160   32.8640   16.9690 N.3   532  ASN532     -0.1240
    196  CA        35.8240   31.4450   17.1780 C.3   532  ASN532      0.1653
    197  C         36.5520   30.5760   16.1630 C.2   532  ASN532      0.2266
    198  O         36.9230   31.0660   15.1140 O.2   532  ASN532     -0.2867
    199  CB        34.3210   31.1850   17.0710 C.3   532  ASN532      0.1155
    200  CG        33.7140   31.7330   15.7750 C.2   532  ASN532      0.2627
    201  OD1       33.3120   32.8930   15.7170 O.2   532  ASN532     -0.2716
    202  ND2       33.6270   30.8900   14.7440 N.am  532  ASN532     -0.0877
    203  N         36.3420   27.0890   13.6080 N.3   534  ARG534     -0.1245
    204  CA        35.3360   26.7190   12.6160 C.3   534  ARG534      0.1563
    205  C         34.0560   26.0580   13.1870 C.2   534  ARG534      0.2260
    206  O         32.9320   26.4250   12.8190 O.2   534  ARG534     -0.2867
    207  CB        35.9850   25.8460   11.5330 C.3   534  ARG534      0.0307
    208  CG        35.0870   25.4830   10.3720 C.3   534  ARG534      0.0489
    209  CD        35.8150   24.5680    9.3850 C.3   534  ARG534      0.2205
    210  NE        34.9840   24.2090    8.2340 N.pl3 534  ARG534     -0.0865
    211  CZ        34.4990   25.0820    7.3520 C.cat 534  ARG534      0.5346
    212  NH1       34.7460   26.3790    7.4880 N.pl3 534  ARG534      0.1354
    213  NH2       33.7570   24.6600    6.3330 N.pl3 534  ARG534      0.1354
    214  N         33.0560   25.6750   16.7040 N.3   536  GLU536     -0.1245
    215  CA        32.5460   26.2570   17.9350 C.3   536  GLU536      0.1567
    216  C         31.7600   27.5700   17.8160 C.2   536  GLU536      0.2260
    217  O         31.9340   28.3370   16.8700 O.2   536  GLU536     -0.2867
    218  CB        33.7210   26.5130   18.8680 C.3   536  GLU536      0.0388
    219  CG        34.5610   27.6860   18.4230 C.3   536  GLU536      0.1160
    220  CD        35.6940   27.9680   19.3700 C.2   536  GLU536      0.3649
    221  OE1       36.5960   28.7360   18.9840 O.co2 536  GLU536     -0.2457
    222  OE2       35.6760   27.4210   20.5010 O.co2 536  GLU536     -0.2457
@<TRIPOS>BOND
     1    61    60    2
     2    60    59    1
     3   158   161    1
     4   158   159    1
     5   158   157    1
     6   161   162    1
     7   160   159    2
     8    59    58    1
     9    59    62    1
    10   162   164   ar
    11   162   163   ar
    12   150   149    2
    13   149   148    1
    14   165   166    1
    15   155   153   ar
    16   155   156   ar
    17   153   152   ar
    18   148   147    1
    19   148   151    1
    20    57    56    2
    21   156   154   ar
    22   152   154   ar
    23   152   151    1
    24   169   166    1
    25   169   170    1
    26   166   167    1
    27    69    67    1
    28    56    55    1
    29    49    48    2
    30   168   167    2
    31   167   171   am
    32    48    47    1
    33    48    54   am
    34    55    54    1
    35    67    68    1
    36    67    64    1
    37    66    65    2
    38    99   100    1
    39    47    46    1
    40    47    50    1
    41    65    64    1
    42   171   172    1
    43    40    39    2
    44    64    63    1
    45   114   115    1
    46   114   111    1
    47   138   137    1
    48   100   101    1
    49   100   103    1
    50   116   115    1
    51   116   110    1
    52    51    50    1
    53    51    52    1
    54   101   110   am
    55   101   102    2
    56   110   111    1
    57    39    38    1
    58   137   139    1
    59   137   134    1
    60   111   112    1
    61   142   143    2
    62   142   141    1
    63   172   175    1
    64   172   173    1
    65   136   135    2
    66   135   134    1
    67   175   177    1
    68   175   176    1
    69   140   141    1
    70   104   103    1
    71   104   105    1
    72   174   173    2
    73    52    53    1
    74   134   133    1
    75   141   144    1
    76   173   178   am
    77    38    41    1
    78    38    37    1
    79    91    90    2
    80   105   106    1
    81   112   117   am
    82   112   113    2
    83    29    28    2
    84    41    42    1
    85    36    35    2
    86   117   118    1
    87    90    89    1
    88   146   144    1
    89   120   119    2
    90    37    35   am
    91   178   179    1
    92   144   145    1
    93    35    34    1
    94    28    27    1
    95    28    33   am
    96    42    43    1
    97   106   107    2
    98   124   126   ar
    99   124   122   ar
   100    21    20    2
   101    27    30    1
   102    27    26    1
   103   126   127   ar
   104   118   119    1
   105   118   121    1
   106   119   128   am
   107    43    44    1
   108   179   182    1
   109   179   180    1
   110    89    92    1
   111    89    88    1
   112    44    45    1
   113    34    33    1
   114   182   183    1
   115    30    31    1
   116   121   122    1
   117    92    93    1
   118    98    96    1
   119   213   211    1
   120   108   107    1
   121   122   123   ar
   122    20    26   am
   123    20    19    1
   124   107   109    1
   125    26    32    1
   126   127   125   ar
   127   128   129    1
   128   183   184    1
   129    95    96    2
   130    95    94    1
   131   129   132    1
   132   129   130    1
   133    22    19    1
   134    22    23    1
   135    96    97    1
   136   180   181    2
   137   211   212    1
   138   211   210    2
   139   123   125   ar
   140   184   185    1
   141    19    18    1
   142    31    32    1
   143    93    94    1
   144    18    12   am
   145   130   131    2
   146   210   209    1
   147    25    23   am
   148    23    24    2
   149   187   186    1
   150   185   186    2
   151    10    11    1
   152   186   188    1
   153    16    15   ar
   154    12    11    1
   155    12    13    2
   156   209   208    1
   157    11    14    1
   158    15    14    1
   159    15    17   ar
   160   208   207    1
   161    86    85    1
   162    87    85    1
   163    85    84    2
   164   207   204    1
   165    84    83    1
   166    83    82    1
   167   204   205    1
   168   204   203    1
   169   206   205    2
   170     9     8    1
   171    82    81    1
   172   189   190    1
   173   194   193    1
   174    81    78    1
   175    75    74    1
   176    75    76    1
   177    74    71    1
   178     8     7    1
   179   192   191    2
   180   202   200   am
   181    73    72    2
   182    78    77    1
   183    78    79    1
   184   190   193    1
   185   190   191    1
   186   198   197    2
   187     7     6    1
   188    72    77   am
   189    72    71    1
   190    71    70    1
   191    76    70    1
   192   201   200    2
   193   200   199    1
   194    79    80    2
   195   197   196    1
   196     6     5    1
   197   214   215    1
   198   217   216    2
   199   195   196    1
   200   199   196    1
   201     5     2    1
   202   216   215    1
   203   215   218    1
   204     4     3    2
   205     3     2    1
   206   219   218    1
   207   219   220    1
   208     2     1    1
   209   221   220   ar
   210   220   222   ar
