@<TRIPOS>MOLECULE
tmp/3vf2A01.pdb
 177 172 0 0 0
SMALL
GASTEIGER

@<TRIPOS>ATOM
      1  N         16.0240   24.2330   19.0400 N.3    14  HIS14      -0.1226
      2  CA        17.3300   24.8040   18.7470 C.3    14  HIS14       0.1752
      3  C         17.4530   26.2240   19.3040 C.2    14  HIS14       0.2596
      4  O         16.4500   26.9280   19.4830 O.2    14  HIS14      -0.2718
      5  CB        17.5700   24.8030   17.2310 C.3    14  HIS14       0.0759
      6  CG        16.5750   25.6210   16.4630 C.ar   14  HIS14       0.0818
      7  ND1       16.7850   26.9500   16.1500 N.ar   14  HIS14      -0.2268
      8  CD2       15.3560   25.3020   15.9640 C.ar   14  HIS14       0.1154
      9  CE1       15.7380   27.4090   15.4830 C.ar   14  HIS14       0.1986
     10  NE2       14.8580   26.4280   15.3570 N.ar   14  HIS14      -0.2212
     11  N         18.6890   26.6430   19.5650 N.am   15  ASP15      -0.1974
     12  CA        18.9790   28.0370   19.9280 C.3    15  ASP15       0.1709
     13  C         18.3500   28.4490   21.2600 C.2    15  ASP15       0.2293
     14  O         17.7620   29.5290   21.3750 O.2    15  ASP15      -0.2864
     15  CB        18.5160   29.0080   18.8260 C.3    15  ASP15       0.1436
     16  CG        19.4470   29.0270   17.6140 C.2    15  ASP15       0.3671
     17  OD1       20.6760   29.2300   17.7970 O.co2  15  ASP15      -0.2456
     18  OD2       18.9340   28.8370   16.4850 O.co2  15  ASP15      -0.2456
     19  N          7.0680   30.1300   22.7680 N.3    71  TRP71      -0.1241
     20  CA         6.2390   29.3330   21.8730 C.3    71  TRP71       0.1605
     21  C          5.0150   29.0000   22.6690 C.2    71  TRP71       0.2264
     22  O          5.0820   28.9020   23.8950 O.2    71  TRP71      -0.2867
     23  CB         6.8960   27.9970   21.5170 C.3    71  TRP71       0.0550
     24  CG         8.1960   28.0570   20.7600 C.ar   71  TRP71       0.0003
     25  CD1        9.4220   28.4250   21.2450 C.ar   71  TRP71       0.0946
     26  CD2        8.4030   27.6820   19.3950 C.ar   71  TRP71       0.0152
     27  NE1       10.3690   28.3240   20.2560 N.ar   71  TRP71      -0.2442
     28  CE2        9.7710   27.8720   19.1130 C.ar   71  TRP71       0.0810
     29  CE3        7.5620   27.2070   18.3830 C.ar   71  TRP71       0.0012
     30  CZ2       10.3140   27.6100   17.8680 C.ar   71  TRP71       0.0191
     31  CZ3        8.1060   26.9450   17.1560 C.ar   71  TRP71       0.0001
     32  CH2        9.4720   27.1510   16.9040 C.ar   71  TRP71       0.0015
     33  N          4.6960   31.9700   19.2540 N.3   114  HIS114     -0.1241
     34  CA         6.0180   32.1080   18.6790 C.3   114  HIS114      0.1621
     35  C          6.2510   33.3750   17.8490 C.2   114  HIS114      0.2264
     36  O          7.2340   34.0670   18.0660 O.2   114  HIS114     -0.2867
     37  CB         6.4190   30.8690   17.8950 C.3   114  HIS114      0.0745
     38  CG         7.8710   30.8430   17.5680 C.ar  114  HIS114      0.0817
     39  ND1        8.8450   30.9300   18.5380 N.ar  114  HIS114     -0.2268
     40  CD2        8.5230   30.8010   16.3820 C.ar  114  HIS114      0.1154
     41  CE1       10.0370   30.9240   17.9640 C.ar  114  HIS114      0.1986
     42  NE2        9.8700   30.8430   16.6560 N.ar  114  HIS114     -0.2212
     43  N          8.7320   36.8370   18.3360 N.3   118  HIS118     -0.1241
     44  CA         9.5700   37.4810   17.3280 C.3   118  HIS118      0.1621
     45  C          9.2010   38.9530   17.1210 C.2   118  HIS118      0.2264
     46  O         10.0730   39.8270   17.0640 O.2   118  HIS118     -0.2867
     47  CB         9.3590   36.8020   15.9790 C.3   118  HIS118      0.0745
     48  CG        10.1800   35.5700   15.7660 C.ar  118  HIS118      0.0817
     49  ND1       11.5370   35.5280   15.9940 N.ar  118  HIS118     -0.2268
     50  CD2        9.8400   34.3500   15.2910 C.ar  118  HIS118      0.1154
     51  CE1       11.9940   34.3270   15.6890 C.ar  118  HIS118      0.1986
     52  NE2       10.9860   33.5950   15.2610 N.ar  118  HIS118     -0.2212
     53  N         10.2210   33.2880    9.1690 N.3   137  ASP137     -0.1225
     54  CA        11.1680   32.2460    9.5910 C.3   137  ASP137      0.1805
     55  C         10.9540   30.8570    8.9570 C.2   137  ASP137      0.2598
     56  O         10.2850   30.7160    7.9420 O.2   137  ASP137     -0.2718
     57  CB        11.2010   32.1360   11.1210 C.3   137  ASP137      0.1424
     58  CG         9.8720   31.6710   11.7130 C.2   137  ASP137      0.3668
     59  OD1        8.8620   31.6450   10.9980 O.co2 137  ASP137     -0.2456
     60  OD2        9.8290   31.3380   12.9050 O.co2 137  ASP137     -0.2456
     61  N         11.5470   29.8330    9.5560 N.am  138  GLY138     -0.1942
     62  CA        11.2530   28.4680    9.1720 C.3   138  GLY138      0.2014
     63  C          9.7980   28.1400    9.4730 C.2   138  GLY138      0.2638
     64  O          9.0110   27.9040    8.5690 O.2   138  GLY138     -0.2714
     65  N          9.4290   28.1420   10.7490 N.am  139  GLN139     -0.1977
     66  CA         8.0650   27.8170   11.1430 C.3   139  GLN139      0.1601
     67  C          7.8740   27.8830   12.6650 C.2   139  GLN139      0.2287
     68  O          8.5940   27.2420   13.4300 O.2   139  GLN139     -0.2864
     69  CB         7.6620   26.4380   10.6090 C.3   139  GLN139      0.0394
     70  CG         6.1990   26.1150   10.8050 C.3   139  GLN139      0.0908
     71  CD         5.8360   24.7130   10.3590 C.2   139  GLN139      0.2608
     72  OE1        6.5950   24.0590    9.6540 O.2   139  GLN139     -0.2717
     73  NE2        4.6740   24.2380   10.7880 N.am  139  GLN139     -0.0878
     74  N         12.1390   29.9710    5.0210 N.3   168  GLY168     -0.1210
     75  CA        13.2580   29.5300    5.8280 C.3   168  GLY168      0.1956
     76  C         13.6170   28.0990    5.4600 C.2   168  GLY168      0.2611
     77  O         14.7440   27.8000    5.0630 O.2   168  GLY168     -0.2717
     78  N         12.6400   27.2040    5.5820 N.am  169  PHE169     -0.1976
     79  CA        12.8160   25.8150    5.1740 C.3   169  PHE169      0.1639
     80  C         13.3300   25.7410    3.7540 C.2   169  PHE169      0.2290
     81  O         14.2700   24.9930    3.4700 O.2   169  PHE169     -0.2864
     82  CB        11.5050   25.0480    5.2830 C.3   169  PHE169      0.0560
     83  CG        11.0580   24.8320    6.6840 C.ar  169  PHE169     -0.0200
     84  CD1       11.9130   25.0810    7.7390 C.ar  169  PHE169     -0.0042
     85  CD2        9.7850   24.3720    6.9530 C.ar  169  PHE169     -0.0042
     86  CE1       11.5040   24.8830    9.0340 C.ar  169  PHE169     -0.0003
     87  CE2        9.3740   24.1650    8.2460 C.ar  169  PHE169     -0.0003
     88  CZ        10.2330   24.4240    9.2890 C.ar  169  PHE169     -0.0000
     89  N         15.0280   27.9190    1.9630 N.3   171  TYR171     -0.1227
     90  CA        16.4270   28.3140    1.9510 C.3   171  TYR171      0.1736
     91  C         17.3250   27.2250    2.5590 C.2   171  TYR171      0.2595
     92  O         18.3370   26.8300    1.9670 O.2   171  TYR171     -0.2718
     93  CB        16.5900   29.6260    2.7110 C.3   171  TYR171      0.0548
     94  CG        17.7350   30.4900    2.2570 C.ar  171  TYR171     -0.0200
     95  CD1       17.6970   31.1310    1.0420 C.ar  171  TYR171     -0.0009
     96  CD2       18.8480   30.6860    3.0610 C.ar  171  TYR171     -0.0009
     97  CE1       18.7470   31.9380    0.6190 C.ar  171  TYR171      0.0417
     98  CE2       19.9030   31.5060    2.6510 C.ar  171  TYR171      0.0417
     99  CZ        19.8420   32.1270    1.4240 C.ar  171  TYR171      0.1957
    100  OH        20.8710   32.9400    1.0070 O.3   171  TYR171     -0.2866
    101  N         16.9550   26.7450    3.7410 N.am  172  GLU172     -0.1979
    102  CA        17.6930   25.6730    4.4060 C.3   172  GLU172      0.1602
    103  C         17.9610   24.4500    3.5330 C.2   172  GLU172      0.2287
    104  O         19.0740   23.9210    3.5150 O.2   172  GLU172     -0.2864
    105  CB        16.9080   25.1720    5.6010 C.3   172  GLU172      0.0415
    106  CG        17.1810   25.8530    6.8920 C.3   172  GLU172      0.1163
    107  CD        16.6320   25.0230    8.0270 C.2   172  GLU172      0.3649
    108  OE1       17.0160   23.8290    8.0910 O.co2 172  GLU172     -0.2457
    109  OE2       15.7990   25.5350    8.8180 O.co2 172  GLU172     -0.2457
    110  N         22.7340   28.5210    6.5370 N.3   185  PRO185     -0.2102
    111  CA        22.1470   29.3020    5.4470 C.3   185  PRO185      0.1504
    112  C         22.9750   30.5330    5.1670 C.2   185  PRO185      0.2576
    113  O         23.0540   30.9660    4.0320 O.2   185  PRO185     -0.2718
    114  CB        20.7610   29.6890    5.9860 C.3   185  PRO185      0.0282
    115  CG        20.8240   29.4660    7.4280 C.3   185  PRO185      0.0208
    116  CD        21.8350   28.4020    7.6910 C.3   185  PRO185      0.0893
    117  N         23.5780   31.0920    6.2040 N.am  186  GLY186     -0.1957
    118  CA        24.4050   32.2660    6.0490 C.3   186  GLY186      0.1869
    119  C         25.4770   32.0490    5.0080 C.2   186  GLY186      0.2309
    120  O         25.7930   32.9430    4.2390 O.2   186  GLY186     -0.2863
    121  N         23.7960   32.4830    1.7590 N.3   189  MET189     -0.1245
    122  CA        23.7050   33.8900    1.4410 C.3   189  MET189      0.1570
    123  C         25.0360   34.3220    0.8450 C.2   189  MET189      0.2261
    124  O         25.0760   35.0290   -0.1410 O.2   189  MET189     -0.2867
    125  CB        23.3940   34.7240    2.6780 C.3   189  MET189      0.0387
    126  CG        22.7980   36.0880    2.3580 C.3   189  MET189      0.0595
    127  SD        22.6100   37.0990    3.8520 S.3   189  MET189     -0.1393
    128  CE        24.3340   37.1770    4.3260 C.3   189  MET189      0.0692
    129  N         14.1350   34.2970   -2.7130 N.3   285  LEU285     -0.1245
    130  CA        13.8490   34.7790   -1.3760 C.3   285  LEU285      0.1561
    131  C         13.6150   36.2880   -1.3740 C.2   285  LEU285      0.2260
    132  O         12.6650   36.7870   -0.7590 O.2   285  LEU285     -0.2867
    133  CB        14.9900   34.4180   -0.4300 C.3   285  LEU285      0.0270
    134  CG        14.7000   34.8100    1.0150 C.3   285  LEU285      0.0019
    135  CD1       13.6080   33.9350    1.5750 C.3   285  LEU285      0.0001
    136  CD2       15.9410   34.7060    1.8520 C.3   285  LEU285      0.0001
    137  N         14.0210   33.8700   11.4840 N.3   310  GLY310     -0.1210
    138  CA        15.3150   33.4510   10.9760 C.3   310  GLY310      0.1956
    139  C         15.6920   34.1130    9.6630 C.2   310  GLY310      0.2611
    140  O         16.8460   34.4870    9.4490 O.2   310  GLY310     -0.2717
    141  N         14.7250   34.2640    8.7710 N.am  311  VAL311     -0.1979
    142  CA        15.0470   34.7940    7.4690 C.3   311  VAL311      0.1595
    143  C         15.5000   36.2290    7.6050 C.2   311  VAL311      0.2287
    144  O         16.1830   36.7430    6.7330 O.2   311  VAL311     -0.2864
    145  CB        13.8840   34.6650    6.4830 C.3   311  VAL311      0.0276
    146  CG1       14.2280   35.3290    5.1800 C.3   311  VAL311      0.0022
    147  CG2       13.5710   33.1990    6.2500 C.3   311  VAL311      0.0022
    148  N         17.7730   37.2640    9.1980 N.3   313  LEU313     -0.1231
    149  CA        19.2130   37.3150    9.1900 C.3   313  LEU313      0.1693
    150  C         19.7790   37.5500    7.7880 C.2   313  LEU313      0.2592
    151  O         20.9670   37.8190    7.6310 O.2   313  LEU313     -0.2718
    152  CB        19.7920   36.0470    9.7920 C.3   313  LEU313      0.0284
    153  CG        19.8430   36.0510   11.3130 C.3   313  LEU313      0.0019
    154  CD1       20.0180   34.6400   11.8220 C.3   313  LEU313      0.0001
    155  CD2       20.9500   36.9700   11.7960 C.3   313  LEU313      0.0001
    156  N         18.9450   37.4690    6.7630 N.am  314  ASN314     -0.1974
    157  CA        19.4590   37.7230    5.4310 C.3   314  ASN314      0.1688
    158  C         19.8160   39.2030    5.2190 C.2   314  ASN314      0.2292
    159  O         19.0090   39.9970    4.7560 O.2   314  ASN314     -0.2864
    160  CB        18.5260   37.1850    4.3340 C.3   314  ASN314      0.1181
    161  CG        19.2430   37.0150    3.0090 C.2   314  ASN314      0.2629
    162  OD1       19.4720   37.9810    2.2900 O.2   314  ASN314     -0.2716
    163  ND2       19.6280   35.7940    2.6990 N.am  314  ASN314     -0.0877
    164  N         16.7580   35.5820   14.9420 N.3   337  SER337     -0.1202
    165  CA        16.5080   34.1460   14.9450 C.3   337  SER337      0.2020
    166  C         15.8160   33.7640   16.2570 C.2   337  SER337      0.2618
    167  O         15.4410   34.6380   17.0340 O.2   337  SER337     -0.2717
    168  CB        17.7970   33.3350   14.7330 C.3   337  SER337      0.2103
    169  OG        18.7520   33.5360   15.7680 O.3   337  SER337     -0.2182
    170  N         15.6440   32.4700   16.5080 N.am  338  ASP338     -0.1973
    171  CA        14.9050   32.0510   17.6860 C.3   338  ASP338      0.1709
    172  C         15.5630   32.5030   18.9790 C.2   338  ASP338      0.2293
    173  O         14.8940   32.6520   19.9990 O.2   338  ASP338     -0.2864
    174  CB        14.6830   30.5470   17.7000 C.3   338  ASP338      0.1436
    175  CG        13.5060   30.1370   16.8490 C.2   338  ASP338      0.3671
    176  OD1       13.1340   28.9420   16.8330 O.co2 338  ASP338     -0.2456
    177  OD2       12.9480   31.0360   16.1970 O.co2 338  ASP338     -0.2456
@<TRIPOS>BOND
     1   129   130    1
     2   130   131    1
     3   130   133    1
     4   131   132    2
     5   133   134    1
     6   124   123    2
     7    97    95   ar
     8    97    99   ar
     9   123   122    1
    10   100    99    1
    11   134   135    1
    12   134   136    1
    13    95    94   ar
    14    99    98   ar
    15   122   121    1
    16   122   125    1
    17    90    89    1
    18    90    91    1
    19    90    93    1
    20    92    91    2
    21    94    93    1
    22    94    96   ar
    23   162   161    2
    24   126   125    1
    25   126   127    1
    26    91   101   am
    27    98    96   ar
    28   163   161   am
    29   161   160    1
    30    81    80    2
    31   104   103    2
    32   103   102    1
    33   101   102    1
    34    80    79    1
    35   127   128    1
    36   113   112    2
    37   120   119    2
    38   160   157    1
    39   102   105    1
    40   159   158    2
    41   119   118    1
    42    74    75    1
    43    77    76    2
    44   112   111    1
    45   112   117   am
    46    79    82    1
    47    79    78    1
    48   146   145    1
    49   158   157    1
    50    82    83    1
    51   157   156    1
    52   111   114    1
    53   111   110    1
    54    76    78   am
    55    76    75    1
    56   105   106    1
    57   114   115    1
    58   118   117    1
    59   147   145    1
    60   145   142    1
    61   110   116    1
    62    83    85   ar
    63    83    84   ar
    64   144   143    2
    65   156   150   am
    66   106   107    1
    67    85    87   ar
    68   115   116    1
    69   142   143    1
    70   142   141    1
    71   151   150    2
    72    84    86   ar
    73   150   149    1
    74    56    55    2
    75   107   108   ar
    76   107   109   ar
    77    87    88   ar
    78    64    63    2
    79   141   139   am
    80    55    61   am
    81    55    54    1
    82    86    88   ar
    83    53    54    1
    84    62    63    1
    85    62    61    1
    86   149   148    1
    87   149   152    1
    88   140   139    2
    89    63    65   am
    90    54    57    1
    91    72    71    2
    92   139   138    1
    93   152   153    1
    94    71    73   am
    95    71    70    1
    96    69    70    1
    97    69    66    1
    98    65    66    1
    99   138   137    1
   100    59    58   ar
   101    57    58    1
   102    66    67    1
   103   153   155    1
   104   153   154    1
   105    58    60   ar
   106    67    68    2
   107   168   165    1
   108   168   169    1
   109   164   165    1
   110   165   166    1
   111    52    50   ar
   112    52    51   ar
   113    50    48   ar
   114    10     9   ar
   115    10     8   ar
   116     9     7   ar
   117    51    49   ar
   118    48    47    1
   119    48    49   ar
   120     8     6   ar
   121    47    44    1
   122     7     6   ar
   123   177   175   ar
   124   166   170   am
   125   166   167    2
   126    40    42   ar
   127    40    38   ar
   128     6     5    1
   129    18    16   ar
   130   170   171    1
   131    42    41   ar
   132   176   175   ar
   133   175   174    1
   134    32    31   ar
   135    32    30   ar
   136    46    45    2
   137    45    44    1
   138    31    29   ar
   139     5     2    1
   140    44    43    1
   141    38    37    1
   142    38    39   ar
   143    16    17   ar
   144    16    15    1
   145   171   174    1
   146   171   172    1
   147    35    36    2
   148    35    34    1
   149    30    28   ar
   150    37    34    1
   151    41    39   ar
   152    29    26   ar
   153    34    33    1
   154     2     1    1
   155     2     3    1
   156    15    12    1
   157   172   173    2
   158    28    26   ar
   159    28    27   ar
   160     3     4    2
   161     3    11   am
   162    26    24   ar
   163    11    12    1
   164    12    13    1
   165    27    25   ar
   166    24    25   ar
   167    24    23    1
   168    13    14    2
   169    23    20    1
   170    20    21    1
   171    20    19    1
   172    21    22    2
