@<TRIPOS>MOLECULE
tmp/3vf3A00.pdb
 228 216 0 0 0
SMALL
GASTEIGER

@<TRIPOS>ATOM
      1  N         27.5610   83.1960   16.6690 N.3    15  GLN15      -0.1245
      2  CA        27.8510   82.9430   18.0780 C.3    15  GLN15       0.1566
      3  C         26.7900   82.0840   18.7570 C.2    15  GLN15       0.2260
      4  O         26.8390   81.8710   19.9700 O.2    15  GLN15      -0.2867
      5  CB        28.0080   84.2690   18.8290 C.3    15  GLN15       0.0367
      6  CG        29.1430   85.1340   18.2950 C.3    15  GLN15       0.0905
      7  CD        29.5220   86.2670   19.2310 C.2    15  GLN15       0.2608
      8  OE1       28.7200   86.7060   20.0570 O.2    15  GLN15      -0.2717
      9  NE2       30.7550   86.7490   19.1030 N.am   15  GLN15      -0.0878
     10  N         23.4050   78.3420   25.6220 N.3    33  LEU33      -0.1245
     11  CA        23.4330   78.0150   24.1990 C.3    33  LEU33       0.1561
     12  C         22.6290   76.7490   23.9160 C.2    33  LEU33       0.2260
     13  O         22.8090   75.7340   24.5820 O.2    33  LEU33      -0.2867
     14  CB        24.8830   77.8080   23.7520 C.3    33  LEU33       0.0270
     15  CG        25.1380   77.3920   22.3050 C.3    33  LEU33       0.0019
     16  CD1       24.8490   78.5560   21.3760 C.3    33  LEU33       0.0001
     17  CD2       26.5850   76.9540   22.1610 C.3    33  LEU33       0.0001
     18  N         22.0970   73.6500   21.7790 N.3    35  ASP35      -0.1239
     19  CA        22.9990   72.8930   20.9160 C.3    35  ASP35       0.1674
     20  C         22.4950   71.4830   20.6170 C.2    35  ASP35       0.2266
     21  O         22.6190   70.5840   21.4500 O.2    35  ASP35      -0.2867
     22  CB        24.3790   72.8040   21.5670 C.3    35  ASP35       0.1410
     23  CG        25.3780   72.0740   20.7010 C.2    35  ASP35       0.3668
     24  OD1       25.1330   71.9830   19.4830 O.co2  35  ASP35      -0.2456
     25  OD2       26.4050   71.5950   21.2330 O.co2  35  ASP35      -0.2456
     26  N         23.8490   69.5750   18.6270 N.3    37  GLY37      -0.1210
     27  CA        25.0080   68.8030   18.2140 C.3    37  GLY37       0.1956
     28  C         25.8210   68.1920   19.3440 C.2    37  GLY37       0.2613
     29  O         26.9030   67.6640   19.1010 O.2    37  GLY37      -0.2717
     30  N         25.3170   68.2520   20.5730 N.am   38  SER38      -0.1938
     31  CA        25.9990   67.6320   21.7130 C.3    38  SER38       0.2055
     32  C         24.9640   67.2700   22.7790 C.2    38  SER38       0.2644
     33  O         23.7850   67.5740   22.6200 O.2    38  SER38      -0.2714
     34  CB        27.0540   68.5790   22.3000 C.3    38  SER38       0.2130
     35  OG        26.4530   69.6790   22.9640 O.3    38  SER38      -0.2179
     36  N         25.3920   66.6190   23.8580 N.am   39  SER39      -0.1935
     37  CA        24.4340   66.0440   24.7980 C.3    39  SER39       0.2055
     38  C         24.7410   66.3080   26.2670 C.2    39  SER39       0.2643
     39  O         24.1450   65.6880   27.1480 O.2    39  SER39      -0.2714
     40  CB        24.3200   64.5410   24.5550 C.3    39  SER39       0.2130
     41  OG        24.0210   64.2930   23.1930 O.3    39  SER39      -0.2179
     42  N         25.6640   67.2300   26.5270 N.am   40  ASN40      -0.1971
     43  CA        25.9690   67.6420   27.8960 C.3    40  ASN40       0.1688
     44  C         25.3670   69.0040   28.2270 C.2    40  ASN40       0.2292
     45  O         25.4250   69.9360   27.4210 O.2    40  ASN40      -0.2864
     46  CB        27.4860   67.6940   28.1120 C.3    40  ASN40       0.1181
     47  CG        28.0950   66.3230   28.3050 C.2    40  ASN40       0.2629
     48  OD1       28.4100   65.6270   27.3350 O.2    40  ASN40      -0.2716
     49  ND2       28.2690   65.9240   29.5630 N.am   40  ASN40      -0.0877
     50  N         35.0810   67.7270   28.0590 N.3    72  VAL72      -0.1231
     51  CA        34.4160   67.7190   26.7610 C.3    72  VAL72       0.1678
     52  C         35.1550   68.5530   25.7250 C.2    72  VAL72       0.2434
     53  O         35.2050   69.7810   25.8130 O.2    72  VAL72      -0.2733
     54  CB        32.9680   68.2370   26.8610 C.3    72  VAL72       0.0265
     55  CG1       32.3470   68.2980   25.4710 C.3    72  VAL72       0.0020
     56  CG2       32.1520   67.3250   27.7620 C.3    72  VAL72       0.0020
     57  N         35.7660   67.8820   24.7400 N.am   73  PRO73      -0.2718
     58  CA        36.3460   68.5240   23.5590 C.3    73  PRO73       0.1535
     59  C         35.3550   68.5600   22.3980 C.2    73  PRO73       0.2599
     60  O         34.8700   67.5170   21.9590 O.2    73  PRO73      -0.2715
     61  CB        37.5510   67.6470   23.2530 C.3    73  PRO73       0.0310
     62  CG        37.0840   66.2740   23.6450 C.3    73  PRO73       0.0237
     63  CD        36.0800   66.4430   24.7770 C.3    73  PRO73       0.0939
     64  N         35.0540   69.7580   21.9070 N.am   74  TYR74      -0.1960
     65  CA        34.2620   69.9000   20.6900 C.3    74  TYR74       0.1771
     66  C         35.2230   70.0230   19.5100 C.2    74  TYR74       0.2620
     67  O         36.4360   69.9070   19.6840 O.2    74  TYR74      -0.2715
     68  CB        33.3680   71.1420   20.7800 C.3    74  TYR74       0.0574
     69  CG        32.4540   71.1610   21.9920 C.ar   74  TYR74      -0.0198
     70  CD1       31.2080   70.5420   21.9640 C.ar   74  TYR74      -0.0009
     71  CD2       32.8380   71.8030   23.1610 C.ar   74  TYR74      -0.0009
     72  CE1       30.3710   70.5660   23.0700 C.ar   74  TYR74       0.0417
     73  CE2       32.0100   71.8290   24.2680 C.ar   74  TYR74       0.0417
     74  CZ        30.7810   71.2110   24.2190 C.ar   74  TYR74       0.1957
     75  OH        29.9630   71.2370   25.3280 O.3    74  TYR74      -0.2866
     76  N         34.6900   70.2490   18.3130 N.am   75  THR75      -0.1937
     77  CA        35.5420   70.4280   17.1410 C.3    75  THR75       0.2028
     78  C         36.4770   71.6100   17.3840 C.2    75  THR75       0.2642
     79  O         37.6840   71.5220   17.1480 O.2    75  THR75      -0.2714
     80  CB        34.7020   70.6980   15.8790 C.3    75  THR75       0.1808
     81  OG1       33.7670   69.6300   15.6910 O.3    75  THR75      -0.2208
     82  CG2       35.5990   70.7870   14.6540 C.3    75  THR75       0.0379
     83  N         35.9040   72.7120   17.8570 N.am   76  GLN76      -0.1963
     84  CA        36.6770   73.8220   18.4040 C.3    76  GLN76       0.1733
     85  C         36.2020   74.0760   19.8290 C.2    76  GLN76       0.2616
     86  O         35.0070   74.0110   20.1110 O.2    76  GLN76      -0.2715
     87  CB        36.4760   75.0940   17.5700 C.3    76  GLN76       0.0408
     88  CG        36.9980   75.0100   16.1460 C.3    76  GLN76       0.0908
     89  CD        36.0570   74.2620   15.2280 C.2    76  GLN76       0.2608
     90  OE1       34.8420   74.2620   15.4310 O.2    76  GLN76      -0.2717
     91  NE2       36.6140   73.6160   14.2100 N.am   76  GLN76      -0.0878
     92  N         37.1400   74.3640   20.7250 N.am   77  GLY77      -0.1955
     93  CA        36.7730   74.6560   22.0980 C.3    77  GLY77       0.1869
     94  C         36.6620   73.4170   22.9630 C.2    77  GLY77       0.2309
     95  O         36.3300   72.3320   22.4830 O.2    77  GLY77      -0.2863
     96  N         39.0000   78.3740   24.9050 N.3   110  LYS110     -0.1231
     97  CA        38.3240   78.7810   23.6810 C.3   110  LYS110      0.1693
     98  C         36.9030   78.2300   23.5940 C.2   110  LYS110      0.2592
     99  O         36.3900   77.9760   22.5020 O.2   110  LYS110     -0.2718
    100  CB        39.1320   78.3340   22.4600 C.3   110  LYS110      0.0285
    101  CG        40.4930   79.0090   22.3450 C.3   110  LYS110      0.0035
    102  CD        41.1560   78.7080   21.0080 C.3   110  LYS110      0.0206
    103  CE        42.4370   79.5090   20.8330 C.3   110  LYS110      0.1093
    104  NZ        43.0580   79.2810   19.4970 N.3   110  LYS110     -0.1314
    105  N         36.2720   78.0420   24.7490 N.am  111  PHE111     -0.1976
    106  CA        34.8710   77.6350   24.7890 C.3   111  PHE111      0.1639
    107  C         33.9650   78.8580   24.8790 C.2   111  PHE111      0.2290
    108  O         33.0940   79.0570   24.0340 O.2   111  PHE111     -0.2864
    109  CB        34.6170   76.7070   25.9840 C.3   111  PHE111      0.0560
    110  CG        33.1740   76.3230   26.1580 C.ar  111  PHE111     -0.0200
    111  CD1       32.5380   75.5160   25.2280 C.ar  111  PHE111     -0.0042
    112  CD2       32.4470   76.7860   27.2440 C.ar  111  PHE111     -0.0042
    113  CE1       31.2030   75.1820   25.3720 C.ar  111  PHE111     -0.0003
    114  CE2       31.1130   76.4560   27.3950 C.ar  111  PHE111     -0.0003
    115  CZ        30.4920   75.6530   26.4560 C.ar  111  PHE111     -0.0000
    116  N         32.9070   82.6760   24.4820 N.3   113  ILE113     -0.1245
    117  CA        33.1940   83.6850   23.4720 C.3   113  ILE113      0.1561
    118  C         32.9730   85.0690   24.0620 C.2   113  ILE113      0.2260
    119  O         31.9890   85.3070   24.7560 O.2   113  ILE113     -0.2867
    120  CB        32.2710   83.5220   22.2480 C.3   113  ILE113      0.0252
    121  CG1       32.4510   82.1270   21.6470 C.3   113  ILE113      0.0019
    122  CG2       32.5860   84.5930   21.2090 C.3   113  ILE113      0.0019
    123  CD1       33.8570   81.8500   21.1600 C.3   113  ILE113      0.0001
    124  N         26.0450   84.3050   26.5030 N.3   118  TRP118     -0.1241
    125  CA        25.6900   83.0530   27.1700 C.3   118  TRP118      0.1605
    126  C         26.7930   82.4890   28.0590 C.2   118  TRP118      0.2264
    127  O         27.9780   82.7830   27.8750 O.2   118  TRP118     -0.2867
    128  CB        25.2220   81.9850   26.1620 C.3   118  TRP118      0.0550
    129  CG        26.1440   81.6960   25.0050 C.ar  118  TRP118      0.0003
    130  CD1       26.0360   82.1880   23.7330 C.ar  118  TRP118      0.0946
    131  CD2       27.2700   80.8080   24.9950 C.ar  118  TRP118      0.0152
    132  NE1       27.0220   81.6590   22.9350 N.ar  118  TRP118     -0.2442
    133  CE2       27.7940   80.8080   23.6860 C.ar  118  TRP118      0.0810
    134  CE3       27.8870   80.0100   25.9660 C.ar  118  TRP118      0.0012
    135  CZ2       28.9020   80.0470   23.3230 C.ar  118  TRP118      0.0191
    136  CZ3       28.9900   79.2530   25.6030 C.ar  118  TRP118      0.0001
    137  CH2       29.4850   79.2780   24.2930 C.ar  118  TRP118      0.0015
    138  N         25.9610   75.6930   28.0370 N.3   121  ILE121     -0.1245
    139  CA        25.5060   75.0080   26.8360 C.3   121  ILE121      0.1561
    140  C         24.5070   73.9170   27.2080 C.2   121  ILE121      0.2260
    141  O         24.6770   73.2070   28.2010 O.2   121  ILE121     -0.2867
    142  CB        26.7130   74.3940   26.0670 C.3   121  ILE121      0.0252
    143  CG1       26.2520   73.7970   24.7350 C.3   121  ILE121      0.0019
    144  CG2       27.3980   73.3330   26.9150 C.3   121  ILE121      0.0019
    145  CD1       27.4070   73.4930   23.7890 C.3   121  ILE121      0.0001
    146  N         26.3530   60.1550   22.8210 N.3   129  ILE129     -0.1245
    147  CA        27.5120   61.0310   22.6670 C.3   129  ILE129      0.1561
    148  C         27.7680   61.9290   23.8780 C.2   129  ILE129      0.2260
    149  O         28.5600   62.8700   23.8100 O.2   129  ILE129     -0.2867
    150  CB        27.3970   61.9080   21.3940 C.3   129  ILE129      0.0252
    151  CG1       26.1560   62.7970   21.4610 C.3   129  ILE129      0.0019
    152  CG2       27.3420   61.0150   20.1600 C.3   129  ILE129      0.0019
    153  CD1       26.0580   63.7810   20.3130 C.3   129  ILE129      0.0001
    154  N         29.4130   62.8830   27.4370 N.3   131  ARG131     -0.1245
    155  CA        30.6500   62.5920   28.1580 C.3   131  ARG131      0.1563
    156  C         30.3640   62.6280   29.6560 C.2   131  ARG131      0.2260
    157  O         29.5160   63.3910   30.1110 O.2   131  ARG131     -0.2867
    158  CB        31.7180   63.6350   27.8190 C.3   131  ARG131      0.0307
    159  CG        32.0430   63.7450   26.3390 C.3   131  ARG131      0.0489
    160  CD        32.6370   62.4540   25.8040 C.3   131  ARG131      0.2205
    161  NE        33.0460   62.5930   24.4090 N.pl3 131  ARG131     -0.0865
    162  CZ        34.2940   62.8250   24.0130 C.cat 131  ARG131      0.5346
    163  NH1       35.2680   62.9450   24.9070 N.pl3 131  ARG131      0.1354
    164  NH2       34.5690   62.9400   22.7210 N.pl3 131  ARG131      0.1354
    165  N         24.0340   61.7360   17.5390 N.3   188  TYR188     -0.1241
    166  CA        23.7010   63.0460   16.9870 C.3   188  TYR188      0.1605
    167  C         22.3020   62.9230   16.4000 C.2   188  TYR188      0.2264
    168  O         21.7470   61.8240   16.3260 O.2   188  TYR188     -0.2867
    169  CB        24.6660   63.4340   15.8650 C.3   188  TYR188      0.0534
    170  CG        26.1180   63.4220   16.2620 C.ar  188  TYR188     -0.0201
    171  CD1       26.7060   64.5330   16.8550 C.ar  188  TYR188     -0.0009
    172  CD2       26.9040   62.2980   16.0440 C.ar  188  TYR188     -0.0009
    173  CE1       28.0360   64.5230   17.2180 C.ar  188  TYR188      0.0417
    174  CE2       28.2330   62.2790   16.4040 C.ar  188  TYR188      0.0417
    175  CZ        28.7940   63.3910   16.9890 C.ar  188  TYR188      0.1957
    176  OH        30.1230   63.3710   17.3460 O.3   188  TYR188     -0.2866
    177  N         24.5340   65.4580   10.0550 N.3   216  ILE216     -0.1245
    178  CA        23.8040   65.7970   11.2720 C.3   216  ILE216      0.1561
    179  C         23.1890   67.1910   11.2170 C.2   216  ILE216      0.2260
    180  O         23.6190   68.0450   10.4450 O.2   216  ILE216     -0.2867
    181  CB        24.7100   65.7060   12.5240 C.3   216  ILE216      0.0252
    182  CG1       25.7400   66.8400   12.5230 C.3   216  ILE216      0.0019
    183  CG2       25.4170   64.3520   12.5560 C.3   216  ILE216      0.0019
    184  CD1       26.5690   66.9040   13.7990 C.3   216  ILE216      0.0001
    185  N         22.7980   70.4150   13.4390 N.3   218  ASP218     -0.1239
    186  CA        23.5940   70.9040   14.5660 C.3   218  ASP218      0.1674
    187  C         23.4240   72.4100   14.7830 C.2   218  ASP218      0.2266
    188  O         24.0760   73.2230   14.1220 O.2   218  ASP218     -0.2867
    189  CB        25.0680   70.5770   14.3050 C.3   218  ASP218      0.1410
    190  CG        25.9630   70.8800   15.4900 C.2   218  ASP218      0.3668
    191  OD1       25.5210   71.5720   16.4300 O.co2 218  ASP218     -0.2456
    192  OD2       27.1200   70.4130   15.4750 O.co2 218  ASP218     -0.2456
    193  N         24.3930   74.1310   17.1720 N.3   220  GLY220     -0.1210
    194  CA        25.5600   74.7160   17.8110 C.3   220  GLY220      0.1956
    195  C         26.7030   75.0450   16.8630 C.2   220  GLY220      0.2612
    196  O         27.7180   75.6050   17.2810 O.2   220  GLY220     -0.2717
    197  N         26.5390   74.6890   15.5910 N.am  221  THR221     -0.1952
    198  CA        27.5140   74.9950   14.5440 C.3   221  THR221      0.1897
    199  C         26.9480   76.0850   13.6390 C.2   221  THR221      0.2313
    200  O         25.7770   76.0420   13.2780 O.2   221  THR221     -0.2863
    201  CB        27.8010   73.7490   13.6720 C.3   221  THR221      0.1794
    202  OG1       28.3820   72.7170   14.4780 O.3   221  THR221     -0.2208
    203  CG2       28.7370   74.0960   12.5280 C.3   221  THR221      0.0378
    204  N         28.6220   72.6150    6.7320 N.3   225  ARG225     -0.1245
    205  CA        29.9150   71.9600    6.5860 C.3   225  ARG225      0.1563
    206  C         29.7400   70.7140    5.7290 C.2   225  ARG225      0.2260
    207  O         28.7990   69.9420    5.9170 O.2   225  ARG225     -0.2867
    208  CB        30.4800   71.6130    7.9670 C.3   225  ARG225      0.0307
    209  CG        30.4860   72.8180    8.9140 C.3   225  ARG225      0.0489
    210  CD        31.2570   72.5510   10.2010 C.3   225  ARG225      0.2205
    211  NE        32.6900   72.4300    9.9520 N.pl3 225  ARG225     -0.0865
    212  CZ        33.5290   73.4600    9.8790 C.cat 225  ARG225      0.5346
    213  NH1       34.8160   73.2480    9.6450 N.pl3 225  ARG225      0.1354
    214  NH2       33.0860   74.7020   10.0440 N.pl3 225  ARG225      0.1354
    215  N         34.3600   65.8370    9.6370 N.3   319  THR319     -0.1218
    216  CA        33.4790   65.0940   10.5350 C.3   319  THR319      0.1862
    217  C         32.1550   64.7250    9.8670 C.2   319  THR319      0.2287
    218  O         31.2090   64.3210   10.5420 O.2   319  THR319     -0.2866
    219  CB        33.1530   65.9140   11.8040 C.3   319  THR319      0.1770
    220  OG1       32.3930   67.0750   11.4440 O.3   319  THR319     -0.2211
    221  CG2       34.4290   66.3550   12.4970 C.3   319  THR319      0.0375
    222  N         27.4700   68.8090    8.1530 N.3   322  VAL322     -0.1245
    223  CA        26.8140   69.4500    9.2790 C.3   322  VAL322      0.1561
    224  C         25.8640   70.5090    8.7480 C.2   322  VAL322      0.2260
    225  O         26.2800   71.4720    8.1050 O.2   322  VAL322     -0.2867
    226  CB        27.8330   70.1200   10.2320 C.3   322  VAL322      0.0252
    227  CG1       27.1070   70.6820   11.4510 C.3   322  VAL322      0.0019
    228  CG2       28.8990   69.1120   10.6560 C.3   322  VAL322      0.0019
@<TRIPOS>BOND
     1   206   207    2
     2   206   205    1
     3   205   204    1
     4   205   208    1
     5   208   209    1
     6   225   224    2
     7   222   223    1
     8   224   223    1
     9   209   210    1
    10   223   226    1
    11   215   216    1
    12   213   212    1
    13   217   216    1
    14   217   218    2
    15   212   211    2
    16   212   214    1
    17   211   210    1
    18   177   178    1
    19   226   228    1
    20   226   227    1
    21   180   179    2
    22   216   219    1
    23   179   178    1
    24   178   181    1
    25   220   219    1
    26   219   221    1
    27   182   181    1
    28   182   184    1
    29   181   183    1
    30   203   201    1
    31   200   199    2
    32   185   186    1
    33   199   198    1
    34   201   202    1
    35   201   198    1
    36   188   187    2
    37    91    89   am
    38   189   186    1
    39   189   190    1
    40   198   197    1
    41   186   187    1
    42    82    80    1
    43    89    90    2
    44    89    88    1
    45   192   190   ar
    46   190   191   ar
    47   197   195   am
    48    81    80    1
    49   169   170    1
    50   169   166    1
    51    80    77    1
    52   172   170   ar
    53   172   174   ar
    54    88    87    1
    55   170   171   ar
    56   168   167    2
    57   167   166    1
    58   174   175   ar
    59     1     2    1
    60   171   173   ar
    61   195   196    2
    62   195   194    1
    63   166   165    1
    64   175   173   ar
    65   175   176    1
    66    77    78    1
    67    77    76    1
    68    79    78    2
    69   193   194    1
    70    78    83   am
    71    87    84    1
    72    83    84    1
    73     2     3    1
    74     2     5    1
    75    27    26    1
    76    27    28    1
    77     6     5    1
    78     6     7    1
    79    76    66   am
    80    84    85    1
    81     3     4    2
    82    29    28    2
    83     9     7   am
    84     7     8    2
    85    28    30   am
    86    24    23   ar
    87   104   103    1
    88    66    67    2
    89    66    65    1
    90    85    86    2
    91    85    92   am
    92   152   150    1
    93   153   151    1
    94    30    31    1
    95    20    19    1
    96    20    21    2
    97    65    68    1
    98    65    64    1
    99    23    25   ar
   100    23    22    1
   101    92    93    1
   102    68    69    1
   103   103   102    1
   104    19    22    1
   105    19    18    1
   106   102   101    1
   107   123   121    1
   108   122   120    1
   109    16    15    1
   110   150   151    1
   111   150   147    1
   112   121   120    1
   113    31    34    1
   114    31    32    1
   115    64    59   am
   116    60    59    2
   117    70    69   ar
   118    70    72   ar
   119    69    71   ar
   120    93    94    1
   121    17    15    1
   122   120   117    1
   123    34    35    1
   124    15    14    1
   125   101   100    1
   126    59    58    1
   127   100    97    1
   128    95    94    2
   129    99    98    2
   130    33    32    2
   131   147   146    1
   132   147   148    1
   133   164   162    1
   134    32    36   am
   135   132   133   ar
   136   132   130   ar
   137    72    74   ar
   138    71    73   ar
   139    41    40    1
   140    61    58    1
   141    61    62    1
   142   135   133   ar
   143   135   137   ar
   144   117   118    1
   145   117   116    1
   146    58    57    1
   147    98    97    1
   148    98   105   am
   149    62    63    1
   150    97    96    1
   151   133   131   ar
   152   130   129   ar
   153    14    11    1
   154   145   143    1
   155   149   148    2
   156    36    37    1
   157    12    11    1
   158    12    13    2
   159   162   161    2
   160   162   163    1
   161   108   107    2
   162   118   119    2
   163    11    10    1
   164    74    73   ar
   165    74    75    1
   166   137   136   ar
   167   161   160    1
   168    40    37    1
   169   143   142    1
   170    57    63    1
   171    57    52   am
   172   105   106    1
   173   106   107    1
   174   106   109    1
   175    37    38    1
   176   131   129   ar
   177   131   134   ar
   178   129   128    1
   179   111   113   ar
   180   111   110   ar
   181   113   115   ar
   182    55    54    1
   183   136   134   ar
   184    52    53    2
   185    52    51    1
   186   160   159    1
   187   109   110    1
   188   142   139    1
   189   142   144    1
   190   110   112   ar
   191   128   125    1
   192    38    42   am
   193    38    39    2
   194   159   158    1
   195   115   114   ar
   196   124   125    1
   197    42    43    1
   198    51    54    1
   199    51    50    1
   200   139   140    1
   201   139   138    1
   202    54    56    1
   203   125   126    1
   204   140   141    2
   205   112   114   ar
   206    48    47    2
   207    45    44    2
   208   154   155    1
   209   158   155    1
   210   127   126    2
   211    43    46    1
   212    43    44    1
   213    46    47    1
   214   155   156    1
   215    47    49   am
   216   156   157    2
