@<TRIPOS>MOLECULE
tmp/3vf5B00.pdb
 100 94 0 0 0
SMALL
GASTEIGER

@<TRIPOS>ATOM
      1  N        -11.8880  -16.8260   28.1780 N.3    23  LEU23      -0.1245
      2  CA       -12.3110  -15.8980   27.1500 C.3    23  LEU23       0.1561
      3  C        -13.7950  -15.9810   26.9090 C.2    23  LEU23       0.2260
      4  O        -14.3040  -17.0650   26.6140 O.2    23  LEU23      -0.2867
      5  CB       -11.4840  -16.2400   25.8970 C.3    23  LEU23       0.0270
      6  CG       -11.6440  -15.3930   24.6770 C.3    23  LEU23       0.0019
      7  CD1      -11.0580  -14.0460   24.9760 C.3    23  LEU23       0.0001
      8  CD2      -10.9390  -16.0840   23.5190 C.3    23  LEU23       0.0001
      9  N        -16.5880  -15.9520   24.5610 N.3    25  ASP25      -0.1239
     10  CA       -16.4630  -16.2380   23.1410 C.3    25  ASP25       0.1674
     11  C        -17.8310  -16.4740   22.4680 C.2    25  ASP25       0.2266
     12  O        -18.3510  -17.5860   22.4440 O.2    25  ASP25      -0.2867
     13  CB       -15.6150  -17.4680   22.9770 C.3    25  ASP25       0.1410
     14  CG       -15.1220  -17.7890   21.6020 C.2    25  ASP25       0.3668
     15  OD1      -15.6840  -17.1770   20.6560 O.co2  25  ASP25      -0.2456
     16  OD2      -14.1990  -18.6070   21.4180 O.co2  25  ASP25      -0.2456
     17  N        -18.5130  -16.6480   19.4270 N.3    27  GLY27      -0.1210
     18  CA       -18.3660  -17.5370   18.2910 C.3    27  GLY27       0.1956
     19  C        -18.2040  -18.9880   18.6570 C.2    27  GLY27       0.2612
     20  O        -18.0390  -19.8390   17.7290 O.2    27  GLY27      -0.2717
     21  N        -18.2530  -19.3550   19.9110 N.am   28  ALA28      -0.1965
     22  CA       -18.1980  -20.7230   20.3860 C.3    28  ALA28       0.1728
     23  C        -19.5750  -21.1810   20.8410 C.2    28  ALA28       0.2616
     24  O        -20.2330  -20.5620   21.6650 O.2    28  ALA28      -0.2715
     25  CB       -17.1920  -20.7810   21.5330 C.3    28  ALA28       0.0334
     26  N        -20.0180  -22.3210   20.2880 N.am   29  ASP29      -0.1957
     27  CA       -21.2790  -22.8780   20.6890 C.3    29  ASP29       0.1840
     28  C        -21.2240  -23.4210   22.1210 C.2    29  ASP29       0.2622
     29  O        -22.2120  -23.3970   22.8540 O.2    29  ASP29      -0.2715
     30  CB       -21.7000  -24.0490   19.7750 C.3    29  ASP29       0.1450
     31  CG       -21.8430  -23.6820   18.3220 C.2    29  ASP29       0.3671
     32  OD1      -22.1320  -22.5000   17.9680 O.co2  29  ASP29      -0.2456
     33  OD2      -21.6940  -24.6300   17.4650 O.co2  29  ASP29      -0.2456
     34  N        -20.0730  -24.0130   22.4470 N.am   30  ASP30      -0.1971
     35  CA       -19.7200  -24.8310   23.5930 C.3    30  ASP30       0.1709
     36  C        -18.5790  -24.2210   24.4040 C.2    30  ASP30       0.2293
     37  O        -17.7380  -23.5500   23.8160 O.2    30  ASP30      -0.2864
     38  CB       -19.1790  -26.2000   23.1470 C.3    30  ASP30       0.1436
     39  CG       -19.9990  -26.8700   22.0810 C.2    30  ASP30       0.3671
     40  OD1      -21.2350  -27.0240   22.2840 O.co2  30  ASP30      -0.2456
     41  OD2      -19.3840  -27.2670   21.0710 O.co2  30  ASP30      -0.2456
     42  N        -15.1510  -24.7740   26.3170 N.3    32  VAL32      -0.1245
     43  CA       -14.0090  -25.6940   26.1570 C.3    32  VAL32       0.1561
     44  C        -12.9030  -25.2330   27.0710 C.2    32  VAL32       0.2260
     45  O        -12.4620  -24.0940   26.9590 O.2    32  VAL32      -0.2867
     46  CB       -13.5140  -25.8120   24.6950 C.3    32  VAL32       0.0252
     47  CG1      -12.5160  -26.9750   24.6080 C.3    32  VAL32       0.0019
     48  CG2      -14.6420  -26.0110   23.6940 C.3    32  VAL32       0.0019
     49  N        -15.0950  -31.5930   18.3810 N.3    47  VAL47      -0.1231
     50  CA       -15.2650  -30.1540   18.2630 C.3    47  VAL47       0.1692
     51  C        -14.5000  -29.6840   17.0420 C.2    47  VAL47       0.2593
     52  O        -13.3000  -29.9630   16.9920 O.2    47  VAL47      -0.2718
     53  CB       -14.7180  -29.5690   19.5940 C.3    47  VAL47       0.0266
     54  CG1      -14.6730  -28.0720   19.5230 C.3    47  VAL47       0.0020
     55  CG2      -15.5760  -30.1030   20.7470 C.3    47  VAL47       0.0020
     56  N        -15.1200  -28.9740   16.1190 N.am   48  GLY48      -0.1942
     57  CA       -14.4960  -28.5010   14.9140 C.3    48  GLY48       0.2014
     58  C        -14.2110  -27.0250   15.0120 C.2    48  GLY48       0.2639
     59  O        -15.0790  -26.1620   14.9160 O.2    48  GLY48      -0.2714
     60  N        -12.9420  -26.6970   15.2010 N.am   49  GLY49      -0.1939
     61  CA       -12.5200  -25.3100   15.2740 C.3    49  GLY49       0.2014
     62  C        -11.9040  -24.8480   13.9630 C.2    49  GLY49       0.2638
     63  O        -11.9970  -25.4750   12.9040 O.2    49  GLY49      -0.2714
     64  N        -11.1980  -23.7380   14.0180 N.am   50  ILE50      -0.1977
     65  CA       -10.6630  -23.1810   12.7840 C.3    50  ILE50       0.1596
     66  C         -9.6720  -24.1180   12.1380 C.2    50  ILE50       0.2287
     67  O         -9.5980  -24.1150   10.8940 O.2    50  ILE50      -0.2864
     68  CB       -10.0630  -21.7810   13.0340 C.3    50  ILE50       0.0276
     69  CG1      -10.1880  -20.9360   11.7330 C.3    50  ILE50       0.0022
     70  CG2       -8.6980  -21.8780   13.6960 C.3    50  ILE50       0.0022
     71  CD1       -9.8320  -19.4800   11.9240 C.3    50  ILE50       0.0001
     72  N         -7.5020  -27.0800   23.9810 N.3    80  THR80      -0.1204
     73  CA        -7.8150  -25.7820   23.4210 C.3    80  THR80       0.1979
     74  C         -6.6980  -24.8660   23.8580 C.2    80  THR80       0.2460
     75  O         -6.0840  -24.9480   24.9050 O.2    80  THR80      -0.2732
     76  CB        -9.1620  -25.2510   23.9250 C.3    80  THR80       0.1783
     77  OG1       -9.3700  -23.9240   23.4770 O.3    80  THR80      -0.2211
     78  CG2       -9.1850  -25.1730   25.4510 C.3    80  THR80       0.0376
     79  N         -6.3530  -23.9080   23.0170 N.am   81  PRO81      -0.2717
     80  CA        -5.2730  -23.0320   23.4460 C.3    81  PRO81       0.1535
     81  C         -5.5350  -22.0310   24.5330 C.2    81  PRO81       0.2598
     82  O         -4.5710  -21.6070   25.1410 O.2    81  PRO81      -0.2715
     83  CB        -5.1030  -22.1420   22.2210 C.3    81  PRO81       0.0310
     84  CG        -5.9270  -22.6930   21.1340 C.3    81  PRO81       0.0237
     85  CD        -6.9080  -23.6880   21.6620 C.3    81  PRO81       0.0939
     86  N         -6.8140  -21.8700   24.7570 N.am   82  VAL82      -0.1978
     87  CA        -7.3550  -20.9400   25.7260 C.3    82  VAL82       0.1596
     88  C         -8.6560  -21.4950   26.3010 C.2    82  VAL82       0.2287
     89  O         -9.4360  -22.1210   25.5750 O.2    82  VAL82      -0.2864
     90  CB        -7.6690  -19.5530   25.1320 C.3    82  VAL82       0.0276
     91  CG1       -8.5180  -18.6630   26.0310 C.3    82  VAL82       0.0022
     92  CG2       -6.3530  -18.8520   24.8350 C.3    82  VAL82       0.0022
     93  N        -12.2960  -21.2590   26.8350 N.3    84  ILE84      -0.1245
     94  CA       -13.3210  -20.4320   26.1720 C.3    84  ILE84       0.1561
     95  C        -14.6930  -20.7390   26.8010 C.2    84  ILE84       0.2260
     96  O        -15.0900  -21.8750   27.0270 O.2    84  ILE84      -0.2867
     97  CB       -13.2700  -20.5460   24.6270 C.3    84  ILE84       0.0252
     98  CG1      -13.6240  -21.9510   24.1250 C.3    84  ILE84       0.0019
     99  CG2      -11.9440  -20.0530   24.0170 C.3    84  ILE84       0.0019
    100  CD1      -13.5420  -22.1680   22.6640 C.3    84  ILE84       0.0001
@<TRIPOS>BOND
     1    67    66    2
     2    69    71    1
     3    69    68    1
     4    66    65    1
     5    65    68    1
     6    65    64    1
     7    63    62    2
     8    68    70    1
     9    62    64   am
    10    62    61    1
    11    57    58    1
    12    57    56    1
    13    59    58    2
    14    58    60   am
    15    60    61    1
    16    56    51   am
    17    52    51    2
    18    51    50    1
    19    33    31   ar
    20    20    19    2
    21    32    31   ar
    22    50    49    1
    23    50    53    1
    24    18    19    1
    25    18    17    1
    26    31    30    1
    27    19    21   am
    28    54    53    1
    29    53    55    1
    30    30    27    1
    31    21    22    1
    32    26    27    1
    33    26    23   am
    34    22    23    1
    35    22    25    1
    36    15    14   ar
    37    27    28    1
    38    23    24    2
    39    41    39   ar
    40    84    85    1
    41    84    83    1
    42    16    14   ar
    43    14    13    1
    44    85    79    1
    45    39    40   ar
    46    39    38    1
    47    28    34   am
    48    28    29    2
    49    83    80    1
    50    12    11    2
    51    34    35    1
    52    11    10    1
    53   100    98    1
    54    13    10    1
    55    79    80    1
    56    79    74   am
    57    10     9    1
    58    38    35    1
    59    73    74    1
    60    73    76    1
    61    73    72    1
    62    80    81    1
    63    77    76    1
    64     8     6    1
    65    35    36    1
    66    48    46    1
    67    37    36    2
    68    74    75    2
    69    76    78    1
    70    99    97    1
    71    98    97    1
    72    81    86   am
    73    81    82    2
    74    47    46    1
    75    97    94    1
    76     6     7    1
    77     6     5    1
    78    46    43    1
    79    86    87    1
    80    92    90    1
    81    90    87    1
    82    90    91    1
    83    89    88    2
    84    87    88    1
    85     5     2    1
    86    43    42    1
    87    43    44    1
    88    94    95    1
    89    94    93    1
    90     4     3    2
    91    95    96    2
    92     3     2    1
    93    45    44    2
    94     2     1    1
