@<TRIPOS>MOLECULE
tmp/3vf6A01.pdb
 186 181 0 0 0
SMALL
GASTEIGER

@<TRIPOS>ATOM
      1  N        -15.6040   -4.5880   24.5130 N.3    60  TYR60      -0.1227
      2  CA       -14.2180   -4.6870   24.9860 C.3    60  TYR60       0.1736
      3  C        -13.2500   -3.7580   24.2720 C.2    60  TYR60       0.2595
      4  O        -12.0340   -3.8680   24.4670 O.2    60  TYR60      -0.2718
      5  CB       -13.7210   -6.1370   25.0500 C.3    60  TYR60       0.0548
      6  CG       -14.3780   -6.8590   26.2000 C.ar   60  TYR60      -0.0200
      7  CD1      -13.8000   -6.8630   27.4680 C.ar   60  TYR60      -0.0009
      8  CD2      -15.6050   -7.4950   26.0380 C.ar   60  TYR60      -0.0009
      9  CE1      -14.4230   -7.4920   28.5440 C.ar   60  TYR60       0.0417
     10  CE2      -16.2310   -8.1390   27.1060 C.ar   60  TYR60       0.0417
     11  CZ       -15.6370   -8.1290   28.3560 C.ar   60  TYR60       0.1957
     12  OH       -16.2360   -8.7830   29.4020 O.3    60  TYR60      -0.2866
     13  N        -13.8010   -2.8260   23.4670 N.am   61  VAL61      -0.1966
     14  CA       -13.0540   -1.7510   22.8250 C.3    61  VAL61       0.1727
     15  C        -13.1070   -0.6300   23.8740 C.2    61  VAL61       0.2616
     16  O        -14.1920   -0.1290   24.1850 O.2    61  VAL61      -0.2715
     17  CB       -13.6890   -1.3210   21.4860 C.3    61  VAL61       0.0290
     18  CG1      -13.0640   -0.0340   20.9750 C.3    61  VAL61       0.0023
     19  CG2      -13.5730   -2.4330   20.4420 C.3    61  VAL61       0.0023
     20  N        -11.9430   -0.2870   24.4460 N.am   62  ARG62      -0.1963
     21  CA       -11.8340    0.7030   25.5260 C.3    62  ARG62       0.1729
     22  C        -11.1880    2.0080   25.0960 C.2    62  ARG62       0.2617
     23  O        -10.4670    2.0540   24.0960 O.2    62  ARG62      -0.2715
     24  CB       -10.9940    0.1010   26.6830 C.3    62  ARG62       0.0348
     25  CG       -11.5640   -1.1750   27.2980 C.3    62  ARG62       0.0492
     26  CD       -10.5400   -1.8410   28.2060 C.3    62  ARG62       0.2205
     27  NE       -11.0270   -3.1250   28.7280 N.pl3  62  ARG62      -0.0865
     28  CZ       -11.6490   -3.2760   29.8950 C.cat  62  ARG62       0.5346
     29  NH1      -11.8840   -2.2250   30.6730 N.pl3  62  ARG62       0.1354
     30  NH2      -12.0430   -4.4770   30.2910 N.pl3  62  ARG62       0.1354
     31  N        -11.4050    3.0810   25.8860 N.am   63  SER63      -0.1936
     32  CA       -10.6960    4.3360   25.6640 C.3    63  SER63       0.2055
     33  C         -9.2580    3.9820   26.1150 C.2    63  SER63       0.2644
     34  O         -9.0990    3.2910   27.1320 O.2    63  SER63      -0.2714
     35  CB       -11.2680    5.4330   26.5590 C.3    63  SER63       0.2130
     36  OG       -11.4410    4.9760   27.8960 O.3    63  SER63      -0.2179
     37  N         -8.2460    4.3240   25.3160 N.am   64  THR64      -0.1937
     38  CA        -6.8300    3.9920   25.6130 C.3    64  THR64       0.2013
     39  C         -5.9670    5.2990   25.5680 C.2    64  THR64       0.2484
     40  O         -6.5940    6.3440   25.7390 O.2    64  THR64      -0.2729
     41  CB        -6.3770    2.7640   24.7640 C.3    64  THR64       0.1807
     42  OG1       -6.7330    2.9360   23.3870 O.3    64  THR64      -0.2208
     43  CG2       -6.9440    1.4430   25.2800 C.3    64  THR64       0.0379
     44  N         -4.6050    5.3800   25.4540 N.am   65  PRO65      -0.2715
     45  CA        -3.5670    4.3700   25.1700 C.3    65  PRO65       0.1536
     46  C         -2.6230    4.0090   26.3470 C.2    65  PRO65       0.2598
     47  O         -2.5310    4.7880   27.3010 O.2    65  PRO65      -0.2715
     48  CB        -2.7900    5.0470   24.0280 C.3    65  PRO65       0.0310
     49  CG        -2.9460    6.5690   24.2890 C.3    65  PRO65       0.0237
     50  CD        -3.9920    6.7220   25.3800 C.3    65  PRO65       0.0939
     51  N         -1.8750    2.8650   26.2870 N.am   66  GLU66      -0.1978
     52  CA        -1.9230    1.8480   25.2300 C.3    66  GLU66       0.1602
     53  C         -0.5970    1.1460   24.9130 C.2    66  GLU66       0.2287
     54  O          0.1480    0.7420   25.8130 O.2    66  GLU66      -0.2864
     55  CB        -2.4340    2.4330   23.8810 C.3    66  GLU66       0.0415
     56  CG        -3.2270    1.5120   22.9250 C.3    66  GLU66       0.1163
     57  CD        -3.3250    0.0260   23.4080 C.2    66  GLU66       0.3649
     58  OE1       -4.1940   -0.3410   24.1720 O.co2  66  GLU66      -0.2457
     59  OE2       -2.4250   -0.6240   22.9050 O.co2  66  GLU66      -0.2457
     60  N          0.6850    1.0860   20.6710 N.3    68  SER68      -0.1217
     61  CA         0.3510    1.0470   19.2450 C.3    68  SER68       0.1889
     62  C          1.3790    0.3240   18.3910 C.2    68  SER68       0.2288
     63  O          2.5890    0.5070   18.5740 O.2    68  SER68      -0.2866
     64  CB         0.1070    2.4530   18.7040 C.3    68  SER68       0.2089
     65  OG        -0.3240    2.4160   17.3530 O.3    68  SER68      -0.2183
     66  N        -14.1440  -10.9870   25.4060 N.3   151  ASP151     -0.1225
     67  CA       -12.9470  -10.1490   25.2530 C.3   151  ASP151      0.1805
     68  C        -12.9450   -9.5740   23.8430 C.2   151  ASP151      0.2597
     69  O        -13.8500   -9.8690   23.0780 O.2   151  ASP151     -0.2718
     70  CB       -11.6580  -10.9760   25.5320 C.3   151  ASP151      0.1424
     71  CG       -10.4290  -10.1830   25.9260 C.2   151  ASP151      0.3668
     72  OD1       -9.4580  -10.8050   26.4150 O.co2 151  ASP151     -0.2456
     73  OD2      -10.4270   -8.9350   25.7320 O.co2 151  ASP151     -0.2456
     74  N        -11.9120   -8.8080   23.4830 N.am  152  ILE152     -0.1980
     75  CA       -11.7680   -8.1850   22.1690 C.3   152  ILE152      0.1595
     76  C        -11.6970   -9.2030   21.0170 C.2   152  ILE152      0.2287
     77  O        -12.1000   -8.8770   19.9060 O.2   152  ILE152     -0.2864
     78  CB       -10.5680   -7.1880   22.1470 C.3   152  ILE152      0.0276
     79  CG1      -10.6130   -6.2500   20.8990 C.3   152  ILE152      0.0022
     80  CG2       -9.2130   -7.9070   22.2100 C.3   152  ILE152      0.0022
     81  CD1      -11.2650   -5.0340   21.0440 C.3   152  ILE152      0.0001
     82  N        -16.8010    3.6680   13.8820 N.3   203  MET203     -0.1230
     83  CA       -16.4700    4.6670   14.9080 C.3   203  MET203      0.1702
     84  C        -14.9440    4.8140   15.0270 C.2   203  MET203      0.2592
     85  O        -14.4310    5.9350   15.0800 O.2   203  MET203     -0.2718
     86  CB       -17.0860    4.2520   16.2640 C.3   203  MET203      0.0401
     87  CG       -16.8730    5.2880   17.3810 C.3   203  MET203      0.0596
     88  SD       -17.2710    4.6410   19.0100 S.3   203  MET203     -0.1393
     89  CE       -16.0530    3.3310   19.1550 C.3   203  MET203      0.0692
     90  N        -14.2340    3.6780   15.1240 N.am  204  ILE204     -0.1980
     91  CA       -12.7660    3.6430   15.2900 C.3   204  ILE204      0.1595
     92  C        -12.0820    4.3670   14.0980 C.2   204  ILE204      0.2287
     93  O        -11.2250    5.2070   14.3380 O.2   204  ILE204     -0.2864
     94  CB       -12.2310    2.1880   15.5060 C.3   204  ILE204      0.0276
     95  CG1      -12.7060    1.6020   16.8660 C.3   204  ILE204      0.0022
     96  CG2      -10.6660    2.0950   15.3690 C.3   204  ILE204      0.0022
     97  CD1      -12.7210    0.0800   16.8660 C.3   204  ILE204      0.0001
     98  N        -12.7200    7.9970   14.4870 N.3   207  TYR207     -0.1227
     99  CA       -12.0120    8.4870   15.6730 C.3   207  TYR207      0.1736
    100  C        -10.5290    8.7510   15.3580 C.2   207  TYR207      0.2595
    101  O         -9.9440    9.6990   15.8900 O.2   207  TYR207     -0.2718
    102  CB       -12.1480    7.5190   16.8630 C.3   207  TYR207      0.0548
    103  CG       -11.2610    7.8570   18.0470 C.ar  207  TYR207     -0.0200
    104  CD1      -11.6950    8.7330   19.0420 C.ar  207  TYR207     -0.0009
    105  CD2       -9.9870    7.3050   18.1700 C.ar  207  TYR207     -0.0009
    106  CE1      -10.9030    9.0150   20.1570 C.ar  207  TYR207      0.0417
    107  CE2       -9.1740    7.5980   19.2690 C.ar  207  TYR207      0.0417
    108  CZ        -9.6410    8.4450   20.2630 C.ar  207  TYR207      0.1957
    109  OH        -8.8390    8.7440   21.3340 O.3   207  TYR207     -0.2866
    110  N         -9.9280    7.8910   14.5190 N.am  208  TYR208     -0.1976
    111  CA        -8.5340    8.0210   14.1050 C.3   208  TYR208      0.1639
    112  C         -8.2870    9.4240   13.4960 C.2   208  TYR208      0.2290
    113  O         -7.2530   10.0210   13.7580 O.2   208  TYR208     -0.2864
    114  CB        -8.1950    6.9150   13.0930 C.3   208  TYR208      0.0560
    115  CG        -6.7550    6.9280   12.6250 C.ar  208  TYR208     -0.0198
    116  CD1       -5.7340    6.4200   13.4270 C.ar  208  TYR208     -0.0009
    117  CD2       -6.4140    7.4220   11.3690 C.ar  208  TYR208     -0.0009
    118  CE1       -4.4130    6.3940   12.9850 C.ar  208  TYR208      0.0417
    119  CE2       -5.0930    7.4170   10.9240 C.ar  208  TYR208      0.0417
    120  CZ        -4.0950    6.9090   11.7380 C.ar  208  TYR208      0.1957
    121  OH        -2.7920    6.8940   11.2930 O.3   208  TYR208     -0.2866
    122  N        -10.7830   12.8060   17.2250 N.3   211  HIS211     -0.1241
    123  CA       -10.9440   12.2260   18.5580 C.3   211  HIS211      0.1621
    124  C        -12.2580   12.5250   19.2500 C.2   211  HIS211      0.2264
    125  O        -12.5820   11.8570   20.2300 O.2   211  HIS211     -0.2867
    126  CB        -9.7260   12.4780   19.4720 C.3   211  HIS211      0.0745
    127  CG        -8.4740   11.7870   19.0260 C.ar  211  HIS211      0.0817
    128  ND1       -8.3850   11.1530   17.7900 N.ar  211  HIS211     -0.2268
    129  CD2       -7.2660   11.7190   19.6340 C.ar  211  HIS211      0.1154
    130  CE1       -7.1430   10.7000   17.7030 C.ar  211  HIS211      0.1986
    131  NE2       -6.4360   11.0080   18.7920 N.ar  211  HIS211     -0.2212
    132  N        -14.9830   11.7590   17.8700 N.3   213  CYS213     -0.1221
    133  CA       -15.8740   10.6970   17.4090 C.3   213  CYS213      0.1808
    134  C        -15.9690    9.5360   18.3850 C.2   213  CYS213      0.2601
    135  O        -15.0480    8.7340   18.4760 O.2   213  CYS213     -0.2717
    136  CB       -15.5700   10.2100   15.9970 C.3   213  CYS213      0.0970
    137  SG       -16.7480    8.9410   15.4330 S.3   213  CYS213     -0.0800
    138  N        -17.0930    9.4500   19.1030 N.am  214  GLU214     -0.1979
    139  CA       -17.3370    8.4010   20.0850 C.3   214  GLU214      0.1602
    140  C        -18.7000    7.7440   19.8680 C.2   214  GLU214      0.2287
    141  O        -19.2840    7.1990   20.7940 O.2   214  GLU214     -0.2864
    142  CB       -17.2260    8.9770   21.4960 C.3   214  GLU214      0.0415
    143  CG       -15.8020    9.4090   21.8310 C.3   214  GLU214      0.1163
    144  CD       -15.7310    9.8660   23.2650 C.2   214  GLU214      0.3649
    145  OE1      -15.7260    8.9820   24.1520 O.co2 214  GLU214     -0.2457
    146  OE2      -15.8990   11.0860   23.5050 O.co2 214  GLU214     -0.2457
    147  N        -19.3720    5.1770   23.0800 N.3   228  MET228     -0.1245
    148  CA       -18.4520    5.0400   24.2150 C.3   228  MET228      0.1570
    149  C        -19.2130    5.3340   25.4860 C.2   228  MET228      0.2261
    150  O        -19.5030    6.4990   25.7990 O.2   228  MET228     -0.2867
    151  CB       -17.2480    6.0050   24.0980 C.3   228  MET228      0.0387
    152  CG       -16.3230    5.6970   22.9370 C.3   228  MET228      0.0595
    153  SD       -15.7520    3.9510   22.8030 S.3   228  MET228     -0.1393
    154  CE       -14.7260    3.8300   24.3020 C.3   228  MET228      0.0692
    155  N         -7.1930   -0.8930   12.4280 N.3   444  LEU444     -0.1231
    156  CA        -6.7680    0.0460   13.4590 C.3   444  LEU444      0.1693
    157  C         -6.9190   -0.5350   14.8570 C.2   444  LEU444      0.2591
    158  O         -6.0060   -0.3990   15.6650 O.2   444  LEU444     -0.2718
    159  CB        -7.4900    1.3950   13.3310 C.3   444  LEU444      0.0284
    160  CG        -7.0340    2.2800   12.1660 C.3   444  LEU444      0.0019
    161  CD1       -8.0730    3.3460   11.8270 C.3   444  LEU444      0.0001
    162  CD2       -5.6370    2.8930   12.4250 C.3   444  LEU444      0.0001
    163  N         -8.0410   -1.2180   15.1330 N.am  445  VAL445     -0.1980
    164  CA        -8.2850   -1.8310   16.4460 C.3   445  VAL445      0.1595
    165  C         -7.2800   -2.9790   16.7030 C.2   445  VAL445      0.2287
    166  O         -6.8320   -3.1640   17.8310 O.2   445  VAL445     -0.2864
    167  CB        -9.7710   -2.2150   16.6860 C.3   445  VAL445      0.0276
    168  CG1      -10.1930   -3.4420   15.8770 C.3   445  VAL445      0.0022
    169  CG2      -10.0570   -2.4120   18.1590 C.3   445  VAL445      0.0022
    170  N         -4.1680   -3.0530   15.4230 N.3   447  ALA447     -0.1231
    171  CA        -2.8860   -2.3790   15.7300 C.3   447  ALA447      0.1694
    172  C         -2.8040   -2.0220   17.2270 C.2   447  ALA447      0.2592
    173  O         -1.7640   -2.2300   17.8490 O.2   447  ALA447     -0.2718
    174  CB        -2.7080   -1.1290   14.8740 C.3   447  ALA447      0.0304
    175  N         -3.9220   -1.5750   17.8220 N.am  448  VAL448     -0.1966
    176  CA        -3.9740   -1.2560   19.2550 C.3   448  VAL448      0.1727
    177  C         -3.9270   -2.5570   20.0960 C.2   448  VAL448      0.2616
    178  O         -3.1910   -2.6230   21.0860 O.2   448  VAL448     -0.2715
    179  CB        -5.1800   -0.3280   19.6100 C.3   448  VAL448      0.0290
    180  CG1       -5.1950    0.0180   21.1010 C.3   448  VAL448      0.0023
    181  CG2       -5.1390    0.9560   18.7870 C.3   448  VAL448      0.0023
    182  N         -4.6740   -3.5950   19.6630 N.am  449  ALA449     -0.1977
    183  CA        -4.7670   -4.9070   20.3170 C.3   449  ALA449      0.1597
    184  C         -3.4750   -5.7450   20.3190 C.2   449  ALA449      0.2287
    185  O         -3.1570   -6.3100   21.3630 O.2   449  ALA449     -0.2864
    186  CB        -5.9090   -5.7230   19.7050 C.3   449  ALA449      0.0319
@<TRIPOS>BOND
     1   119   117   ar
     2   119   120   ar
     3   121   120    1
     4   117   115   ar
     5   120   118   ar
     6   161   160    1
     7   160   162    1
     8   160   159    1
     9   155   156    1
    10   115   114    1
    11   115   116   ar
    12   118   116   ar
    13   114   111    1
    14   159   156    1
    15   156   157    1
    16   112   113    2
    17   112   111    1
    18    82    83    1
    19    92    93    2
    20    92    91    1
    21   111   110    1
    22    98    99    1
    23   110   100   am
    24   157   163   am
    25   157   158    2
    26   174   171    1
    27    83    84    1
    28    83    86    1
    29    84    85    2
    30    84    90   am
    31    90    91    1
    32   163   164    1
    33    91    94    1
    34   100    99    1
    35   100   101    2
    36    96    94    1
    37   170   171    1
    38   137   136    1
    39    94    95    1
    40    99   102    1
    41   171   172    1
    42   168   167    1
    43   136   133    1
    44    86    87    1
    45   164   167    1
    46   164   165    1
    47   167   169    1
    48   165   166    2
    49   102   103    1
    50    95    97    1
    51   122   123    1
    52   172   175   am
    53   172   173    2
    54    65    64    1
    55    87    88    1
    56   133   132    1
    57   133   134    1
    58   130   128   ar
    59   130   131   ar
    60   128   127   ar
    61   175   176    1
    62   103   105   ar
    63   103   104   ar
    64   105   107   ar
    65   134   135    2
    66   134   138   am
    67    62    63    2
    68    62    61    1
    69   123   124    1
    70   123   126    1
    71    64    61    1
    72   181   179    1
    73   131   129   ar
    74    88    89    1
    75   127   126    1
    76   127   129   ar
    77   104   106   ar
    78   138   139    1
    79    61    60    1
    80   124   125    2
    81   176   179    1
    82   176   177    1
    83   107   108   ar
    84   179   180    1
    85   182   177   am
    86   182   183    1
    87   186   183    1
    88   140   139    1
    89   140   141    2
    90    77    76    2
    91   139   142    1
    92   177   178    2
    93   106   108   ar
    94   108   109    1
    95   183   184    1
    96   184   185    2
    97    19    17    1
    98    79    81    1
    99    79    78    1
   100    18    17    1
   101    76    75    1
   102    17    14    1
   103   142   143    1
   104   143   144    1
   105    78    75    1
   106    78    80    1
   107    75    74    1
   108   153   152    1
   109   153   154    1
   110    14    13    1
   111    14    15    1
   112    59    57   ar
   113    56    57    1
   114    56    55    1
   115   152   151    1
   116    69    68    2
   117   147   148    1
   118   144   146   ar
   119   144   145   ar
   120    42    41    1
   121    57    58   ar
   122    13     3   am
   123    74    68   am
   124    68    67    1
   125    15    16    2
   126    15    20   am
   127    55    52    1
   128    48    49    1
   129    48    45    1
   130    23    22    2
   131   151   148    1
   132   148   149    1
   133     3     4    2
   134     3     2    1
   135    49    50    1
   136    20    21    1
   137     1     2    1
   138    41    43    1
   139    41    38    1
   140    53    52    1
   141    53    54    2
   142     2     5    1
   143     5     6    1
   144    22    21    1
   145    22    31   am
   146    45    44    1
   147    45    46    1
   148    52    51    1
   149    67    66    1
   150    67    70    1
   151    37    38    1
   152    37    33   am
   153    50    44    1
   154    44    39   am
   155   149   150    2
   156    21    24    1
   157    70    71    1
   158    39    38    1
   159    39    40    2
   160    32    31    1
   161    32    33    1
   162    32    35    1
   163    73    71   ar
   164    71    72   ar
   165     8     6   ar
   166     8    10   ar
   167    33    34    2
   168     6     7   ar
   169    51    46   am
   170    46    47    2
   171    35    36    1
   172    24    25    1
   173    10    11   ar
   174    25    26    1
   175     7     9   ar
   176    26    27    1
   177    11     9   ar
   178    11    12    1
   179    27    28    2
   180    28    30    1
   181    28    29    1
