@<TRIPOS>MOLECULE
tmp/3vf7A00.pdb
 72 67 0 0 0
SMALL
GASTEIGER

@<TRIPOS>ATOM
      1  N         16.4190   15.9170   24.5380 N.3    25  ASP25      -0.1239
      2  CA        16.2880   16.2220   23.1250 C.3    25  ASP25       0.1674
      3  C         17.6590   16.4740   22.4750 C.2    25  ASP25       0.2266
      4  O         18.2060   17.5600   22.4820 O.2    25  ASP25      -0.2867
      5  CB        15.3980   17.4380   22.9480 C.3    25  ASP25       0.1410
      6  CG        14.9190   17.7290   21.5410 C.2    25  ASP25       0.3668
      7  OD1       15.5170   17.1260   20.6080 O.co2  25  ASP25      -0.2456
      8  OD2       13.9690   18.5570   21.3920 O.co2  25  ASP25      -0.2456
      9  N         18.3610   16.6990   19.4420 N.3    27  GLY27      -0.1210
     10  CA        18.1980   17.5930   18.3220 C.3    27  GLY27       0.1956
     11  C         18.0240   19.0580   18.6860 C.2    27  GLY27       0.2612
     12  O         17.8570   19.8960   17.7930 O.2    27  GLY27      -0.2717
     13  N         18.0840   19.3780   19.9760 N.am   28  ALA28      -0.1965
     14  CA        17.9890   20.7530   20.4730 C.3    28  ALA28       0.1728
     15  C         19.3560   21.2570   20.9080 C.2    28  ALA28       0.2616
     16  O         20.0060   20.6050   21.7130 O.2    28  ALA28      -0.2715
     17  CB        16.9790   20.7860   21.6050 C.3    28  ALA28       0.0334
     18  N         19.7910   22.4020   20.3990 N.am   29  ASP29      -0.1957
     19  CA        21.0580   22.9810   20.8340 C.3    29  ASP29       0.1840
     20  C         20.9790   23.5300   22.2620 C.2    29  ASP29       0.2622
     21  O         21.9560   23.5280   23.0120 O.2    29  ASP29      -0.2715
     22  CB        21.5280   24.1110   19.9210 C.3    29  ASP29       0.1450
     23  CG        21.6950   23.7510   18.4700 C.2    29  ASP29       0.3671
     24  OD1       21.9140   22.5700   18.1230 O.co2  29  ASP29      -0.2456
     25  OD2       21.5860   24.7000   17.6310 O.co2  29  ASP29      -0.2456
     26  N         19.7980   24.0550   22.5460 N.am   30  ASP30      -0.1971
     27  CA        19.4510   24.8420   23.7130 C.3    30  ASP30       0.1709
     28  C         18.3760   24.1380   24.5370 C.2    30  ASP30       0.2293
     29  O         17.6070   23.3400   24.0010 O.2    30  ASP30      -0.2864
     30  CB        18.8820   26.1980   23.2560 C.3    30  ASP30       0.1436
     31  CG        19.7540   26.9350   22.2500 C.2    30  ASP30       0.3671
     32  OD1       20.9760   27.1090   22.5590 O.co2  30  ASP30      -0.2456
     33  OD2       19.2280   27.3800   21.1910 O.co2  30  ASP30      -0.2456
     34  N         14.9360   24.6560   26.3770 N.3    32  VAL32      -0.1245
     35  CA        13.7950   25.5650   26.1980 C.3    32  VAL32       0.1561
     36  C         12.7070   25.1660   27.1890 C.2    32  VAL32       0.2260
     37  O         12.2540   24.0340   27.1500 O.2    32  VAL32      -0.2867
     38  CB        13.2240   25.5330   24.7730 C.3    32  VAL32       0.0252
     39  CG1       12.1910   26.6830   24.5930 C.3    32  VAL32       0.0019
     40  CG2       14.3000   25.6180   23.7140 C.3    32  VAL32       0.0019
     41  N         15.2850   31.5930   18.2830 N.3    47  ILE47      -0.1231
     42  CA        15.5970   30.1870   17.9830 C.3    47  ILE47       0.1692
     43  C         14.6600   29.7220   16.8750 C.2    47  ILE47       0.2593
     44  O         13.4940   30.1160   16.8210 O.2    47  ILE47      -0.2718
     45  CB        15.5380   29.2840   19.2260 C.3    47  ILE47       0.0266
     46  CG1       14.1530   29.2480   19.8680 C.3    47  ILE47       0.0019
     47  CG2       16.6220   29.6670   20.2260 C.3    47  ILE47       0.0020
     48  CD1       14.0410   28.1780   20.9510 C.3    47  ILE47       0.0001
     49  N         15.2010   28.9000   15.9900 N.am   48  GLY48      -0.1942
     50  CA        14.5850   28.3640   14.7980 C.3    48  GLY48       0.2014
     51  C         14.2340   26.9420   14.9740 C.2    48  GLY48       0.2639
     52  O         15.1430   26.1150   14.9590 O.2    48  GLY48      -0.2714
     53  N         12.9620   26.6830   15.1290 N.am   49  GLY49      -0.1939
     54  CA        12.5190   25.2950   15.1980 C.3    49  GLY49       0.2014
     55  C         11.8540   24.8370   13.9240 C.2    49  GLY49       0.2638
     56  O         11.9750   25.4580   12.8520 O.2    49  GLY49      -0.2714
     57  N         11.1240   23.7480   13.9900 N.am   50  ILE50      -0.1977
     58  CA        10.5570   23.1500   12.8050 C.3    50  ILE50       0.1596
     59  C          9.5800   24.0990   12.1220 C.2    50  ILE50       0.2287
     60  O          9.4250   24.1190   10.8940 O.2    50  ILE50      -0.2864
     61  CB         9.8440   21.8100   13.1310 C.3    50  ILE50       0.0276
     62  CG1        9.7260   20.9370   11.8900 C.3    50  ILE50       0.0022
     63  CG2        8.5170   22.0910   13.8170 C.3    50  ILE50       0.0022
     64  CD1       10.2540   19.5610   11.9400 C.3    50  ILE50       0.0001
     65  N         12.1770   21.2060   26.9580 N.3    84  ILE84      -0.1245
     66  CA        13.1450   20.3510   26.2690 C.3    84  ILE84       0.1561
     67  C         14.5320   20.6510   26.8350 C.2    84  ILE84       0.2260
     68  O         14.9550   21.8000   27.0430 O.2    84  ILE84      -0.2867
     69  CB        13.0870   20.4290   24.7350 C.3    84  ILE84       0.0252
     70  CG1       13.4260   21.8080   24.2080 C.3    84  ILE84       0.0019
     71  CG2       11.7480   19.9400   24.1650 C.3    84  ILE84       0.0019
     72  CD1       13.2620   22.0470   22.7320 C.3    84  ILE84       0.0001
@<TRIPOS>BOND
     1    60    59    2
     2    62    64    1
     3    62    61    1
     4    59    58    1
     5    58    61    1
     6    58    57    1
     7    56    55    2
     8    61    63    1
     9    55    57   am
    10    55    54    1
    11    50    51    1
    12    50    49    1
    13    52    51    2
    14    51    53   am
    15    53    54    1
    16    49    43   am
    17    44    43    2
    18    43    42    1
    19    25    23   ar
    20    12    11    2
    21    42    41    1
    22    42    45    1
    23    24    23   ar
    24    10    11    1
    25    10     9    1
    26    23    22    1
    27    11    13   am
    28    45    46    1
    29    45    47    1
    30    46    48    1
    31    22    19    1
    32    13    14    1
    33    18    19    1
    34    18    15   am
    35    14    15    1
    36    14    17    1
    37     7     6   ar
    38    19    20    1
    39    15    16    2
    40    33    31   ar
    41     8     6   ar
    42     6     5    1
    43    31    32   ar
    44    31    30    1
    45    20    26   am
    46    20    21    2
    47     3     4    2
    48     3     2    1
    49    26    27    1
    50    72    70    1
    51     5     2    1
    52     2     1    1
    53    30    27    1
    54    27    28    1
    55    40    38    1
    56    29    28    2
    57    71    69    1
    58    70    69    1
    59    39    38    1
    60    69    66    1
    61    38    35    1
    62    35    34    1
    63    35    36    1
    64    66    67    1
    65    66    65    1
    66    67    68    2
    67    37    36    2
