@<TRIPOS>MOLECULE
tmp/3vf7B00.pdb
 73 67 0 0 0
SMALL
GASTEIGER

@<TRIPOS>ATOM
      1  N         26.2790   19.0260   17.2230 N.3     8  ARG8       -0.1245
      2  CA        25.0830   18.3320   16.7390 C.3     8  ARG8        0.1563
      3  C         25.4030   16.9210   16.2650 C.2     8  ARG8        0.2260
      4  O         26.3980   16.7090   15.5610 O.2     8  ARG8       -0.2867
      5  CB        24.4490   19.1100   15.5780 C.3     8  ARG8        0.0307
      6  CG        23.9370   20.5050   15.9240 C.3     8  ARG8        0.0489
      7  CD        23.2120   21.1590   14.7370 C.3     8  ARG8        0.2205
      8  NE        22.5140   22.3740   15.1410 N.pl3   8  ARG8       -0.0865
      9  CZ        21.5510   22.9700   14.4000 C.cat   8  ARG8        0.5346
     10  NH1       21.1160   22.4760   13.2350 N.pl3   8  ARG8        0.1354
     11  NH2       20.9650   24.0820   14.8160 N.pl3   8  ARG8        0.1354
     12  N         20.1920   14.6700   11.5720 N.3    23  LEU23      -0.1245
     13  CA        20.3690   14.7620   13.0140 C.3    23  LEU23       0.1561
     14  C         19.7440   13.5680   13.7250 C.2    23  LEU23       0.2260
     15  O         18.5750   13.2450   13.4730 O.2    23  LEU23      -0.2867
     16  CB        19.7740   16.1190   13.3630 C.3    23  LEU23       0.0270
     17  CG        19.8030   16.7300   14.7200 C.3    23  LEU23       0.0019
     18  CD1       21.1870   17.2330   15.0560 C.3    23  LEU23       0.0001
     19  CD2       18.8450   17.9280   14.7530 C.3    23  LEU23       0.0001
     20  N         17.8530   12.4440   16.5430 N.3    25  ASP25      -0.1239
     21  CA        17.0770   13.3320   17.4110 C.3    25  ASP25       0.1674
     22  C         16.1000   12.5890   18.3310 C.2    25  ASP25       0.2266
     23  O         15.0050   12.1840   17.9590 O.2    25  ASP25      -0.2867
     24  CB        16.3320   14.2780   16.4840 C.3    25  ASP25       0.1410
     25  CG        15.6920   15.3910   17.2310 C.2    25  ASP25       0.3668
     26  OD1       15.7170   15.3420   18.4960 O.co2  25  ASP25      -0.2456
     27  OD2       15.2020   16.3470   16.5960 O.co2  25  ASP25      -0.2456
     28  N         14.3570   13.8670   20.5600 N.3    27  GLY27      -0.1210
     29  CA        13.1790   14.6820   20.8550 C.3    27  GLY27       0.1956
     30  C         12.1660   14.6330   19.7140 C.2    27  GLY27       0.2611
     31  O         11.1100   15.2900   19.8030 O.2    27  GLY27      -0.2717
     32  N         12.3920   13.8960   18.6460 N.am   28  ALA28      -0.1979
     33  CA        11.5290   13.8040   17.4750 C.3    28  ALA28       0.1597
     34  C         10.7800   12.4640   17.4600 C.2    28  ALA28       0.2287
     35  O         11.3930   11.4000   17.4510 O.2    28  ALA28      -0.2864
     36  CB        12.2940   13.9120   16.1650 C.3    28  ALA28       0.0319
     37  N          8.6940   23.8950   17.9310 N.3    50  ILE50      -0.1245
     38  CA         8.9340   25.3080   18.1890 C.3    50  ILE50       0.1561
     39  C          8.7050   26.0970   16.8860 C.2    50  ILE50       0.2260
     40  O          9.1520   25.7310   15.7910 O.2    50  ILE50      -0.2867
     41  CB        10.3380   25.4810   18.7900 C.3    50  ILE50       0.0252
     42  CG1       10.3080   25.0320   20.2800 C.3    50  ILE50       0.0019
     43  CG2       10.8470   26.9270   18.5770 C.3    50  ILE50       0.0019
     44  CD1       11.6360   24.9200   20.9300 C.3    50  ILE50       0.0001
     45  N         11.2110   21.0050    6.2150 N.3    80  THR80      -0.1204
     46  CA        11.9840   21.0380    7.4590 C.3    80  THR80       0.1982
     47  C         13.3120   21.7450    7.2450 C.2    80  THR80       0.2497
     48  O         13.9330   21.5290    6.2010 O.2    80  THR80      -0.2729
     49  CB        12.2000   19.6350    8.0500 C.3    80  THR80       0.1783
     50  OG1       12.9960   19.7670    9.2330 O.3    80  THR80      -0.2211
     51  CG2       12.8610   18.7030    7.0600 C.3    80  THR80       0.0376
     52  N         13.7590   22.5560    8.1990 N.am   81  PRO81      -0.2492
     53  CA        15.0860   23.1900    8.0320 C.3    81  PRO81       0.1619
     54  C         16.2500   22.2150    8.1490 C.2    81  PRO81       0.2605
     55  O         17.4060   22.5960    7.8240 O.2    81  PRO81      -0.2715
     56  CB        15.1870   24.1910    9.1640 C.3    81  PRO81       0.0570
     57  CG        14.0030   23.9960   10.0040 C.2    81  PRO81      -0.0077
     58  CD        13.0990   22.9630    9.4340 C.2    81  PRO81       0.0634
     59  N         16.0930   21.0160    8.6710 N.am   82  VAL82      -0.1978
     60  CA        17.1490   20.0450    8.8960 C.3    82  VAL82       0.1596
     61  C         16.5390   18.6670    8.7400 C.2    82  VAL82       0.2287
     62  O         15.3850   18.4390    9.0990 O.2    82  VAL82      -0.2864
     63  CB        17.7560   20.2380   10.2940 C.3    82  VAL82       0.0276
     64  CG1       16.7160   20.0360   11.3760 C.3    82  VAL82       0.0022
     65  CG2       18.9540   19.3060   10.4920 C.3    82  VAL82       0.0022
     66  N         15.9300   15.0180   10.0170 N.3    84  ILE84      -0.1245
     67  CA        15.7960   14.5040   11.3500 C.3    84  ILE84       0.1561
     68  C         15.4870   13.0120   11.3430 C.2    84  ILE84       0.2260
     69  O         14.4870   12.6050   10.7640 O.2    84  ILE84      -0.2867
     70  CB        14.6450   15.2520   12.0730 C.3    84  ILE84       0.0252
     71  CG1       14.9100   16.7530   12.2120 C.3    84  ILE84       0.0019
     72  CG2       14.3180   14.5300   13.3750 C.3    84  ILE84       0.0019
     73  CD1       13.7260   17.5520   12.6600 C.3    84  ILE84       0.0001
@<TRIPOS>BOND
     1    48    47    2
     2    45    46    1
     3    51    49    1
     4    47    46    1
     5    47    52   am
     6    46    49    1
     7    55    54    2
     8    53    54    1
     9    53    52    1
    10    53    56    1
    11    49    50    1
    12    54    59   am
    13    52    58    1
    14    59    60    1
    15    61    60    1
    16    61    62    2
    17    60    63    1
    18    56    57    1
    19    58    57    2
    20    66    67    1
    21    63    65    1
    22    63    64    1
    23    69    68    2
    24    68    67    1
    25    67    70    1
    26    12    13    1
    27    70    71    1
    28    70    72    1
    29    71    73    1
    30    13    16    1
    31    13    14    1
    32    10     9    1
    33    16    17    1
    34    15    14    2
    35     9    11    1
    36     9     8    2
    37    17    19    1
    38    17    18    1
    39     7     8    1
    40     7     6    1
    41     4     3    2
    42     5     6    1
    43     5     2    1
    44    40    39    2
    45    36    33    1
    46     3     2    1
    47    24    25    1
    48    24    21    1
    49    20    21    1
    50    27    25   ar
    51     2     1    1
    52    39    38    1
    53    25    26   ar
    54    21    22    1
    55    35    34    2
    56    34    33    1
    57    33    32    1
    58    37    38    1
    59    23    22    2
    60    38    41    1
    61    43    41    1
    62    32    30   am
    63    41    42    1
    64    30    31    2
    65    30    29    1
    66    42    44    1
    67    28    29    1
