@<TRIPOS>MOLECULE
tmp/3vf8A00.pdb
 168 158 0 0 0
SMALL
GASTEIGER

@<TRIPOS>ATOM
      1  N          0.9670   -9.0470   -6.4710 N.3    13  LYS13      -0.1245
      2  CA         1.6760   -8.0900   -7.3230 C.3    13  LYS13       0.1561
      3  C          0.9830   -6.7270   -7.3780 C.2    13  LYS13       0.2260
      4  O         -0.2110   -6.6490   -7.6820 O.2    13  LYS13      -0.2867
      5  CB         1.8650   -8.6610   -8.7380 C.3    13  LYS13       0.0271
      6  CG         2.6960   -7.7970   -9.6750 C.3    13  LYS13       0.0035
      7  CD         2.6960   -8.3940  -11.0820 C.3    13  LYS13       0.0206
      8  CE         3.6500   -7.6900  -12.0190 C.3    13  LYS13       0.1093
      9  NZ         3.3040   -6.2860  -12.2760 N.3    13  LYS13      -0.1314
     10  N          0.7630   -3.0920   -9.1640 N.3    15  LEU15      -0.1231
     11  CA         1.0070   -2.4100  -10.4370 C.3    15  LEU15       0.1693
     12  C          1.4640   -0.9580  -10.2610 C.2    15  LEU15       0.2592
     13  O          2.3370   -0.5010  -11.0010 O.2    15  LEU15      -0.2718
     14  CB        -0.2380   -2.4800  -11.3450 C.3    15  LEU15       0.0284
     15  CG        -0.7700   -3.8750  -11.7020 C.3    15  LEU15       0.0019
     16  CD1       -2.1840   -3.7940  -12.2270 C.3    15  LEU15       0.0001
     17  CD2        0.1290   -4.5800  -12.7090 C.3    15  LEU15       0.0001
     18  N          0.8660   -0.2550   -9.2990 N.am   16  GLY16      -0.1957
     19  CA         1.1780    1.1390   -9.0000 C.3    16  GLY16       0.1869
     20  C          0.8430    1.5600   -7.5830 C.2    16  GLY16       0.2309
     21  O          0.2790    0.7760   -6.8130 O.2    16  GLY16      -0.2863
     22  N         -3.8610    7.7010   -2.5830 N.3    20  PHE20      -0.1241
     23  CA        -5.0680    6.8940   -2.3740 C.3    20  PHE20       0.1605
     24  C         -4.7610    5.5350   -1.7300 C.2    20  PHE20       0.2264
     25  O         -5.5230    5.0740   -0.8790 O.2    20  PHE20      -0.2867
     26  CB        -5.8360    6.7100   -3.7040 C.3    20  PHE20       0.0534
     27  CG        -5.0240    6.1410   -4.8490 C.ar   20  PHE20      -0.0203
     28  CD1       -4.9810    4.7700   -5.0800 C.ar   20  PHE20      -0.0042
     29  CD2       -4.3150    6.9770   -5.7050 C.ar   20  PHE20      -0.0042
     30  CE1       -4.2100    4.2440   -6.1210 C.ar   20  PHE20      -0.0003
     31  CE2       -3.5540    6.4490   -6.7530 C.ar   20  PHE20      -0.0003
     32  CZ        -3.5120    5.0870   -6.9580 C.ar   20  PHE20      -0.0000
     33  N         -2.5300    0.1710   -6.6310 N.3    23  VAL23      -0.1245
     34  CA        -3.1950   -0.4320   -7.7910 C.3    23  VAL23       0.1561
     35  C         -2.6280   -1.8550   -7.9210 C.2    23  VAL23       0.2260
     36  O         -1.4130   -2.0140   -8.0400 O.2    23  VAL23      -0.2867
     37  CB        -3.0220    0.4010   -9.0940 C.3    23  VAL23       0.0252
     38  CG1       -3.7110   -0.2730  -10.2790 C.3    23  VAL23       0.0019
     39  CG2       -3.5460    1.8240   -8.9150 C.3    23  VAL23       0.0019
     40  N         -7.1820   -4.5790  -13.3300 N.3    36  ALA36      -0.1245
     41  CA        -6.3220   -3.7240  -12.5260 C.3    36  ALA36       0.1562
     42  C         -7.2630   -3.0910  -11.5100 C.2    36  ALA36       0.2260
     43  O         -8.2660   -2.4790  -11.8890 O.2    36  ALA36      -0.2867
     44  CB        -5.6650   -2.6650  -13.3860 C.3    36  ALA36       0.0290
     45  N         -7.8660   -0.5570   -8.3450 N.3    38  LYS38      -0.1245
     46  CA        -7.4380    0.6210   -7.5950 C.3    38  LYS38       0.1561
     47  C         -8.0160    0.4700   -6.1820 C.2    38  LYS38       0.2260
     48  O         -9.2350    0.5250   -6.0070 O.2    38  LYS38      -0.2867
     49  CB        -7.9390    1.9050   -8.2860 C.3    38  LYS38       0.0271
     50  CG        -7.1970    3.1600   -7.8820 C.3    38  LYS38       0.0035
     51  CD        -7.7860    4.3860   -8.5710 C.3    38  LYS38       0.0206
     52  CE        -7.6470    4.2860  -10.0800 C.3    38  LYS38       0.1093
     53  NZ        -6.2120    4.3510  -10.4910 N.3    38  LYS38      -0.1314
     54  N         -9.4970    3.5480  -20.8980 N.3    63  VAL63      -0.1245
     55  CA        -9.5580    2.3810  -20.0080 C.3    63  VAL63       0.1561
     56  C        -11.0040    2.2190  -19.5080 C.2    63  VAL63       0.2260
     57  O        -11.5910    3.1730  -18.9890 O.2    63  VAL63      -0.2867
     58  CB        -8.5260    2.4710  -18.8440 C.3    63  VAL63       0.0252
     59  CG1       -8.7630    1.3910  -17.7860 C.3    63  VAL63       0.0019
     60  CG2       -7.0970    2.3930  -19.3720 C.3    63  VAL63       0.0019
     61  N        -10.9000   -1.9830  -13.0580 N.3    78  MET78      -0.1230
     62  CA       -10.7190   -1.5590  -14.4530 C.3    78  MET78       0.1702
     63  C        -10.1540   -2.6940  -15.2950 C.2    78  MET78       0.2595
     64  O         -9.5000   -3.5820  -14.7500 O.2    78  MET78      -0.2718
     65  CB        -9.7060   -0.4010  -14.5280 C.3    78  MET78       0.0401
     66  CG       -10.1480    0.8670  -13.8490 C.3    78  MET78       0.0596
     67  SD        -8.7730    2.0340  -13.6630 S.3    78  MET78      -0.1393
     68  CE        -7.9230    1.3310  -12.2600 C.3    78  MET78       0.0692
     69  N        -10.3280   -2.6190  -16.6300 N.am   79  GLU79      -0.1920
     70  CA        -9.7390   -3.5840  -17.5610 C.3    79  GLU79       0.1949
     71  C         -8.2090   -3.4390  -17.5240 C.2    79  GLU79       0.2659
     72  O         -7.6950   -2.3260  -17.3760 O.2    79  GLU79      -0.2711
     73  CB       -10.2910   -3.4180  -18.9940 C.2    79  GLU79       0.0111
     74  CG       -10.0370   -2.0600  -19.6360 C.2    79  GLU79       0.0838
     75  CD       -10.4460   -1.8860  -21.0860 C.2    79  GLU79       0.3877
     76  OE1      -10.8100   -2.8880  -21.7450 O.co2  79  GLU79      -0.2406
     77  OE2      -10.4040   -0.7310  -21.5640 O.co2  79  GLU79      -0.2406
     78  N         -7.4970   -4.5650  -17.5910 N.am   80  MET80      -0.1960
     79  CA        -6.0410   -4.5890  -17.5210 C.3    80  MET80       0.1737
     80  C         -5.3790   -4.2130  -18.8490 C.2    80  MET80       0.2616
     81  O         -5.7030   -4.7850  -19.8900 O.2    80  MET80      -0.2715
     82  CB        -5.5590   -5.9700  -17.0190 C.3    80  MET80       0.0427
     83  CG        -4.0450   -6.1470  -16.9890 C.3    80  MET80       0.0599
     84  SD        -3.1980   -5.1350  -15.7560 S.3    80  MET80      -0.1393
     85  CE        -1.5510   -5.7430  -15.9280 C.3    80  MET80       0.0692
     86  N         -4.4490   -3.2460  -18.7910 N.am   81  ALA81      -0.1963
     87  CA        -3.6120   -2.8170  -19.9080 C.3    81  ALA81       0.1728
     88  C         -2.2260   -3.3430  -19.5300 C.2    81  ALA81       0.2616
     89  O         -1.4920   -2.7130  -18.7660 O.2    81  ALA81      -0.2715
     90  CB        -3.6160   -1.3010  -20.0270 C.3    81  ALA81       0.0334
     91  N         -1.9410   -4.5680  -19.9840 N.am   82  GLU82      -0.1963
     92  CA        -0.7510   -5.3720  -19.6840 C.3    82  GLU82       0.1733
     93  C          0.6190   -4.7110  -19.7530 C.2    82  GLU82       0.2616
     94  O          1.4270   -4.9180  -18.8470 O.2    82  GLU82      -0.2715
     95  CB        -0.7740   -6.6970  -20.4570 C.3    82  GLU82       0.0429
     96  CG        -1.9510   -7.5890  -20.0850 C.3    82  GLU82       0.1163
     97  CD        -1.8800   -8.3510  -18.7740 C.2    82  GLU82       0.3649
     98  OE1       -2.8610   -9.0630  -18.4630 O.co2  82  GLU82      -0.2457
     99  OE2       -0.8430   -8.2760  -18.0770 O.co2  82  GLU82      -0.2457
    100  N          0.8870   -3.9280  -20.8080 N.am   83  LEU83      -0.1963
    101  CA         2.1880   -3.2800  -20.9960 C.3    83  LEU83       0.1728
    102  C          2.4700   -2.1010  -20.0490 C.2    83  LEU83       0.2617
    103  O          3.6330   -1.7610  -19.8310 O.2    83  LEU83      -0.2715
    104  CB         2.4520   -2.9530  -22.4780 C.3    83  LEU83       0.0311
    105  CG         3.0700   -4.0750  -23.3470 C.3    83  LEU83       0.0022
    106  CD1        2.1400   -5.2850  -23.4930 C.3    83  LEU83       0.0001
    107  CD2        3.3850   -3.5680  -24.7270 C.3    83  LEU83       0.0001
    108  N          1.4130   -1.5340  -19.4660 N.am   84  GLY84      -0.1941
    109  CA         1.4970   -0.4660  -18.4770 C.3    84  GLY84       0.1998
    110  C          1.7310    0.9440  -18.9770 C.2    84  GLY84       0.2480
    111  O          1.5210    1.2290  -20.1590 O.2    84  GLY84      -0.2729
    112  N          2.1630    1.8540  -18.0620 N.am   85  PRO85      -0.2726
    113  CA         2.3760    3.2630  -18.4460 C.3    85  PRO85       0.1402
    114  C          3.3480    3.4870  -19.6010 C.2    85  PRO85       0.2269
    115  O          4.3850    2.8260  -19.6790 O.2    85  PRO85      -0.2865
    116  CB         2.8550    3.9210  -17.1480 C.3    85  PRO85       0.0296
    117  CG         2.3490    3.0400  -16.0640 C.3    85  PRO85       0.0237
    118  CD         2.4250    1.6530  -16.6210 C.3    85  PRO85       0.0939
    119  N          7.1300    4.6550  -18.7050 N.3    88  LYS88      -0.1245
    120  CA         7.9440    3.5400  -18.2150 C.3    88  LYS88       0.1561
    121  C          8.3150    2.5820  -19.3410 C.2    88  LYS88       0.2260
    122  O          9.4490    2.1020  -19.3730 O.2    88  LYS88      -0.2867
    123  CB         7.2320    2.7830  -17.0730 C.3    88  LYS88       0.0271
    124  CG         6.9140    3.6330  -15.8390 C.3    88  LYS88       0.0035
    125  CD         8.1370    3.8920  -14.9590 C.3    88  LYS88       0.0206
    126  CE         7.9550    5.1200  -14.1030 C.3    88  LYS88       0.1093
    127  NZ         9.2150    5.4970  -13.4140 N.3    88  LYS88      -0.1314
    128  N          2.4560    9.0090  -18.0030 N.3   128  ARG128     -0.1231
    129  CA         2.2780    8.0210  -16.9280 C.3   128  ARG128      0.1694
    130  C          0.8300    7.5020  -16.8550 C.2   128  ARG128      0.2592
    131  O          0.5980    6.4180  -16.3190 O.2   128  ARG128     -0.2718
    132  CB         2.7040    8.6120  -15.5640 C.3   128  ARG128      0.0321
    133  CG         1.8230    9.7690  -15.0930 C.3   128  ARG128      0.0489
    134  CD         2.2010   10.3140  -13.7340 C.3   128  ARG128      0.2205
    135  NE         1.3940   11.4930  -13.4150 N.pl3 128  ARG128     -0.0865
    136  CZ         1.7030   12.7350  -13.7760 C.cat 128  ARG128      0.5346
    137  NH1        2.8160   12.9790  -14.4560 N.pl3 128  ARG128      0.1354
    138  NH2        0.9040   13.7420  -13.4580 N.pl3 128  ARG128      0.1354
    139  N         -0.1320    8.2910  -17.3770 N.am  129  ASN129     -0.1974
    140  CA        -1.5600    7.9720  -17.3700 C.3   129  ASN129      0.1688
    141  C         -2.0790    7.4080  -18.6940 C.2   129  ASN129      0.2292
    142  O         -3.2800    7.1730  -18.8440 O.2   129  ASN129     -0.2864
    143  CB        -2.3770    9.1560  -16.8480 C.3   129  ASN129      0.1181
    144  CG        -2.0510    9.5030  -15.4120 C.2   129  ASN129      0.2629
    145  OD1       -1.6690    8.6480  -14.6010 O.2   129  ASN129     -0.2716
    146  ND2       -2.1980   10.7650  -15.0600 N.am  129  ASN129     -0.0877
    147  N         -1.8460    4.1400  -20.8640 N.3   131  LEU131     -0.1245
    148  CA        -1.4990    2.7380  -20.6680 C.3   131  LEU131      0.1561
    149  C         -1.5520    1.9480  -21.9550 C.2   131  LEU131      0.2260
    150  O         -2.4330    2.1660  -22.7890 O.2   131  LEU131     -0.2867
    151  CB        -2.3810    2.0950  -19.5950 C.3   131  LEU131      0.0270
    152  CG        -2.5820    2.8630  -18.2900 C.3   131  LEU131      0.0019
    153  CD1       -3.5960    2.1850  -17.4660 C.3   131  LEU131      0.0001
    154  CD2       -1.2890    2.9930  -17.4890 C.3   131  LEU131      0.0001
    155  N         -5.9930    6.5590  -18.9960 N.3   141  SER141     -0.1202
    156  CA        -6.4300    6.1520  -17.6600 C.3   141  SER141      0.2020
    157  C         -6.3450    7.3080  -16.6560 C.2   141  SER141      0.2618
    158  O         -6.1070    8.4540  -17.0530 O.2   141  SER141     -0.2717
    159  CB        -5.6120    4.9640  -17.1720 C.3   141  SER141      0.2103
    160  OG        -6.3150    4.2330  -16.1810 O.3   141  SER141     -0.2182
    161  N         -6.5370    6.9910  -15.3530 N.am  142  ASP142     -0.1973
    162  CA        -6.4930    7.9050  -14.2100 C.3   142  ASP142      0.1709
    163  C         -7.4450    9.0960  -14.3510 C.2   142  ASP142      0.2293
    164  O         -7.0420   10.1880  -14.7630 O.2   142  ASP142     -0.2864
    165  CB        -5.0470    8.3250  -13.8670 C.3   142  ASP142      0.1436
    166  CG        -4.8680    9.0440  -12.5380 C.2   142  ASP142      0.3671
    167  OD1       -5.8310    9.0740  -11.7390 O.co2 142  ASP142     -0.2456
    168  OD2       -3.7570    9.5540  -12.2870 O.co2 142  ASP142     -0.2456
@<TRIPOS>BOND
     1   107   105    1
     2   106   105    1
     3   105   104    1
     4   150   149    2
     5   104   101    1
     6   149   148    1
     7    76    75   ar
     8    77    75   ar
     9    75    74    1
    10   101   100    1
    11   101   102    1
    12    54    55    1
    13   147   148    1
    14   100    93   am
    15   148   151    1
    16    95    96    1
    17    95    92    1
    18   111   110    2
    19    96    97    1
    20   102   103    2
    21   102   108   am
    22    90    87    1
    23    55    56    1
    24    55    58    1
    25    91    92    1
    26    91    88   am
    27    87    88    1
    28    87    86    1
    29    81    80    2
    30    93    92    1
    31    93    94    2
    32   115   114    2
    33    74    73    2
    34   114   113    1
    35   151   152    1
    36    88    89    2
    37    56    57    2
    38   108   109    1
    39   122   121    2
    40    60    58    1
    41   121   120    1
    42   155   156    1
    43    73    70    1
    44   110   109    1
    45   110   112   am
    46    80    86   am
    47    80    79    1
    48    58    59    1
    49   142   141    2
    50    97    98   ar
    51    97    99   ar
    52   119   120    1
    53   141   140    1
    54   113   112    1
    55   113   116    1
    56   152   154    1
    57   152   153    1
    58   120   123    1
    59   112   118    1
    60   128   129    1
    61   156   159    1
    62   156   157    1
    63    78    71   am
    64    78    79    1
    65    70    71    1
    66    70    69    1
    67    71    72    2
    68    79    82    1
    69   139   140    1
    70   139   130   am
    71   140   143    1
    72   159   160    1
    73   116   117    1
    74   123   124    1
    75   158   157    2
    76    82    83    1
    77    83    84    1
    78   129   130    1
    79   129   132    1
    80   130   131    2
    81   143   144    1
    82   157   161   am
    83    69    63   am
    84   118   117    1
    85    85    84    1
    86   124   125    1
    87   132   133    1
    88   144   146   am
    89   144   145    2
    90   161   162    1
    91    63    64    2
    92    63    62    1
    93   133   134    1
    94   125   126    1
    95   164   163    2
    96    65    62    1
    97    65    66    1
    98   137   136    1
    99    62    61    1
   100   163   162    1
   101   162   165    1
   102   126   127    1
   103   165   166    1
   104    66    67    1
   105   136   138    1
   106   136   135    2
   107   134   135    1
   108    67    68    1
   109    44    41    1
   110    40    41    1
   111    17    15    1
   112   166   168   ar
   113   166   167   ar
   114    41    42    1
   115     9     8    1
   116    16    15    1
   117     8     7    1
   118    43    42    2
   119    15    14    1
   120    14    11    1
   121     7     6    1
   122    13    12    2
   123    53    52    1
   124    11    12    1
   125    11    10    1
   126    38    37    1
   127    12    18   am
   128    52    51    1
   129     6     5    1
   130    18    19    1
   131    37    39    1
   132    37    34    1
   133    19    20    1
   134     5     2    1
   135    51    50    1
   136    45    46    1
   137    49    50    1
   138    49    46    1
   139    36    35    2
   140    35    34    1
   141    34    33    1
   142     4     3    2
   143    46    47    1
   144    20    21    2
   145     3     2    1
   146     2     1    1
   147    32    31   ar
   148    32    30   ar
   149    31    29   ar
   150    47    48    2
   151    30    28   ar
   152    29    27   ar
   153    28    27   ar
   154    27    26    1
   155    26    23    1
   156    22    23    1
   157    23    24    1
   158    24    25    2
