@<TRIPOS>MOLECULE
tmp/3vf9A00.pdb
 138 129 0 0 0
SMALL
GASTEIGER

@<TRIPOS>ATOM
      1  N          0.8940   -9.4730   -7.0450 N.3    12  LYS12      -0.1245
      2  CA         1.6070   -8.5900   -7.9740 C.3    12  LYS12       0.1561
      3  C          1.0500   -7.1610   -7.9730 C.2    12  LYS12       0.2260
      4  O         -0.0410   -6.9110   -8.4960 O.2    12  LYS12      -0.2867
      5  CB         1.6260   -9.1870   -9.3920 C.3    12  LYS12       0.0271
      6  CG         2.5750   -8.4560  -10.2630 C.3    12  LYS12       0.0035
      7  CD         2.2090   -8.7190  -11.7000 C.3    12  LYS12       0.0206
      8  CE         3.2380   -7.9320  -12.5300 C.3    12  LYS12       0.1093
      9  NZ         2.7920   -7.7920  -13.9060 N.3    12  LYS12      -0.1314
     10  N          0.9800   -3.4650   -9.2200 N.3    14  LEU14      -0.1231
     11  CA         1.2470   -2.6900  -10.4330 C.3    14  LEU14       0.1693
     12  C          1.7030   -1.2670  -10.0980 C.2    14  LEU14       0.2592
     13  O          2.7330   -0.8200  -10.6080 O.2    14  LEU14      -0.2718
     14  CB         0.0100   -2.6590  -11.3580 C.3    14  LEU14       0.0284
     15  CG        -0.5320   -4.0020  -11.8610 C.3    14  LEU14       0.0019
     16  CD1       -1.9500   -3.8520  -12.3620 C.3    14  LEU14       0.0001
     17  CD2        0.3480   -4.5860  -12.9530 C.3    14  LEU14       0.0001
     18  N          0.9380   -0.5840   -9.2440 N.am   15  GLY15      -0.1957
     19  CA         1.2120    0.7810   -8.8050 C.3    15  GLY15       0.1869
     20  C          0.9290    1.0200   -7.3340 C.2    15  GLY15       0.2309
     21  O          0.2720    0.2030   -6.6820 O.2    15  GLY15      -0.2863
     22  N         -2.4490   -0.2800   -6.4740 N.3    22  VAL22      -0.1245
     23  CA        -3.1100   -0.8300   -7.6610 C.3    22  VAL22       0.1561
     24  C         -2.5460   -2.2430   -7.8700 C.2    22  VAL22       0.2260
     25  O         -1.3340   -2.4020   -8.0370 O.2    22  VAL22      -0.2867
     26  CB        -2.9510    0.0750   -8.9190 C.3    22  VAL22       0.0252
     27  CG1       -3.5060   -0.6030  -10.1720 C.3    22  VAL22       0.0019
     28  CG2       -3.6170    1.4320   -8.7110 C.3    22  VAL22       0.0019
     29  N         -7.2300   -4.5810  -13.4990 N.3    36  ALA36      -0.1245
     30  CA        -6.3550   -3.7770  -12.6520 C.3    36  ALA36       0.1562
     31  C         -7.2860   -3.1470  -11.6160 C.2    36  ALA36       0.2260
     32  O         -8.2370   -2.4490  -11.9820 O.2    36  ALA36      -0.2867
     33  CB        -5.6510   -2.7080  -13.4690 C.3    36  ALA36       0.0290
     34  N         -7.9120   -0.7560   -8.3060 N.3    38  LYS38      -0.1245
     35  CA        -7.4550    0.3740   -7.5010 C.3    38  LYS38       0.1561
     36  C         -7.9800    0.1450   -6.0780 C.2    38  LYS38       0.2260
     37  O         -9.1910    0.1990   -5.8550 O.2    38  LYS38      -0.2867
     38  CB        -7.9730    1.7010   -8.0920 C.3    38  LYS38       0.0271
     39  CG        -7.2600    2.9390   -7.5240 C.3    38  LYS38       0.0035
     40  CD        -7.8390    4.1560   -8.2680 C.3    38  LYS38       0.0206
     41  CE        -6.7520    5.1980   -8.5140 C.3    38  LYS38       0.1093
     42  NZ        -6.4370    5.7420   -7.1510 N.3    38  LYS38      -0.1314
     43  N         -9.7680    3.9510  -20.9430 N.3    63  VAL63      -0.1245
     44  CA        -9.7680    2.7590  -20.0810 C.3    63  VAL63       0.1561
     45  C        -11.1980    2.4780  -19.5850 C.2    63  VAL63       0.2260
     46  O        -11.8620    3.3840  -19.0800 O.2    63  VAL63      -0.2867
     47  CB        -8.7190    2.8600  -18.9300 C.3    63  VAL63       0.0252
     48  CG1       -8.9140    1.7690  -17.8760 C.3    63  VAL63       0.0019
     49  CG2       -7.2970    2.8130  -19.4820 C.3    63  VAL63       0.0019
     50  N        -11.1000   -1.9980  -12.9410 N.3    78  MET78      -0.1230
     51  CA       -10.9510   -1.4880  -14.3090 C.3    78  MET78       0.1702
     52  C        -10.2220   -2.5170  -15.1730 C.2    78  MET78       0.2595
     53  O         -9.4890   -3.3490  -14.6340 O.2    78  MET78      -0.2718
     54  CB       -10.1460   -0.1730  -14.3090 C.3    78  MET78       0.0401
     55  CG       -10.7550    0.9330  -13.4680 C.3    78  MET78       0.0596
     56  SD        -9.5980    2.2900  -13.1630 S.3    78  MET78      -0.1393
     57  CE        -8.5810    1.5790  -11.8740 C.3    78  MET78       0.0692
     58  N        -10.3890   -2.4370  -16.5110 N.am   79  GLU79      -0.1920
     59  CA        -9.7240   -3.3390  -17.4580 C.3    79  GLU79       0.1949
     60  C         -8.1940   -3.2300  -17.3870 C.2    79  GLU79       0.2659
     61  O         -7.6600   -2.1510  -17.1140 O.2    79  GLU79      -0.2711
     62  CB       -10.2520   -3.1650  -18.8980 C.2    79  GLU79       0.0111
     63  CG        -9.9530   -1.8220  -19.5540 C.2    79  GLU79       0.0838
     64  CD       -10.3500   -1.6700  -21.0130 C.2    79  GLU79       0.3877
     65  OE1      -10.7690   -2.6710  -21.6390 O.co2  79  GLU79      -0.2406
     66  OE2      -10.2580   -0.5320  -21.5260 O.co2  79  GLU79      -0.2406
     67  N         -7.5050   -4.3600  -17.5920 N.am   80  MET80      -0.1960
     68  CA        -6.0490   -4.4470  -17.5320 C.3    80  MET80       0.1737
     69  C         -5.3920   -4.0710  -18.8610 C.2    80  MET80       0.2616
     70  O         -5.7450   -4.6170  -19.9080 O.2    80  MET80      -0.2715
     71  CB        -5.6160   -5.8550  -17.0610 C.3    80  MET80       0.0427
     72  CG        -4.1080   -6.0830  -17.0120 C.3    80  MET80       0.0599
     73  SD        -3.2430   -5.1070  -15.7610 S.3    80  MET80      -0.1393
     74  CE        -1.5800   -5.6280  -16.0560 C.3    80  MET80       0.0692
     75  N         -4.4380   -3.1290  -18.7980 N.am   81  ALA81      -0.1963
     76  CA        -3.6160   -2.6870  -19.9210 C.3    81  ALA81       0.1728
     77  C         -2.2470   -3.3080  -19.6570 C.2    81  ALA81       0.2616
     78  O         -1.4420   -2.7770  -18.8860 O.2    81  ALA81      -0.2715
     79  CB        -3.5330   -1.1720  -19.9550 C.3    81  ALA81       0.0334
     80  N         -2.0420   -4.4950  -20.2370 N.am   82  GLU82      -0.1963
     81  CA        -0.8770   -5.3690  -20.0730 C.3    82  GLU82       0.1733
     82  C          0.5110   -4.7420  -20.2020 C.2    82  GLU82       0.2616
     83  O          1.3970   -5.0900  -19.4210 O.2    82  GLU82      -0.2715
     84  CB        -1.0130   -6.6270  -20.9440 C.3    82  GLU82       0.0429
     85  CG        -2.3100   -7.4010  -20.7220 C.3    82  GLU82       0.1163
     86  CD        -2.4680   -8.2150  -19.4480 C.2    82  GLU82       0.3649
     87  OE1       -3.5770   -8.7600  -19.2430 O.co2  82  GLU82      -0.2457
     88  OE2       -1.4980   -8.3240  -18.6640 O.co2  82  GLU82      -0.2457
     89  N          0.7030   -3.8260  -21.1640 N.am   83  LEU83      -0.1963
     90  CA         2.0020   -3.1820  -21.3840 C.3    83  LEU83       0.1728
     91  C          2.3370   -2.0400  -20.4040 C.2    83  LEU83       0.2617
     92  O          3.5000   -1.6480  -20.2930 O.2    83  LEU83      -0.2715
     93  CB         2.1980   -2.7910  -22.8600 C.3    83  LEU83       0.0311
     94  CG         2.7850   -3.8750  -23.7810 C.3    83  LEU83       0.0022
     95  CD1        1.7590   -4.9550  -24.1310 C.3    83  LEU83       0.0001
     96  CD2        3.2900   -3.2690  -25.0630 C.3    83  LEU83       0.0001
     97  N          1.3270   -1.5610  -19.6780 N.am   84  GLY84      -0.1941
     98  CA         1.4720   -0.5350  -18.6500 C.3    84  GLY84       0.1998
     99  C          1.6100    0.9020  -19.1160 C.2    84  GLY84       0.2480
    100  O          1.2810    1.2170  -20.2640 O.2    84  GLY84      -0.2729
    101  N          2.0870    1.8070  -18.2180 N.am   85  PRO85      -0.2726
    102  CA         2.2190    3.2310  -18.5880 C.3    85  PRO85       0.1402
    103  C          3.1750    3.5060  -19.7460 C.2    85  PRO85       0.2269
    104  O          4.1850    2.8140  -19.8920 O.2    85  PRO85      -0.2865
    105  CB         2.7010    3.8960  -17.2940 C.3    85  PRO85       0.0296
    106  CG         2.3610    2.9370  -16.2070 C.3    85  PRO85       0.0237
    107  CD         2.4990    1.5840  -16.8180 C.3    85  PRO85       0.0939
    108  N         12.0860    1.8390  -20.9920 N.3    92  GLN92      -0.1245
    109  CA        12.6100    0.4750  -21.1020 C.3    92  GLN92       0.1566
    110  C         12.7750    0.0300  -22.5620 C.2    92  GLN92       0.2260
    111  O         13.4770   -0.9490  -22.8210 O.2    92  GLN92      -0.2867
    112  CB        11.7090   -0.5070  -20.3330 C.3    92  GLN92       0.0367
    113  CG        11.9510   -0.5050  -18.8240 C.3    92  GLN92       0.0905
    114  CD        10.6770   -0.5810  -18.0140 C.2    92  GLN92       0.2608
    115  OE1       10.3670    0.3140  -17.2200 O.2    92  GLN92      -0.2717
    116  NE2        9.9210   -1.6630  -18.1670 N.am   92  GLN92      -0.0878
    117  N         -1.9780    4.3700  -20.9260 N.3   131  LEU131     -0.1245
    118  CA        -1.6740    2.9520  -20.7920 C.3   131  LEU131      0.1561
    119  C         -1.6930    2.2510  -22.1300 C.2   131  LEU131      0.2260
    120  O         -2.4640    2.6260  -23.0150 O.2   131  LEU131     -0.2867
    121  CB        -2.6530    2.2820  -19.8260 C.3   131  LEU131      0.0270
    122  CG        -2.6570    2.7680  -18.3800 C.3   131  LEU131      0.0019
    123  CD1       -3.8870    2.2930  -17.6890 C.3   131  LEU131      0.0001
    124  CD2       -1.4260    2.2910  -17.6180 C.3   131  LEU131      0.0001
    125  N         -6.1200    6.8980  -18.9900 N.3   141  SER141     -0.1202
    126  CA        -6.5160    6.4780  -17.6460 C.3   141  SER141      0.2020
    127  C         -6.4260    7.6190  -16.6270 C.2   141  SER141      0.2618
    128  O         -6.1250    8.7590  -16.9930 O.2   141  SER141     -0.2717
    129  CB        -5.6670    5.2980  -17.1870 C.3   141  SER141      0.2103
    130  OG        -4.3120    5.6670  -16.9870 O.3   141  SER141     -0.2182
    131  N         -6.6740    7.2840  -15.3400 N.am  142  ASP142     -0.1973
    132  CA        -6.6470    8.1620  -14.1710 C.3   142  ASP142      0.1709
    133  C         -7.5930    9.3550  -14.2820 C.2   142  ASP142      0.2293
    134  O         -7.1800   10.4660  -14.6210 O.2   142  ASP142     -0.2864
    135  CB        -5.2070    8.5540  -13.7650 C.3   142  ASP142      0.1436
    136  CG        -5.0580    9.1740  -12.3820 C.2   142  ASP142      0.3671
    137  OD1       -6.0220    9.1020  -11.5850 O.co2 142  ASP142     -0.2456
    138  OD2       -3.9630    9.6920  -12.0810 O.co2 142  ASP142     -0.2456
@<TRIPOS>BOND
     1    96    94    1
     2    95    94    1
     3    94    93    1
     4   120   119    2
     5    93    90    1
     6   111   110    2
     7   110   109    1
     8   119   118    1
     9    65    64   ar
    10    66    64   ar
    11    90    89    1
    12    90    91    1
    13    89    82   am
    14   109   108    1
    15   109   112    1
    16    64    63    1
    17    84    85    1
    18    84    81    1
    19    43    44    1
    20   117   118    1
    21   118   121    1
    22    85    86    1
    23    91    92    2
    24    91    97   am
    25   112   113    1
    26   100    99    2
    27    80    81    1
    28    80    77   am
    29    82    81    1
    30    82    83    2
    31    44    45    1
    32    44    47    1
    33    79    76    1
    34    76    77    1
    35    76    75    1
    36    70    69    2
    37   104   103    2
    38   121   122    1
    39   103   102    1
    40    97    98    1
    41    77    78    2
    42    45    46    2
    43    63    62    2
    44    49    47    1
    45    86    87   ar
    46    86    88   ar
    47    99    98    1
    48    99   101   am
    49   125   126    1
    50    47    48    1
    51    62    59    1
    52    69    75   am
    53    69    68    1
    54   113   114    1
    55   102   101    1
    56   102   105    1
    57   122   123    1
    58   122   124    1
    59   101   107    1
    60   116   114   am
    61   114   115    2
    62   126   129    1
    63   126   127    1
    64    67    68    1
    65    67    60   am
    66    68    71    1
    67    59    60    1
    68    59    58    1
    69    60    61    2
    70   105   106    1
    71   129   130    1
    72    71    72    1
    73    72    73    1
    74   128   127    2
    75   107   106    1
    76   127   131   am
    77    58    52   am
    78    74    73    1
    79   131   132    1
    80    52    53    2
    81    52    51    1
    82   134   133    2
    83    54    51    1
    84    54    55    1
    85    51    50    1
    86   133   132    1
    87   132   135    1
    88     9     8    1
    89   135   136    1
    90    29    30    1
    91    33    30    1
    92    55    56    1
    93    56    57    1
    94    17    15    1
    95    30    31    1
    96     8     7    1
    97   136   138   ar
    98   136   137   ar
    99    16    15    1
   100    32    31    2
   101    15    14    1
   102     7     6    1
   103    14    11    1
   104    13    12    2
   105    11    12    1
   106    11    10    1
   107     6     5    1
   108    27    26    1
   109    12    18   am
   110     5     2    1
   111    18    19    1
   112    26    28    1
   113    26    23    1
   114    19    20    1
   115    41    40    1
   116    41    42    1
   117     4     3    2
   118    34    35    1
   119    40    39    1
   120    38    39    1
   121    38    35    1
   122    25    24    2
   123     2     3    1
   124     2     1    1
   125    24    23    1
   126    23    22    1
   127    35    36    1
   128    20    21    2
   129    36    37    2
