@<TRIPOS>MOLECULE
tmp/3vfcA01.pdb
 62 58 0 0 0
SMALL
GASTEIGER

@<TRIPOS>ATOM
      1  N         51.1210   41.7390   11.1850 N.3    95  ALA95      -0.1231
      2  CA        52.3100   41.3650   10.4270 C.3    95  ALA95       0.1694
      3  C         52.5680   42.2650    9.2160 C.2    95  ALA95       0.2592
      4  O         51.6370   42.6830    8.5210 O.2    95  ALA95      -0.2718
      5  CB        52.2220   39.9150    9.9940 C.3    95  ALA95       0.0304
      6  N         53.8450   42.5480    8.9690 N.am   96  GLY96      -0.1957
      7  CA        54.2690   43.3620    7.8270 C.3    96  GLY96       0.1869
      8  C         53.9130   44.8360    7.9640 C.2    96  GLY96       0.2309
      9  O         53.9870   45.5920    7.0010 O.2    96  GLY96      -0.2863
     10  N         54.2510   36.9340   -2.0420 N.3   219  ALA219     -0.1245
     11  CA        52.8510   36.6990   -1.6640 C.3   219  ALA219      0.1562
     12  C         51.8800   36.7620   -2.8440 C.2   219  ALA219      0.2260
     13  O         50.7070   37.0500   -2.6450 O.2   219  ALA219     -0.2867
     14  CB        52.4180   37.6930   -0.5810 C.3   219  ALA219      0.0290
     15  N         57.8270   33.8000    1.3880 N.3   242  ASP242     -0.1239
     16  CA        56.5740   34.5810    1.2180 C.3   242  ASP242      0.1674
     17  C         55.7440   34.1530    0.0220 C.2   242  ASP242      0.2266
     18  O         55.5010   34.9510   -0.8810 O.2   242  ASP242     -0.2867
     19  CB        56.8540   36.1030    1.1350 C.3   242  ASP242      0.1410
     20  CG        57.3080   36.6590    2.4550 C.2   242  ASP242      0.3668
     21  OD1       56.6450   36.3560    3.4650 O.co2 242  ASP242     -0.2456
     22  OD2       58.3360   37.3650    2.4930 O.co2 242  ASP242     -0.2456
     23  N         52.5810   33.3550    0.1070 N.3   244  THR244     -0.1204
     24  CA        51.1660   33.7110    0.2260 C.3   244  THR244      0.1979
     25  C         50.9760   34.7730    1.3110 C.2   244  THR244      0.2460
     26  O         51.7920   34.8650    2.2330 O.2   244  THR244     -0.2732
     27  CB        50.2970   32.4350    0.4750 C.3   244  THR244      0.1783
     28  OG1       48.9010   32.7230    0.2570 O.3   244  THR244     -0.2211
     29  CG2       50.4960   31.8960    1.8890 C.3   244  THR244      0.0376
     30  N         49.9300   35.6160    1.1950 N.am  245  PRO245     -0.2717
     31  CA        49.8130   36.7290    2.1680 C.3   245  PRO245      0.1536
     32  C         49.2660   36.3580    3.5410 C.2   245  PRO245      0.2599
     33  O         48.3370   35.5490    3.6470 O.2   245  PRO245     -0.2715
     34  CB        48.8640   37.7330    1.4790 C.3   245  PRO245      0.0310
     35  CG        48.1840   36.9790    0.3840 C.3   245  PRO245      0.0237
     36  CD        48.9350   35.6890    0.1110 C.3   245  PRO245      0.0939
     37  N         49.8440   36.9470    4.5910 N.am  246  GLY246     -0.1941
     38  CA        49.2900   36.8170    5.9380 C.3   246  GLY246      0.2014
     39  C         49.8300   35.6340    6.7250 C.2   246  GLY246      0.2638
     40  O         50.1490   34.5830    6.1530 O.2   246  GLY246     -0.2714
     41  N         49.9150   35.8050    8.0420 N.am  247  LEU247     -0.1977
     42  CA        50.4570   34.7760    8.9500 C.3   247  LEU247      0.1596
     43  C         49.6370   33.4970    8.9360 C.2   247  LEU247      0.2287
     44  O         50.1960   32.3890    8.9760 O.2   247  LEU247     -0.2864
     45  CB        50.5740   35.3240   10.3940 C.3   247  LEU247      0.0297
     46  CG        51.6430   36.4200   10.6090 C.3   247  LEU247      0.0022
     47  CD1       51.5920   36.9820   12.0210 C.3   247  LEU247      0.0001
     48  CD2       53.0580   35.9360   10.2750 C.3   247  LEU247      0.0001
     49  N         58.3450   39.6780    4.6810 N.3   265  MET265     -0.1230
     50  CA        57.1760   40.5760    4.5920 C.3   265  MET265      0.1702
     51  C         56.3060   40.5250    5.8120 C.2   265  MET265      0.2592
     52  O         55.7320   41.5290    6.2020 O.2   265  MET265     -0.2718
     53  CB        56.3230   40.2670    3.3480 C.3   265  MET265      0.0401
     54  CG        57.0450   40.5450    2.0280 C.3   265  MET265      0.0596
     55  SD        56.1140   39.9300    0.5920 S.3   265  MET265     -0.1393
     56  CE        54.8310   41.1770    0.4940 C.3   265  MET265      0.0692
     57  N         56.1830   39.3430    6.4050 N.am  266  CYS266     -0.1970
     58  CA        55.3170   39.1740    7.5710 C.3   266  CYS266      0.1712
     59  C         55.9880   39.5380    8.8680 C.2   266  CYS266      0.2296
     60  O         55.3210   39.6900    9.8960 O.2   266  CYS266     -0.2864
     61  CB        54.8740   37.7130    7.6990 C.3   266  CYS266      0.0983
     62  SG        54.1270   37.0980    6.1970 S.3   266  CYS266     -0.0798
@<TRIPOS>BOND
     1    12    13    2
     2    12    11    1
     3    10    11    1
     4    11    14    1
     5    18    17    2
     6    17    16    1
     7    23    24    1
     8    36    35    1
     9    36    30    1
    10    24    27    1
    11    24    25    1
    12    28    27    1
    13    35    34    1
    14    27    29    1
    15    56    55    1
    16    55    54    1
    17    19    16    1
    18    19    20    1
    19    30    25   am
    20    30    31    1
    21    16    15    1
    22    25    26    2
    23    34    31    1
    24    54    53    1
    25    31    32    1
    26    20    22   ar
    27    20    21   ar
    28    53    50    1
    29    32    33    2
    30    32    37   am
    31    37    38    1
    32    50    49    1
    33    50    51    1
    34    51    52    2
    35    51    57   am
    36    38    39    1
    37    40    39    2
    38    62    61    1
    39    57    58    1
    40    39    41   am
    41     9     8    2
    42    58    61    1
    43    58    59    1
    44     7     8    1
    45     7     6    1
    46    41    42    1
    47     4     3    2
    48    59    60    2
    49    43    42    1
    50    43    44    2
    51    42    45    1
    52     6     3   am
    53     3     2    1
    54     5     2    1
    55    48    46    1
    56    45    46    1
    57     2     1    1
    58    46    47    1
