@<TRIPOS>MOLECULE
tmp/3vfcA00.pdb
 134 127 0 0 0
SMALL
GASTEIGER

@<TRIPOS>ATOM
      1  N         58.8770   42.5520  -10.8060 N.3    26  ASN26      -0.1240
      2  CA        58.4230   41.8650   -9.6360 C.3    26  ASN26       0.1653
      3  C         56.9110   41.8620   -9.6940 C.2    26  ASN26       0.2266
      4  O         56.3250   42.3350  -10.6750 O.2    26  ASN26      -0.2867
      5  CB        58.9540   42.5270   -8.3340 C.3    26  ASN26       0.1155
      6  CG        58.4960   43.9530   -8.1800 C.2    26  ASN26       0.2627
      7  OD1       57.3660   44.2720   -8.5030 O.2    26  ASN26      -0.2716
      8  ND2       59.3750   44.8250   -7.6780 N.am   26  ASN26      -0.0877
      9  N         61.1940   47.8920  -11.7830 N.3    31  HIS31      -0.1241
     10  CA        62.0630   48.9120  -11.1710 C.3    31  HIS31       0.1621
     11  C         62.1730   50.1280  -12.0330 C.2    31  HIS31       0.2264
     12  O         62.3000   50.0300  -13.2510 O.2    31  HIS31      -0.2867
     13  CB        63.4720   48.3750  -10.9490 C.3    31  HIS31       0.0745
     14  CG        63.5800   47.3990   -9.8050 C.ar   31  HIS31       0.0817
     15  ND1       64.7310   47.1810   -9.1490 N.ar   31  HIS31      -0.2268
     16  CD2       62.6210   46.6080   -9.1900 C.ar   31  HIS31       0.1154
     17  CE1       64.5240   46.2720   -8.1730 C.ar   31  HIS31       0.1986
     18  NE2       63.2370   45.9210   -8.2040 N.ar   31  HIS31      -0.2212
     19  N         70.8900   36.9390   -7.1490 N.3   144  TYR144     -0.1241
     20  CA        69.5090   37.3720   -7.0230 C.3   144  TYR144      0.1605
     21  C         68.9950   37.6110   -8.4360 C.2   144  TYR144      0.2264
     22  O         69.2780   38.6490   -9.0260 O.2   144  TYR144     -0.2867
     23  CB        69.4310   38.6700   -6.2140 C.3   144  TYR144      0.0534
     24  CG        68.0700   38.9220   -5.5570 C.ar  144  TYR144     -0.0201
     25  CD1       66.8900   38.3340   -6.0650 C.ar  144  TYR144     -0.0009
     26  CD2       67.9560   39.7570   -4.4510 C.ar  144  TYR144     -0.0009
     27  CE1       65.6490   38.5690   -5.4660 C.ar  144  TYR144      0.0417
     28  CE2       66.7150   40.0000   -3.8500 C.ar  144  TYR144      0.0417
     29  CZ        65.5690   39.4100   -4.3590 C.ar  144  TYR144      0.1957
     30  OH        64.3520   39.6540   -3.7460 O.3   144  TYR144     -0.2866
     31  N         66.2030   37.9620  -11.5420 N.3   146  PHE146     -0.1241
     32  CA        64.9240   38.5800  -11.8580 C.3   146  PHE146      0.1605
     33  C         64.5430   38.3800  -13.3210 C.2   146  PHE146      0.2264
     34  O         65.3790   38.5070  -14.2270 O.2   146  PHE146     -0.2867
     35  CB        65.0400   40.0860  -11.7100 C.3   146  PHE146      0.0534
     36  CG        65.1110   40.5750  -10.2840 C.ar  146  PHE146     -0.0203
     37  CD1       66.2910   40.4560   -9.5470 C.ar  146  PHE146     -0.0042
     38  CD2       64.0130   41.2080   -9.7020 C.ar  146  PHE146     -0.0042
     39  CE1       66.3680   40.9550   -8.2510 C.ar  146  PHE146     -0.0003
     40  CE2       64.0790   41.7160   -8.4030 C.ar  146  PHE146     -0.0003
     41  CZ        65.2580   41.5830   -7.6770 C.ar  146  PHE146     -0.0000
     42  N         68.7420   32.7560   -6.0330 N.3   186  LYS186     -0.1245
     43  CA        67.3930   33.0990   -5.6530 C.3   186  LYS186      0.1561
     44  C         66.6570   33.6360   -6.8720 C.2   186  LYS186      0.2260
     45  O         67.1850   34.4720   -7.5850 O.2   186  LYS186     -0.2867
     46  CB        67.3950   34.1850   -4.5590 C.3   186  LYS186      0.0271
     47  CG        65.9950   34.7480   -4.2830 C.3   186  LYS186      0.0035
     48  CD        65.9760   35.6980   -3.0840 C.3   186  LYS186      0.0206
     49  CE        64.5900   36.2910   -2.8970 C.3   186  LYS186      0.1093
     50  NZ        64.5320   37.2930   -1.8130 N.3   186  LYS186     -0.1314
     51  N         63.3520   35.8360   -8.1160 N.3   188  LYS188     -0.1245
     52  CA        62.2320   36.7080   -7.7780 C.3   188  LYS188      0.1561
     53  C         61.0800   36.2780   -8.6790 C.2   188  LYS188      0.2260
     54  O         61.1510   36.4510   -9.9040 O.2   188  LYS188     -0.2867
     55  CB        62.5860   38.1540   -8.0920 C.3   188  LYS188      0.0271
     56  CG        61.4060   39.1200   -7.8710 C.3   188  LYS188      0.0035
     57  CD        61.4920   39.8390   -6.5180 C.3   188  LYS188      0.0206
     58  CE        61.5170   38.9110   -5.3040 C.3   188  LYS188      0.1093
     59  NZ        61.4370   39.6620   -4.0070 N.3   188  LYS188     -0.1314
     60  N         60.9280   33.4220   -4.4330 N.3   216  ASP216     -0.1239
     61  CA        60.2060   34.4170   -3.6590 C.3   216  ASP216      0.1674
     62  C         59.2370   35.1620   -4.5650 C.2   216  ASP216      0.2266
     63  O         59.6420   36.0340   -5.3330 O.2   216  ASP216     -0.2867
     64  CB        61.2250   35.3930   -3.0350 C.3   216  ASP216      0.1410
     65  CG        60.5810   36.6390   -2.4340 C.2   216  ASP216      0.3668
     66  OD1       59.3620   36.6460   -2.1300 O.co2 216  ASP216     -0.2456
     67  OD2       61.3290   37.6200   -2.2430 O.co2 216  ASP216     -0.2456
     68  N         56.7730   37.1050   -3.4380 N.3   218  ASN218     -0.1240
     69  CA        56.1810   38.2590   -2.7310 C.3   218  ASN218      0.1653
     70  C         54.6640   38.1030   -2.5240 C.2   218  ASN218      0.2266
     71  O         53.8950   39.0260   -2.7880 O.2   218  ASN218     -0.2867
     72  CB        56.4840   39.5840   -3.4580 C.3   218  ASN218      0.1155
     73  CG        57.9390   40.0130   -3.3090 C.2   218  ASN218      0.2627
     74  OD1       58.7000   39.9940   -4.2720 O.2   218  ASN218     -0.2716
     75  ND2       58.3330   40.3760   -2.0920 N.am  218  ASN218     -0.0877
     76  N         60.2950   37.8500    4.7350 N.3   264  ASN264     -0.1240
     77  CA        60.6930   39.1680    5.1600 C.3   264  ASN264      0.1653
     78  C         59.4670   40.0890    5.2640 C.2   264  ASN264      0.2266
     79  O         59.5320   41.1490    5.8740 O.2   264  ASN264     -0.2867
     80  CB        61.7550   39.7420    4.2060 C.3   264  ASN264      0.1155
     81  CG        61.1670   40.1940    2.8740 C.2   264  ASN264      0.2627
     82  OD1       60.5870   41.2700    2.7830 O.2   264  ASN264     -0.2716
     83  ND2       61.3510   39.3950    1.8360 N.am  264  ASN264     -0.0877
     84  N         67.7760   39.7310    3.9700 N.3   315  HIS315     -0.1226
     85  CA        67.0380   40.3710    2.9120 C.3   315  HIS315      0.1752
     86  C         67.7650   41.5890    2.3930 C.2   315  HIS315      0.2597
     87  O         68.5270   42.1710    3.1020 O.2   315  HIS315     -0.2718
     88  CB        65.6860   40.7720    3.4550 C.3   315  HIS315      0.0759
     89  CG        64.9250   41.7240    2.6010 C.ar  315  HIS315      0.0818
     90  ND1       65.0300   43.0810    2.7370 N.ar  315  HIS315     -0.2268
     91  CD2       64.0210   41.5180    1.6210 C.ar  315  HIS315      0.1154
     92  CE1       64.2280   43.6720    1.8830 C.ar  315  HIS315      0.1986
     93  NE2       63.6050   42.7460    1.1930 N.ar  315  HIS315     -0.2212
     94  N         67.4850   41.9640    1.1560 N.am  316  SER316     -0.1938
     95  CA        68.2380   43.0650    0.5150 C.3   316  SER316      0.2055
     96  C         67.3090   43.9760   -0.2790 C.2   316  SER316      0.2643
     97  O         66.3190   43.5130   -0.8370 O.2   316  SER316     -0.2714
     98  CB        69.2690   42.4650   -0.4680 C.3   316  SER316      0.2130
     99  OG        69.8620   43.4790   -1.2660 O.3   316  SER316     -0.2179
    100  N         67.6350   45.2640   -0.3600 N.am  317  ASN317     -0.1957
    101  CA        67.0350   46.1200   -1.3850 C.3   317  ASN317      0.1819
    102  C         68.1960   46.7520   -2.1440 C.2   317  ASN317      0.2622
    103  O         69.3180   46.7520   -1.6530 O.2   317  ASN317     -0.2715
    104  CB        66.2160   47.2320   -0.7510 C.3   317  ASN317      0.1195
    105  CG        64.8830   46.7660   -0.2290 C.2   317  ASN317      0.2630
    106  OD1       64.6550   46.8190    0.9590 O.2   317  ASN317     -0.2716
    107  ND2       63.9810   46.3520   -1.1150 N.am  317  ASN317     -0.0877
    108  N         67.9460   47.3000   -3.3250 N.am  318  SER318     -0.1950
    109  CA        69.0160   47.9540   -4.0880 C.3   318  SER318      0.1924
    110  C         69.8650   48.8210   -3.1520 C.2   318  SER318      0.2314
    111  O         69.3210   49.6770   -2.4630 O.2   318  SER318     -0.2863
    112  CB        68.4120   48.8480   -5.1910 C.3   318  SER318      0.2116
    113  OG        67.3810   48.1680   -5.8920 O.3   318  SER318     -0.2180
    114  N         71.5400   42.7640   -4.0010 N.3   344  HIS344     -0.1241
    115  CA        71.2970   43.3230   -5.3290 C.3   344  HIS344      0.1621
    116  C         72.5580   43.8010   -5.9960 C.2   344  HIS344      0.2264
    117  O         72.4970   44.4050   -7.0570 O.2   344  HIS344     -0.2867
    118  CB        70.3680   44.5280   -5.2060 C.3   344  HIS344      0.0745
    119  CG        68.9260   44.1650   -4.9250 C.ar  344  HIS344      0.0817
    120  ND1       68.5080   43.7100   -3.7200 N.ar  344  HIS344     -0.2268
    121  CD2       67.7820   44.2600   -5.7350 C.ar  344  HIS344      0.1154
    122  CE1       67.1730   43.4830   -3.7600 C.ar  344  HIS344      0.1986
    123  NE2       66.7240   43.8390   -4.9870 N.ar  344  HIS344     -0.2212
    124  N         60.5440   55.6730   -4.3660 N.3   397  ARG397     -0.1245
    125  CA        60.4770   54.4150   -5.1110 C.3   397  ARG397      0.1563
    126  C         58.9970   54.1220   -5.4130 C.2   397  ARG397      0.2260
    127  O         58.1590   54.2050   -4.5250 O.2   397  ARG397     -0.2867
    128  CB        61.0870   53.2510   -4.3360 C.3   397  ARG397      0.0307
    129  CG        60.8520   51.9070   -5.0260 C.3   397  ARG397      0.0489
    130  CD        61.4710   50.7320   -4.2780 C.3   397  ARG397      0.2205
    131  NE        61.3070   49.4940   -5.0450 N.pl3 397  ARG397     -0.0865
    132  CZ        61.5740   48.2870   -4.5770 C.cat 397  ARG397      0.5346
    133  NH1       62.0460   48.1440   -3.3420 N.pl3 397  ARG397      0.1354
    134  NH2       61.3850   47.2280   -5.3490 N.pl3 397  ARG397      0.1354
@<TRIPOS>BOND
     1    34    33    2
     2    33    32    1
     3    12    11    2
     4    11    10    1
     5    32    35    1
     6    32    31    1
     7     9    10    1
     8    35    36    1
     9    10    13    1
    10    13    14    1
    11     1     2    1
    12     4     3    2
    13    36    38   ar
    14    36    37   ar
    15    54    53    2
    16    14    16   ar
    17    14    15   ar
    18    38    40   ar
    19     3     2    1
    20     2     5    1
    21    37    39   ar
    22    16    18   ar
    23    15    17   ar
    24    22    21    2
    25    53    52    1
    26     7     6    2
    27    21    20    1
    28    40    41   ar
    29     5     6    1
    30    39    41   ar
    31    18    17   ar
    32     6     8   am
    33    51    52    1
    34    55    56    1
    35    55    52    1
    36    56    57    1
    37    45    44    2
    38    19    20    1
    39   117   116    2
    40    20    23    1
    41    44    43    1
    42    57    58    1
    43    23    24    1
    44    25    24   ar
    45    25    27   ar
    46    42    43    1
    47   116   115    1
    48   113   112    1
    49   121   123   ar
    50   121   119   ar
    51    43    46    1
    52    24    26   ar
    53    27    29   ar
    54   126   125    1
    55   126   127    2
    56   134   132    1
    57    63    62    2
    58   115   118    1
    59   115   114    1
    60    58    59    1
    61   118   119    1
    62   112   109    1
    63   125   124    1
    64   125   128    1
    65   131   132    2
    66   131   130    1
    67   129   128    1
    68   129   130    1
    69   123   122   ar
    70   119   120   ar
    71   132   133    1
    72    62    61    1
    73    46    47    1
    74    26    28   ar
    75    60    61    1
    76    29    28   ar
    77    29    30    1
    78    47    48    1
    79    74    73    2
    80   109   108    1
    81   109   110    1
    82   122   120   ar
    83    61    64    1
    84    72    73    1
    85    72    69    1
    86    68    69    1
    87   108   102   am
    88    73    75   am
    89   110   111    2
    90    48    49    1
    91    64    65    1
    92    49    50    1
    93    71    70    2
    94    69    70    1
    95    65    67   ar
    96    65    66   ar
    97   102   103    2
    98   102   101    1
    99   101   104    1
   100   101   100    1
   101    99    98    1
   102   107   105   am
   103    97    96    2
   104   104   105    1
   105    98    95    1
   106   100    96   am
   107    96    95    1
   108   105   106    2
   109    95    94    1
   110    94    86   am
   111    93    91   ar
   112    93    92   ar
   113    91    89   ar
   114    83    81   am
   115    92    90   ar
   116    86    85    1
   117    86    87    2
   118    89    90   ar
   119    89    88    1
   120    82    81    2
   121    81    80    1
   122    85    88    1
   123    85    84    1
   124    80    77    1
   125    76    77    1
   126    77    78    1
   127    78    79    2
