@<TRIPOS>MOLECULE
tmp/3vfeA00.pdb
 173 169 0 0 0
SMALL
GASTEIGER

@<TRIPOS>ATOM
      1  N        -10.5270    3.6910  -13.4350 N.3    24  LEU24      -0.1231
      2  CA        -9.2620    2.9920  -13.2480 C.3    24  LEU24       0.1693
      3  C         -8.9280    2.1400  -14.4710 C.2    24  LEU24       0.2592
      4  O         -9.7610    1.3740  -14.9540 O.2    24  LEU24      -0.2718
      5  CB        -9.3400    2.0990  -12.0070 C.3    24  LEU24       0.0284
      6  CG        -8.0970    1.2680  -11.6810 C.3    24  LEU24       0.0019
      7  CD1       -6.9610    2.1840  -11.2510 C.3    24  LEU24       0.0001
      8  CD2       -8.4230    0.2720  -10.5820 C.3    24  LEU24       0.0001
      9  N         -7.7010    2.2730  -14.9650 N.am   25  LEU25      -0.1966
     10  CA        -7.2500    1.4920  -16.1120 C.3    25  LEU25       0.1728
     11  C         -6.1870    0.4780  -15.6980 C.2    25  LEU25       0.2616
     12  O         -6.2630   -0.6970  -16.0540 O.2    25  LEU25      -0.2715
     13  CB        -6.6730    2.4190  -17.1840 C.3    25  LEU25       0.0311
     14  CG        -6.1590    1.7640  -18.4720 C.3    25  LEU25       0.0022
     15  CD1       -7.3040    1.0730  -19.1950 C.3    25  LEU25       0.0001
     16  CD2       -5.5310    2.8180  -19.3660 C.3    25  LEU25       0.0001
     17  N         -5.1910    0.9430  -14.9490 N.am   26  CYS26      -0.1968
     18  CA        -4.0510    0.1070  -14.5890 C.3    26  CYS26       0.1712
     19  C         -3.3140    0.6850  -13.3950 C.2    26  CYS26       0.2296
     20  O         -3.6260    1.7800  -12.9270 O.2    26  CYS26      -0.2864
     21  CB        -3.0690    0.0150  -15.7510 C.3    26  CYS26       0.0983
     22  SG        -3.7350   -0.7420  -17.2320 S.3    26  CYS26      -0.0798
     23  N          0.4320   -2.6990  -22.5270 N.3    41  HIS41      -0.1226
     24  CA        -0.9540   -2.9440  -22.9080 C.3    41  HIS41       0.1752
     25  C         -1.9080   -1.9800  -22.2210 C.2    41  HIS41       0.2596
     26  O         -3.1240   -2.0540  -22.4040 O.2    41  HIS41      -0.2718
     27  CB        -1.3600   -4.4040  -22.6440 C.3    41  HIS41       0.0759
     28  CG        -1.4550   -4.7780  -21.1950 C.ar   41  HIS41       0.0818
     29  ND1       -0.4890   -5.5270  -20.5550 N.ar   41  HIS41      -0.2268
     30  CD2       -2.4380   -4.5810  -20.2850 C.ar   41  HIS41       0.1154
     31  CE1       -0.8750   -5.7770  -19.3160 C.ar   41  HIS41       0.1986
     32  NE2       -2.0560   -5.2150  -19.1260 N.ar   41  HIS41      -0.2212
     33  N         -1.3450   -1.0590  -21.4460 N.am   42  CYS42      -0.1970
     34  CA        -2.1270   -0.0210  -20.7880 C.3    42  CYS42       0.1712
     35  C         -2.3120    1.2440  -21.6180 C.2    42  CYS42       0.2296
     36  O         -3.0410    2.1480  -21.2130 O.2    42  CYS42      -0.2864
     37  CB        -1.4830    0.3500  -19.4550 C.3    42  CYS42       0.0983
     38  SG        -1.4470   -1.0170  -18.2790 S.3    42  CYS42      -0.0798
     39  N         -3.5580    4.1100  -23.6390 N.3    44  LYS44      -0.1245
     40  CA        -4.8040    4.6730  -24.1580 C.3    44  LYS44       0.1561
     41  C         -4.6490    6.1920  -24.2160 C.2    44  LYS44       0.2260
     42  O         -3.8000    6.7610  -23.5310 O.2    44  LYS44      -0.2867
     43  CB        -5.9830    4.3320  -23.2360 C.3    44  LYS44       0.0271
     44  CG        -6.2260    2.8510  -22.9990 C.3    44  LYS44       0.0035
     45  CD        -6.9740    2.1910  -24.1460 C.3    44  LYS44       0.0206
     46  CE        -7.5070    0.8210  -23.7170 C.3    44  LYS44       0.1093
     47  NZ        -7.8340   -0.0530  -24.8770 N.3    44  LYS44      -0.1314
     48  N          2.3840  -10.6900  -24.8910 N.3    82  HIS82      -0.1241
     49  CA         2.7850   -9.7550  -23.8410 C.3    82  HIS82       0.1621
     50  C          4.3040   -9.6830  -23.6860 C.2    82  HIS82       0.2264
     51  O          4.8100   -9.1990  -22.6760 O.2    82  HIS82      -0.2867
     52  CB         2.1500  -10.1390  -22.4980 C.3    82  HIS82       0.0745
     53  CG         0.7350   -9.6750  -22.3430 C.ar   82  HIS82       0.0817
     54  ND1        0.3770   -8.6530  -21.4910 N.ar   82  HIS82      -0.2268
     55  CD2       -0.4120  -10.0930  -22.9300 C.ar   82  HIS82       0.1154
     56  CE1       -0.9280   -8.4590  -21.5610 C.ar   82  HIS82       0.1986
     57  NE2       -1.4300   -9.3200  -22.4270 N.ar   82  HIS82      -0.2212
     58  N         -8.9140   -6.4360   -9.3380 N.3   124  LYS124     -0.1245
     59  CA        -9.9900   -7.2580   -8.8050 C.3   124  LYS124      0.1561
     60  C         -9.5090   -8.1310   -7.6520 C.2   124  LYS124      0.2260
     61  O         -8.4300   -8.7250   -7.7110 O.2   124  LYS124     -0.2867
     62  CB       -10.5650   -8.1330   -9.9230 C.3   124  LYS124      0.0271
     63  CG       -11.8260   -8.8800   -9.5500 C.3   124  LYS124      0.0035
     64  CD       -12.4600   -9.5160  -10.7830 C.3   124  LYS124      0.0206
     65  CE       -12.8290   -8.4690  -11.8250 C.3   124  LYS124      0.1093
     66  NZ       -13.4930   -9.0790  -13.0200 N.3   124  LYS124     -0.1314
     67  N        -13.9650   -4.7210   -7.2830 N.3   130  PHE130     -0.1241
     68  CA       -12.7930   -3.8450   -7.2920 C.3   130  PHE130      0.1605
     69  C        -12.7370   -3.0470   -5.9970 C.2   130  PHE130      0.2264
     70  O        -13.7030   -2.3790   -5.6380 O.2   130  PHE130     -0.2867
     71  CB       -12.8570   -2.8750   -8.4720 C.3   130  PHE130      0.0534
     72  CG       -12.6360   -3.5240   -9.8050 C.ar  130  PHE130     -0.0203
     73  CD1      -13.7100   -3.8970  -10.5960 C.ar  130  PHE130     -0.0042
     74  CD2      -11.3520   -3.7590  -10.2690 C.ar  130  PHE130     -0.0042
     75  CE1      -13.5070   -4.4960  -11.8320 C.ar  130  PHE130     -0.0003
     76  CE2      -11.1390   -4.3570  -11.5020 C.ar  130  PHE130     -0.0003
     77  CZ       -12.2170   -4.7260  -12.2850 C.ar  130  PHE130     -0.0000
     78  N         -1.9500  -13.4030   -5.8910 N.3   170  ASP170     -0.1225
     79  CA        -1.6920  -13.2130   -7.3140 C.3   170  ASP170      0.1805
     80  C         -2.2070  -11.8290   -7.6890 C.2   170  ASP170      0.2598
     81  O         -3.0910  -11.2850   -7.0210 O.2   170  ASP170     -0.2718
     82  CB        -2.4310  -14.2930   -8.1130 C.3   170  ASP170      0.1424
     83  CG        -2.0110  -14.3490   -9.5750 C.2   170  ASP170      0.3668
     84  OD1       -0.9960  -13.7160   -9.9480 O.co2 170  ASP170     -0.2456
     85  OD2       -2.7070  -15.0380  -10.3550 O.co2 170  ASP170     -0.2456
     86  N         -1.6460  -11.2470   -8.7420 N.am  171  SER171     -0.1938
     87  CA        -2.2110  -10.0210   -9.2770 C.3   171  SER171      0.2055
     88  C         -3.4260  -10.4040  -10.1140 C.2   171  SER171      0.2643
     89  O         -3.7100  -11.5910  -10.3070 O.2   171  SER171     -0.2714
     90  CB        -1.1700   -9.2690  -10.1210 C.3   171  SER171      0.2130
     91  OG        -0.5140  -10.1380  -11.0250 O.3   171  SER171     -0.2179
     92  N         -4.1620   -9.4100  -10.5920 N.am  172  CYS172     -0.1953
     93  CA        -5.4110   -9.6820  -11.2870 C.3   172  CYS172      0.1843
     94  C         -5.7340   -8.5620  -12.2690 C.2   172  CYS172      0.2625
     95  O         -4.9220   -7.6580  -12.4980 O.2   172  CYS172     -0.2714
     96  CB        -6.5460   -9.8420  -10.2660 C.3   172  CYS172      0.0997
     97  SG        -8.0290  -10.7070  -10.8700 S.3   172  CYS172     -0.0797
     98  N         -6.9210   -8.6280  -12.8550 N.am  173  GLN173     -0.1963
     99  CA        -7.3590   -7.6140  -13.8070 C.3   173  GLN173      0.1733
    100  C         -7.3980   -6.2520  -13.1210 C.2   173  GLN173      0.2616
    101  O         -7.9740   -6.1100  -12.0430 O.2   173  GLN173     -0.2715
    102  CB        -8.7470   -7.9830  -14.3370 C.3   173  GLN173      0.0408
    103  CG        -8.8250   -9.4190  -14.8530 C.3   173  GLN173      0.0908
    104  CD       -10.2430   -9.8680  -15.1550 C.2   173  GLN173      0.2608
    105  OE1      -11.0480  -10.0810  -14.2490 O.2   173  GLN173     -0.2717
    106  NE2      -10.5520  -10.0210  -16.4340 N.am  173  GLN173     -0.0878
    107  N         -6.7760   -5.2530  -13.7400 N.am  174  GLY174     -0.1955
    108  CA        -6.7260   -3.9370  -13.1290 C.3   174  GLY174      0.1869
    109  C         -5.4220   -3.6450  -12.4030 C.2   174  GLY174      0.2309
    110  O         -5.1740   -2.5070  -12.0020 O.2   174  GLY174     -0.2863
    111  N         -2.4310   -4.3740  -13.8340 N.3   176  SER176     -0.1217
    112  CA        -1.4100   -4.2390  -14.8710 C.3   176  SER176      0.1889
    113  C         -0.4520   -3.0790  -14.6130 C.2   176  SER176      0.2288
    114  O         -0.8720   -1.9900  -14.2190 O.2   176  SER176     -0.2866
    115  CB        -2.0790   -4.0370  -16.2320 C.3   176  SER176      0.2089
    116  OG        -3.0360   -5.0460  -16.4830 O.3   176  SER176     -0.2183
    117  N          3.3760   -6.0030  -13.3220 N.3   190  VAL190     -0.1231
    118  CA         2.2590   -6.9140  -13.5800 C.3   190  VAL190      0.1692
    119  C          1.9740   -6.9430  -15.0770 C.2   190  VAL190      0.2593
    120  O          1.7270   -5.9000  -15.6830 O.2   190  VAL190     -0.2718
    121  CB         0.9710   -6.4570  -12.8510 C.3   190  VAL190      0.0266
    122  CG1       -0.1840   -7.3790  -13.2200 C.3   190  VAL190      0.0020
    123  CG2        1.1850   -6.4690  -11.3340 C.3   190  VAL190      0.0020
    124  N          1.9990   -8.1280  -15.6790 N.am  191  SER191     -0.1938
    125  CA         1.7900   -8.2230  -17.1220 C.3   191  SER191      0.2055
    126  C          0.6260   -9.1340  -17.5100 C.2   191  SER191      0.2643
    127  O         -0.3000   -8.7030  -18.1930 O.2   191  SER191     -0.2714
    128  CB         3.0700   -8.6990  -17.8090 C.3   191  SER191      0.2130
    129  OG         2.8740   -8.8070  -19.2080 O.3   191  SER191     -0.2179
    130  N          0.6780  -10.3930  -17.0870 N.am  192  TRP192     -0.1959
    131  CA        -0.4270  -11.3170  -17.3280 C.3   192  TRP192      0.1771
    132  C         -0.3830  -12.5120  -16.3840 C.2   192  TRP192      0.2620
    133  O          0.4830  -12.6010  -15.5180 O.2   192  TRP192     -0.2715
    134  CB        -0.4260  -11.7970  -18.7910 C.3   192  TRP192      0.0590
    135  CG         0.8350  -12.4910  -19.2420 C.ar  192  TRP192      0.0006
    136  CD1        2.0160  -11.9020  -19.5820 C.ar  192  TRP192      0.0946
    137  CD2        1.0190  -13.9000  -19.4390 C.ar  192  TRP192      0.0152
    138  NE1        2.9240  -12.8540  -19.9800 N.ar  192  TRP192     -0.2442
    139  CE2        2.3360  -14.0880  -19.9030 C.ar  192  TRP192      0.0810
    140  CE3        0.1970  -15.0210  -19.2690 C.ar  192  TRP192      0.0012
    141  CZ2        2.8510  -15.3490  -20.2020 C.ar  192  TRP192      0.0191
    142  CZ3        0.7100  -16.2710  -19.5650 C.ar  192  TRP192      0.0001
    143  CH2        2.0250  -16.4240  -20.0270 C.ar  192  TRP192      0.0015
    144  N         -1.3300  -13.4250  -16.5410 N.am  193  GLY193     -0.1940
    145  CA        -1.3880  -14.5630  -15.6460 C.3   193  GLY193      0.2014
    146  C         -2.6640  -15.3540  -15.8390 C.2   193  GLY193      0.2639
    147  O         -3.3380  -15.2160  -16.8610 O.2   193  GLY193     -0.2714
    148  N         -3.0000  -16.1800  -14.8550 N.am  194  ASN194     -0.1958
    149  CA        -4.1440  -17.0660  -14.9800 C.3   194  ASN194      0.1819
    150  C         -5.4430  -16.2910  -14.8040 C.2   194  ASN194      0.2621
    151  O         -5.4860  -15.2640  -14.1260 O.2   194  ASN194     -0.2715
    152  CB        -4.0580  -18.1860  -13.9380 C.3   194  ASN194      0.1195
    153  CG        -4.8970  -19.3950  -14.3120 C.2   194  ASN194      0.2630
    154  OD1       -4.9090  -19.8210  -15.4650 O.2   194  ASN194     -0.2716
    155  ND2       -5.6040  -19.9510  -13.3360 N.am  194  ASN194     -0.0877
    156  N         -6.4980  -16.7910  -15.4370 N.am  195  ILE195     -0.1977
    157  CA        -7.8450  -16.2620  -15.2650 C.3   195  ILE195      0.1596
    158  C         -8.8010  -17.4510  -15.1750 C.2   195  ILE195      0.2287
    159  O         -8.8680  -18.2640  -16.0920 O.2   195  ILE195     -0.2864
    160  CB        -8.2440  -15.3770  -16.4680 C.3   195  ILE195      0.0276
    161  CG1       -7.5150  -14.0340  -16.4000 C.3   195  ILE195      0.0022
    162  CG2       -9.7470  -15.1650  -16.4830 C.3   195  ILE195      0.0022
    163  CD1       -8.2990  -12.9600  -15.6910 C.3   195  ILE195      0.0001
    164  N         -7.9860  -15.4810  -11.4750 N.3   197  CYS197     -0.1235
    165  CA        -6.6800  -15.1870  -10.9060 C.3   197  CYS197      0.1677
    166  C         -6.4130  -16.0160   -9.6640 C.2   197  CYS197      0.2270
    167  O         -7.3420  -16.4330   -8.9760 O.2   197  CYS197     -0.2867
    168  CB        -6.5830  -13.7010  -10.5790 C.3   197  CYS197      0.0956
    169  SG        -6.9610  -12.6950  -12.0080 S.3   197  CYS197     -0.0801
    170  N          1.7940  -15.7870  -11.5870 N.3   204  GLY204     -0.1225
    171  CA         1.5760  -14.5910  -12.3780 C.3   204  GLY204      0.1811
    172  C          2.8240  -14.2960  -13.1800 C.2   204  GLY204      0.2280
    173  O          3.9240  -14.6910  -12.7900 O.2   204  GLY204     -0.2866
@<TRIPOS>BOND
     1    48    49    1
     2    47    46    1
     3    41    40    1
     4    41    42    2
     5    40    39    1
     6    40    43    1
     7    45    46    1
     8    45    44    1
     9    49    50    1
    10    49    52    1
    11    50    51    2
    12    43    44    1
    13    55    57   ar
    14    55    53   ar
    15    24    27    1
    16    24    23    1
    17    24    25    1
    18    27    28    1
    19    52    53    1
    20    57    56   ar
    21    26    25    2
    22    53    54   ar
    23    25    33   am
    24    35    36    2
    25    35    34    1
    26    56    54   ar
    27    33    34    1
    28    28    29   ar
    29    28    30   ar
    30    34    37    1
    31    29    31   ar
    32    30    32   ar
    33   141   143   ar
    34   141   139   ar
    35   143   142   ar
    36   138   139   ar
    37   138   136   ar
    38   139   137   ar
    39   136   135   ar
    40   142   140   ar
    41    37    38    1
    42   137   140   ar
    43   137   135   ar
    44    16    14    1
    45    31    32   ar
    46   135   134    1
    47   129   128    1
    48    15    14    1
    49   134   131    1
    50    14    13    1
    51    38    22    1
    52   127   126    2
    53   128   125    1
    54   126   125    1
    55   126   130   am
    56   131   130    1
    57   131   132    1
    58    22    21    1
    59    13    10    1
    60   125   124    1
    61   147   146    2
    62   144   132   am
    63   144   145    1
    64   162   160    1
    65   116   115    1
    66   160   161    1
    67   160   157    1
    68   106   104   am
    69   161   163    1
    70   132   133    2
    71   115   112    1
    72    10    11    1
    73    10     9    1
    74   159   158    2
    75    12    11    2
    76   146   145    1
    77   146   148   am
    78    21    18    1
    79    11    17   am
    80   120   119    2
    81   124   119   am
    82   154   153    2
    83   156   157    1
    84   156   150   am
    85   157   158    1
    86   104   103    1
    87   104   105    2
    88   119   118    1
    89   149   148    1
    90   149   150    1
    91   149   152    1
    92     9     3   am
    93     4     3    2
    94    17    18    1
    95   112   113    1
    96   112   111    1
    97   103   102    1
    98   150   151    2
    99   113   114    2
   100    18    19    1
   101     3     2    1
   102   102    99    1
   103   153   152    1
   104   153   155   am
   105    99   100    1
   106    99    98    1
   107   107   108    1
   108   107   100   am
   109   118   117    1
   110   118   121    1
   111     1     2    1
   112    19    20    2
   113     2     5    1
   114   122   121    1
   115   172   173    2
   116   172   171    1
   117   108   109    1
   118   100   101    2
   119    66    65    1
   120    98    94   am
   121   121   123    1
   122    95    94    2
   123   109   110    2
   124   171   170    1
   125    77    75   ar
   126    77    76   ar
   127    94    93    1
   128   169    97    1
   129   169   168    1
   130     5     6    1
   131    75    73   ar
   132    65    64    1
   133     6     7    1
   134     6     8    1
   135    76    74   ar
   136   164   165    1
   137    93    92    1
   138    93    96    1
   139    91    90    1
   140   165   168    1
   141   165   166    1
   142    97    96    1
   143    64    63    1
   144    73    72   ar
   145    92    88   am
   146    85    83   ar
   147    89    88    2
   148    74    72   ar
   149    90    87    1
   150    88    87    1
   151    84    83   ar
   152    62    63    1
   153    62    59    1
   154    72    71    1
   155   166   167    2
   156    83    82    1
   157    58    59    1
   158    87    86    1
   159    59    60    1
   160    86    80   am
   161    71    68    1
   162    82    79    1
   163    61    60    2
   164    80    79    1
   165    80    81    2
   166    79    78    1
   167    68    67    1
   168    68    69    1
   169    69    70    2
