@<TRIPOS>MOLECULE
tmp/3vffB01.pdb
 103 97 0 0 0
SMALL
GASTEIGER

@<TRIPOS>ATOM
      1  N          9.6550   12.4650   33.2440 N.3    41  CYS41      -0.1221
      2  CA        10.5550   12.1880   32.1390 C.3    41  CYS41       0.1808
      3  C          9.7860   11.6470   30.9370 C.2    41  CYS41       0.2601
      4  O          8.5940   11.9280   30.7710 O.2    41  CYS41      -0.2717
      5  CB        11.6990   11.2630   32.5700 C.3    41  CYS41       0.0970
      6  SG        12.9880   12.1560   33.5050 S.3    41  CYS41      -0.0800
      7  N         10.4210   10.8870   30.0700 N.am   42  SER42      -0.1952
      8  CA         9.7140   10.5020   28.8580 C.3    42  SER42       0.1924
      9  C          8.6080    9.4790   29.1100 C.2    42  SER42       0.2314
     10  O          7.9290    9.1200   28.1740 O.2    42  SER42      -0.2863
     11  CB        10.6460   10.0840   27.7120 C.3    42  SER42       0.2116
     12  OG        11.8250    9.4700   28.1780 O.3    42  SER42      -0.2180
     13  N          5.6910    9.7960   30.3040 N.3    44  PHE44      -0.1227
     14  CA         4.4340   10.4090   29.8630 C.3    44  PHE44       0.1736
     15  C          4.1090   10.1150   28.3820 C.2    44  PHE44       0.2595
     16  O          2.9530   10.1890   27.9790 O.2    44  PHE44      -0.2718
     17  CB         4.4830   11.9210   30.0880 C.3    44  PHE44       0.0547
     18  CG         5.0950   12.7320   28.9690 C.ar   44  PHE44      -0.0202
     19  CD1        6.4910   12.8980   28.8550 C.ar   44  PHE44      -0.0042
     20  CD2        4.2850   13.2540   27.9450 C.ar   44  PHE44      -0.0042
     21  CE1        7.0190   13.6020   27.7440 C.ar   44  PHE44      -0.0003
     22  CE2        4.7810   13.9290   26.8290 C.ar   44  PHE44      -0.0003
     23  CZ         6.1750   14.1210   26.7350 C.ar   44  PHE44      -0.0000
     24  N          5.1250    9.7820   27.5840 N.am   45  LYS45      -0.1980
     25  CA         4.9330    9.5870   26.1410 C.3    45  LYS45       0.1596
     26  C          3.9110    8.4960   25.8610 C.2    45  LYS45       0.2287
     27  O          3.2390    8.5330   24.8450 O.2    45  LYS45      -0.2864
     28  CB         6.2590    9.3400   25.3980 C.3    45  LYS45       0.0298
     29  CG         7.1370   10.5790   25.4110 C.3    45  LYS45       0.0038
     30  CD         8.4930   10.4420   24.7510 C.3    45  LYS45       0.0206
     31  CE         9.2810   11.7310   24.9640 C.3    45  LYS45       0.1093
     32  NZ        10.7540   11.5670   24.8230 N.3    45  LYS45      -0.1314
     33  N         16.9160   14.7760   21.7670 N.3    75  ILE75      -0.1245
     34  CA        17.2210   13.5280   21.1070 C.3    75  ILE75       0.1561
     35  C         15.9710   13.0160   20.3930 C.2    75  ILE75       0.2260
     36  O         14.9380   12.7510   21.0350 O.2    75  ILE75      -0.2867
     37  CB        17.7370   12.4820   22.1130 C.3    75  ILE75       0.0252
     38  CG1       19.1440   12.9060   22.5830 C.3    75  ILE75       0.0019
     39  CG2       17.7280   11.0950   21.5190 C.3    75  ILE75       0.0019
     40  CD1       19.6540   12.1240   23.7620 C.3    75  ILE75       0.0001
     41  N         11.4180    6.7380   22.0310 N.3   100  SER100     -0.1217
     42  CA        11.4020    7.8410   22.9890 C.3   100  SER100      0.1889
     43  C         11.6790    9.2000   22.3130 C.2   100  SER100      0.2288
     44  O         12.1140   10.1480   22.9660 O.2   100  SER100     -0.2866
     45  CB        12.4080    7.5630   24.1180 C.3   100  SER100      0.2089
     46  OG        11.9910    8.1140   25.3580 O.3   100  SER100     -0.2183
     47  N         13.9700    0.5620   24.1060 N.3   181  THR181     -0.1218
     48  CA        14.7250    1.3150   25.1150 C.3   181  THR181      0.1862
     49  C         14.8580    0.7230   26.5490 C.2   181  THR181      0.2287
     50  O         15.6360    1.2310   27.3520 O.2   181  THR181     -0.2866
     51  CB        14.1900    2.7660   25.2520 C.3   181  THR181      0.1770
     52  OG1       12.8260    2.7450   25.7120 O.3   181  THR181     -0.2211
     53  CG2       14.2960    3.5350   23.9110 C.3   181  THR181      0.0375
     54  N         16.0540   -2.8160   32.1630 N.3   185  ARG185     -0.1245
     55  CA        15.2740   -2.4300   33.3040 C.3   185  ARG185      0.1563
     56  C         14.2930   -3.5110   33.6490 C.2   185  ARG185      0.2260
     57  O         14.6290   -4.6620   33.7300 O.2   185  ARG185     -0.2867
     58  CB        14.5440   -1.1370   33.0070 C.3   185  ARG185      0.0307
     59  CG        15.4410   -0.1100   32.3630 C.3   185  ARG185      0.0489
     60  CD        14.8640    1.2780   32.4150 C.3   185  ARG185      0.2205
     61  NE        15.8980    2.2680   32.1740 N.pl3 185  ARG185     -0.0865
     62  CZ        15.6870    3.5700   32.1650 C.cat 185  ARG185      0.5346
     63  NH1       16.6750    4.4060   31.9360 N.pl3 185  ARG185      0.1354
     64  NH2       14.4820    4.0370   32.3870 N.pl3 185  ARG185      0.1354
     65  N          7.3240    1.3130   28.8870 N.3   199  LYS199     -0.1231
     66  CA         7.8270    2.5970   28.4240 C.3   199  LYS199      0.1693
     67  C          8.7690    3.1990   29.4840 C.2   199  LYS199      0.2593
     68  O          8.4050    3.3120   30.6520 O.2   199  LYS199     -0.2718
     69  CB         6.6750    3.5670   28.1470 C.3   199  LYS199      0.0285
     70  CG         7.1230    5.0000   27.7960 C.3   199  LYS199      0.0035
     71  CD         7.4740    5.1370   26.3110 C.3   199  LYS199      0.0206
     72  CE         8.3510    6.3670   26.0370 C.3   199  LYS199      0.1093
     73  NZ         9.8180    6.0920   26.2250 N.3   199  LYS199     -0.1314
     74  N          9.9680    3.6060   29.0670 N.am  200  THR200     -0.1939
     75  CA        10.9950    4.1060   29.9830 C.3   200  THR200      0.2028
     76  C         11.0690    5.6360   30.0850 C.2   200  THR200      0.2643
     77  O         10.4110    6.3650   29.3350 O.2   200  THR200     -0.2714
     78  CB        12.3990    3.5890   29.5810 C.3   200  THR200      0.1808
     79  OG1       12.5950    3.7730   28.1750 O.3   200  THR200     -0.2208
     80  CG2       12.5680    2.1050   29.9060 C.3   200  THR200      0.0379
     81  N         11.8990    6.1120   31.0120 N.am  201  GLY201     -0.1939
     82  CA        12.1090    7.5360   31.2010 C.3   201  GLY201      0.2014
     83  C         13.4530    7.7760   31.8640 C.2   201  GLY201      0.2640
     84  O         13.7570    7.1670   32.8860 O.2   201  GLY201     -0.2714
     85  N         14.2590    8.6650   31.2870 N.am  202  THR202     -0.1936
     86  CA        15.5810    8.9540   31.8420 C.3   202  THR202      0.2028
     87  C         15.9220   10.4470   31.8050 C.2   202  THR202      0.2643
     88  O         15.6100   11.1470   30.8380 O.2   202  THR202     -0.2714
     89  CB        16.7010    8.0870   31.1830 C.3   202  THR202      0.1808
     90  OG1       16.4400    6.6990   31.4360 O.3   202  THR202     -0.2208
     91  CG2       18.0690    8.4420   31.7410 C.3   202  THR202      0.0379
     92  N         16.5430   10.9300   32.8780 N.am  203  GLY203     -0.1939
     93  CA        16.8920   12.3400   32.9860 C.3   203  GLY203      0.2014
     94  C         18.1830   12.6070   33.7440 C.2   203  GLY203      0.2638
     95  O         19.0260   11.7130   33.9130 O.2   203  GLY203     -0.2714
     96  N         18.3310   13.8500   34.1920 N.am  204  ASP204     -0.1971
     97  CA        19.4830   14.3010   34.9730 C.3   204  ASP204      0.1709
     98  C         19.2680   13.9920   36.4430 C.2   204  ASP204      0.2293
     99  O         18.1850   13.5580   36.8360 O.2   204  ASP204     -0.2864
    100  CB        19.7220   15.7990   34.7710 C.3   204  ASP204      0.1436
    101  CG        20.1790   16.1750   33.4130 C.2   204  ASP204      0.3671
    102  OD1       20.7070   15.3020   32.6580 O.co2 204  ASP204     -0.2456
    103  OD2       20.0970   17.4020   33.0700 O.co2 204  ASP204     -0.2456
@<TRIPOS>BOND
     1    35    36    2
     2    35    34    1
     3    34    33    1
     4    34    37    1
     5    39    37    1
     6    41    42    1
     7    37    38    1
     8    43    44    2
     9    43    42    1
    10    38    40    1
    11    42    45    1
    12    53    51    1
    13    47    48    1
    14    45    46    1
    15    30    31    1
    16    30    29    1
    17    32    31    1
    18    27    26    2
    19    48    51    1
    20    48    49    1
    21    51    52    1
    22    28    29    1
    23    28    25    1
    24    26    25    1
    25    72    73    1
    26    72    71    1
    27    25    24    1
    28    71    70    1
    29    49    50    2
    30    23    22   ar
    31    23    21   ar
    32    22    20   ar
    33    24    15   am
    34    11    12    1
    35    11     8    1
    36    21    19   ar
    37    70    69    1
    38    20    18   ar
    39    16    15    2
    40    69    66    1
    41    10     9    2
    42    79    78    1
    43    15    14    1
    44    66    65    1
    45    66    67    1
    46    19    18   ar
    47     8     9    1
    48     8     7    1
    49    18    17    1
    50    74    67   am
    51    74    75    1
    52    77    76    2
    53    67    68    2
    54    78    80    1
    55    78    75    1
    56    14    17    1
    57    14    13    1
    58    75    76    1
    59     7     3   am
    60    76    81   am
    61     4     3    2
    62    88    87    2
    63     3     2    1
    64    81    82    1
    65    89    90    1
    66    89    91    1
    67    89    86    1
    68    82    83    1
    69    85    86    1
    70    85    83   am
    71    87    86    1
    72    87    92   am
    73    83    84    2
    74    63    62    1
    75     2     5    1
    76     2     1    1
    77    54    55    1
    78    62    61    2
    79    62    64    1
    80    61    60    1
    81    59    60    1
    82    59    58    1
    83     5     6    1
    84   102   101   ar
    85    92    93    1
    86    93    94    1
    87    58    55    1
    88   103   101   ar
    89    55    56    1
    90   101   100    1
    91    56    57    2
    92    94    95    2
    93    94    96   am
    94    96    97    1
    95   100    97    1
    96    97    98    1
    97    98    99    2
