@<TRIPOS>MOLECULE
tmp/3vfhC00.pdb
 137 130 0 0 0
SMALL
GASTEIGER

@<TRIPOS>ATOM
      1  N         18.1840  -35.9880    7.3490 N.3    41  CYS41      -0.1221
      2  CA        18.3660  -35.5660    8.7310 C.3    41  CYS41       0.1808
      3  C         17.0250  -35.2060    9.3570 C.2    41  CYS41       0.2601
      4  O         16.0080  -35.8330    9.0650 O.2    41  CYS41      -0.2717
      5  CB        19.3330  -34.3850    8.8120 C.3    41  CYS41       0.0970
      6  SG        21.0800  -34.8520    8.7590 S.3    41  CYS41      -0.0800
      7  N         17.0240  -34.1940   10.2170 N.am   42  SER42      -0.1952
      8  CA        15.7990  -33.7840   10.9180 C.3    42  SER42       0.1924
      9  C         14.9840  -32.8100   10.0630 C.2    42  SER42       0.2314
     10  O         13.8420  -32.4960   10.3900 O.2    42  SER42      -0.2863
     11  CB        16.1320  -33.1290   12.2590 C.3    42  SER42       0.2116
     12  OG        16.6210  -34.1200   13.1640 O.3    42  SER42      -0.2180
     13  N         11.2840  -33.3330    9.4010 N.3    45  LYS45      -0.1245
     14  CA        10.2390  -33.1440   10.4040 C.3    45  LYS45       0.1561
     15  C          9.2250  -32.0790    9.9930 C.2    45  LYS45       0.2260
     16  O          8.0630  -32.1220   10.4110 O.2    45  LYS45      -0.2867
     17  CB        10.8410  -32.8710   11.7820 C.3    45  LYS45       0.0271
     18  CG        11.3810  -34.1380   12.4060 C.3    45  LYS45       0.0035
     19  CD        12.3150  -33.9010   13.5750 C.3    45  LYS45       0.0206
     20  CE        13.0690  -35.1830   13.8810 C.3    45  LYS45       0.1093
     21  NZ        13.8880  -35.0740   15.1150 N.3    45  LYS45      -0.1314
     22  N         16.3050  -41.3970   20.8550 N.3    74  SER74      -0.1202
     23  CA        17.0400  -40.2370   20.3460 C.3    74  SER74       0.2020
     24  C         16.7770  -38.9930   21.1710 C.2    74  SER74       0.2618
     25  O         15.8580  -38.9510   21.9880 O.2    74  SER74      -0.2717
     26  CB        16.7190  -39.9630   18.8640 C.3    74  SER74       0.2103
     27  OG        15.3340  -39.9580   18.5920 O.3    74  SER74      -0.2182
     28  N         17.5840  -37.9680   20.9240 N.am   75  ILE75      -0.1979
     29  CA        17.4100  -36.6990   21.5940 C.3    75  ILE75       0.1595
     30  C         15.9670  -36.2660   21.3740 C.2    75  ILE75       0.2287
     31  O         15.5450  -36.0200   20.2340 O.2    75  ILE75      -0.2864
     32  CB        18.3130  -35.6200   21.0220 C.3    75  ILE75       0.0276
     33  CG1       19.8000  -35.9290   21.2650 C.3    75  ILE75       0.0022
     34  CG2       17.9490  -34.3220   21.6460 C.3    75  ILE75       0.0022
     35  CD1       20.7230  -35.4770   20.0960 C.3    75  ILE75       0.0001
     36  N         11.6310  -28.1830   18.6930 N.3    99  TYR99      -0.1227
     37  CA        12.7180  -28.8140   19.4390 C.3    99  TYR99       0.1736
     38  C         13.4500  -29.9510   18.7180 C.2    99  TYR99       0.2596
     39  O         14.3340  -30.5820   19.2930 O.2    99  TYR99      -0.2718
     40  CB        12.2410  -29.2430   20.8270 C.3    99  TYR99       0.0548
     41  CG        12.0520  -28.0660   21.7540 C.ar   99  TYR99      -0.0200
     42  CD1       10.7990  -27.5030   21.9450 C.ar   99  TYR99      -0.0009
     43  CD2       13.1320  -27.5020   22.4160 C.ar   99  TYR99      -0.0009
     44  CE1       10.6240  -26.4190   22.7840 C.ar   99  TYR99       0.0417
     45  CE2       12.9670  -26.4190   23.2560 C.ar   99  TYR99       0.0417
     46  CZ        11.7110  -25.8820   23.4360 C.ar   99  TYR99       0.1957
     47  OH        11.5430  -24.8040   24.2720 O.3    99  TYR99      -0.2866
     48  N         13.0850  -30.2090   17.4660 N.am  100  SER100     -0.1952
     49  CA        13.7220  -31.2750   16.6990 C.3   100  SER100      0.1924
     50  C         13.6120  -32.5900   17.4620 C.2   100  SER100      0.2314
     51  O         14.5480  -33.3880   17.4940 O.2   100  SER100     -0.2863
     52  CB        15.1870  -30.9420   16.4200 C.3   100  SER100      0.2116
     53  OG        15.6440  -31.5980   15.2520 O.3   100  SER100     -0.2180
     54  N         16.8520  -43.1030   15.4530 N.3   141  PRO141     -0.2116
     55  CA        18.0100  -42.3640   14.9390 C.3   141  PRO141      0.1372
     56  C         18.4830  -42.9110   13.5960 C.2   141  PRO141      0.2244
     57  O         18.1310  -42.3720   12.5480 O.2   141  PRO141     -0.2868
     58  CB        19.0780  -42.6100   16.0070 C.3   141  PRO141      0.0268
     59  CG        18.6990  -43.9140   16.6190 C.3   141  PRO141      0.0207
     60  CD        17.1980  -43.9400   16.6140 C.3   141  PRO141      0.0892
     61  N         20.1280  -40.9460   10.4850 N.3   144  ASN144     -0.1240
     62  CA        21.1720  -39.9340   10.5890 C.3   144  ASN144      0.1653
     63  C         22.5740  -40.5070   10.3980 C.2   144  ASN144      0.2266
     64  O         23.4950  -39.7920   10.0040 O.2   144  ASN144     -0.2867
     65  CB        21.0770  -39.1980   11.9280 C.3   144  ASN144      0.1155
     66  CG        21.1530  -40.1360   13.1160 C.2   144  ASN144      0.2627
     67  OD1       20.9590  -39.7250   14.2590 O.2   144  ASN144     -0.2716
     68  ND2       21.4360  -41.4060   12.8490 N.am  144  ASN144     -0.0877
     69  N         16.0660  -23.8300   17.1020 N.3   190  THR190     -0.1218
     70  CA        17.3010  -24.5410   16.7620 C.3   190  THR190      0.1862
     71  C         18.2330  -23.9020   15.6860 C.2   190  THR190      0.2287
     72  O         19.4120  -24.2510   15.6020 O.2   190  THR190     -0.2866
     73  CB        17.0070  -26.0350   16.4180 C.3   190  THR190      0.1770
     74  OG1       16.1380  -26.1220   15.2750 O.3   190  THR190     -0.2211
     75  CG2       16.3490  -26.7500   17.6050 C.3   190  THR190      0.0375
     76  N         22.3350  -20.3540   11.8860 N.3   194  ARG194     -0.1245
     77  CA        22.4270  -20.8330   10.5100 C.3   194  ARG194      0.1563
     78  C         21.9060  -19.8150    9.4990 C.2   194  ARG194      0.2260
     79  O         22.5580  -18.8030    9.2530 O.2   194  ARG194     -0.2867
     80  CB        21.7380  -22.1920   10.3700 C.3   194  ARG194      0.0307
     81  CG        22.2640  -23.2070   11.3730 C.3   194  ARG194      0.0489
     82  CD        21.8340  -24.6310   11.0690 C.3   194  ARG194      0.2205
     83  NE        22.4870  -25.5740   11.9730 N.pl3 194  ARG194     -0.0865
     84  CZ        22.3270  -26.8920   11.9280 C.cat 194  ARG194      0.5346
     85  NH1       22.9640  -27.6670   12.7930 N.pl3 194  ARG194      0.1354
     86  NH2       21.5300  -27.4360   11.0210 N.pl3 194  ARG194      0.1354
     87  N         13.6700  -24.8380    9.5530 N.3   208  LYS208     -0.1231
     88  CA        13.8300  -26.1400   10.1900 C.3   208  LYS208      0.1693
     89  C         15.2500  -26.6590    9.9470 C.2   208  LYS208      0.2593
     90  O         15.6940  -26.7770    8.8060 O.2   208  LYS208     -0.2718
     91  CB        12.7840  -27.1600    9.6830 C.3   208  LYS208      0.0285
     92  CG        12.8880  -28.5710   10.3130 C.3   208  LYS208      0.0035
     93  CD        12.7180  -28.5440   11.8370 C.3   208  LYS208      0.0206
     94  CE        12.8290  -29.9350   12.4740 C.3   208  LYS208      0.1093
     95  NZ        14.1770  -30.2650   13.0480 N.3   208  LYS208     -0.1314
     96  N         15.9640  -26.9650   11.0230 N.am  209  THR209     -0.1939
     97  CA        17.3290  -27.4680   10.8940 C.3   209  THR209      0.2028
     98  C         17.4110  -28.9990   10.8140 C.2   209  THR209      0.2643
     99  O         16.4160  -29.7080   10.9640 O.2   209  THR209     -0.2714
    100  CB        18.2570  -26.9550   12.0160 C.3   209  THR209      0.1808
    101  OG1       17.8060  -27.4350   13.2890 O.3   209  THR209     -0.2208
    102  CG2       18.3110  -25.4190   12.0210 C.3   209  THR209      0.0379
    103  N         18.6220  -29.4870   10.5790 N.am  210  GLY210     -0.1939
    104  CA        18.9020  -30.9030   10.4340 C.3   210  GLY210      0.2014
    105  C         20.3650  -31.0960   10.7810 C.2   210  GLY210      0.2640
    106  O         21.2140  -30.2650   10.4310 O.2   210  GLY210     -0.2714
    107  N         20.6610  -32.1770   11.4980 N.am  211  THR211     -0.1936
    108  CA        22.0290  -32.4460   11.9230 C.3   211  THR211      0.2028
    109  C         22.2640  -33.9440   12.1310 C.2   211  THR211      0.2643
    110  O         21.3380  -34.7030   12.4520 O.2   211  THR211     -0.2714
    111  CB        22.4260  -31.6130   13.1790 C.3   211  THR211      0.1808
    112  OG1       22.0650  -30.2350   12.9710 O.3   211  THR211     -0.2208
    113  CG2       23.9320  -31.7260   13.4730 C.3   211  THR211      0.0379
    114  N         23.5090  -34.3570   11.9180 N.am  212  GLY212     -0.1939
    115  CA        23.9040  -35.7510   12.0460 C.3   212  GLY212      0.2014
    116  C         25.4150  -35.8840   11.9900 C.2   212  GLY212      0.2638
    117  O         26.1410  -34.8850   12.0990 O.2   212  GLY212     -0.2714
    118  N         25.8850  -37.1150   11.8090 N.am  213  ASP213     -0.1971
    119  CA        27.3170  -37.4040   11.7570 C.3   213  ASP213      0.1709
    120  C         27.8850  -37.1010   10.3870 C.2   213  ASP213      0.2293
    121  O         27.1620  -36.6600    9.4950 O.2   213  ASP213     -0.2864
    122  CB        27.5740  -38.8750   12.0670 C.3   213  ASP213      0.1436
    123  CG        26.7670  -39.3690   13.2410 C.2   213  ASP213      0.3671
    124  OD1       26.9950  -38.8740   14.3710 O.co2 213  ASP213     -0.2456
    125  OD2       25.9110  -40.2570   13.0260 O.co2 213  ASP213     -0.2456
    126  N         32.8320  -40.5530   10.2450 N.3   244  TYR244     -0.1241
    127  CA        31.6440  -40.5520   11.0680 C.3   244  TYR244      0.1605
    128  C         31.6400  -39.4700   12.1270 C.2   244  TYR244      0.2264
    129  O         30.5930  -38.8840   12.4100 O.2   244  TYR244     -0.2867
    130  CB        31.5040  -41.9140   11.7360 C.3   244  TYR244      0.0534
    131  CG        30.2040  -42.0920   12.4610 C.ar  244  TYR244     -0.0201
    132  CD1       29.0430  -42.3910   11.7650 C.ar  244  TYR244     -0.0009
    133  CD2       30.1330  -41.9610   13.8410 C.ar  244  TYR244     -0.0009
    134  CE1       27.8410  -42.5580   12.4140 C.ar  244  TYR244      0.0417
    135  CE2       28.9320  -42.1270   14.5070 C.ar  244  TYR244      0.0417
    136  CZ        27.7850  -42.4280   13.7840 C.ar  244  TYR244      0.1957
    137  OH        26.5770  -42.6050   14.4220 O.3   244  TYR244     -0.2866
@<TRIPOS>BOND
     1     1     2    1
     2     2     5    1
     3     2     3    1
     4     6     5    1
     5    90    89    2
     6     4     3    2
     7    79    78    2
     8     3     7   am
     9    13    14    1
    10   121   120    2
    11    78    77    1
    12    87    88    1
    13    91    88    1
    14    91    92    1
    15    89    88    1
    16    89    96   am
    17    15    14    1
    18    15    16    2
    19    64    63    2
    20     9    10    2
    21     9     8    1
    22     7     8    1
    23   126   127    1
    24    92    93    1
    25    80    77    1
    26    80    81    1
    27   120   119    1
    28    63    62    1
    29    14    17    1
    30   106   105    2
    31   104   103    1
    32   104   105    1
    33    61    62    1
    34    77    76    1
    35   103    98   am
    36    62    65    1
    37   105   107   am
    38    98    97    1
    39    98    99    2
    40    97    96    1
    41    97   100    1
    42     8    11    1
    43    86    84    1
    44   127   130    1
    45   127   128    1
    46    82    81    1
    47    82    83    1
    48   107   108    1
    49   130   131    1
    50   119   118    1
    51   119   122    1
    52   132   134   ar
    53   132   131   ar
    54    17    18    1
    55   118   116   am
    56    93    94    1
    57   114   115    1
    58   114   109   am
    59   108   109    1
    60   108   111    1
    61    65    66    1
    62    84    83    2
    63    84    85    1
    64   116   115    1
    65   116   117    2
    66   100   102    1
    67   100   101    1
    68   122   123    1
    69   128   129    2
    70   109   110    2
    71    11    12    1
    72    18    19    1
    73   134   136   ar
    74   131   133   ar
    75    94    95    1
    76    57    56    2
    77    68    66   am
    78   112   111    1
    79   125   123   ar
    80    66    67    2
    81   111   113    1
    82   123   124   ar
    83    19    20    1
    84    56    55    1
    85   136   137    1
    86   136   135   ar
    87   133   135   ar
    88    20    21    1
    89    55    54    1
    90    55    58    1
    91    53    52    1
    92    74    73    1
    93    54    60    1
    94    72    71    2
    95    71    70    1
    96    58    59    1
    97    73    70    1
    98    73    75    1
    99    52    49    1
   100    60    59    1
   101    49    50    1
   102    49    48    1
   103    70    69    1
   104    50    51    2
   105    48    38   am
   106    27    26    1
   107    36    37    1
   108    38    39    2
   109    38    37    1
   110    26    23    1
   111    37    40    1
   112    35    33    1
   113    31    30    2
   114    23    22    1
   115    23    24    1
   116    40    41    1
   117    28    24   am
   118    28    29    1
   119    32    33    1
   120    32    29    1
   121    32    34    1
   122    24    25    2
   123    30    29    1
   124    41    42   ar
   125    41    43   ar
   126    42    44   ar
   127    43    45   ar
   128    44    46   ar
   129    45    46   ar
   130    46    47    1
