@<TRIPOS>MOLECULE
tmp/3vflA00.pdb
 112 103 0 0 0
SMALL
GASTEIGER

@<TRIPOS>ATOM
      1  N        -11.6000   -8.3530   22.9750 N.3    49  THR49      -0.1203
      2  CA       -10.6310   -8.5930   21.8970 C.3    49  THR49       0.1994
      3  C         -9.2000   -8.3220   22.2460 C.2    49  THR49       0.2618
      4  O         -8.2800   -9.1190   21.9100 O.2    49  THR49      -0.2717
      5  CB       -10.9380   -7.5870   20.7620 C.3    49  THR49       0.1784
      6  OG1      -12.3560   -7.3970   20.6840 O.3    49  THR49      -0.2211
      7  CG2      -10.3590   -8.0200   19.4590 C.3    49  THR49       0.0376
      8  N         -8.9780   -7.1530   22.8280 N.am   50  THR50      -0.1952
      9  CA        -7.6360   -6.7620   23.2560 C.3    50  THR50       0.1897
     10  C         -7.0030   -7.7770   24.1740 C.2    50  THR50       0.2313
     11  O         -5.7550   -7.8260   24.2710 O.2    50  THR50      -0.2863
     12  CB        -7.6780   -5.3870   23.9860 C.3    50  THR50       0.1794
     13  OG1       -8.0800   -4.3750   23.0490 O.3    50  THR50      -0.2208
     14  CG2       -6.3450   -4.9180   24.3550 C.3    50  THR50       0.0378
     15  N        -21.3950   -4.5440   21.7450 N.3   139  TYR139     -0.1241
     16  CA       -20.2010   -4.0550   21.0750 C.3   139  TYR139      0.1605
     17  C        -20.4750   -4.2150   19.5840 C.2   139  TYR139      0.2264
     18  O        -20.3250   -5.3040   19.0170 O.2   139  TYR139     -0.2867
     19  CB       -18.9980   -4.9060   21.4450 C.3   139  TYR139      0.0534
     20  CG       -17.7060   -4.4310   20.8990 C.ar  139  TYR139     -0.0201
     21  CD1      -17.5880   -3.1130   20.3880 C.ar  139  TYR139     -0.0009
     22  CD2      -16.5900   -5.2930   20.8120 C.ar  139  TYR139     -0.0009
     23  CE1      -16.4090   -2.6670   19.8430 C.ar  139  TYR139      0.0417
     24  CE2      -15.4180   -4.8390   20.2570 C.ar  139  TYR139      0.0417
     25  CZ       -15.3320   -3.5520   19.7860 C.ar  139  TYR139      0.1957
     26  OH       -14.1720   -3.0310   19.2900 O.3   139  TYR139     -0.2866
     27  N        -19.3020   -3.4390   15.9130 N.3   141  ILE141     -0.1245
     28  CA       -17.9970   -3.2110   15.2670 C.3   141  ILE141      0.1561
     29  C        -17.8230   -3.9140   13.9220 C.2   141  ILE141      0.2260
     30  O        -17.1200   -4.9340   13.8540 O.2   141  ILE141     -0.2867
     31  CB       -16.8700   -3.6230   16.2340 C.3   141  ILE141      0.0252
     32  CG1      -15.5170   -3.3960   15.5140 C.3   141  ILE141      0.0019
     33  CG2      -17.1250   -5.0420   16.7580 C.3   141  ILE141      0.0019
     34  CD1      -14.5050   -2.7030   16.3750 C.3   141  ILE141      0.0001
     35  N        -14.5880   -5.4830   12.5400 N.3   144  ARG144     -0.1245
     36  CA       -14.1680   -6.7890   12.9730 C.3   144  ARG144      0.1563
     37  C        -15.2280   -7.8740   12.6670 C.2   144  ARG144      0.2260
     38  O        -14.8940   -9.0410   12.5070 O.2   144  ARG144     -0.2867
     39  CB       -13.9340   -6.7900   14.4710 C.3   144  ARG144      0.0307
     40  CG       -12.4960   -6.6300   14.8130 C.3   144  ARG144      0.0489
     41  CD       -12.1790   -6.7010   16.3260 C.3   144  ARG144      0.2205
     42  NE       -11.0020   -5.8870   16.5040 N.pl3 144  ARG144     -0.0865
     43  CZ        -9.7900   -6.3270   16.3680 C.cat 144  ARG144      0.5346
     44  NH1       -9.5800   -7.5880   15.9860 N.pl3 144  ARG144      0.1354
     45  NH2       -8.7920   -5.4900   16.5690 N.pl3 144  ARG144      0.1354
     46  N        -20.8260   -0.1380   23.0070 N.3   167  LYS167     -0.1245
     47  CA       -19.4630    0.2470   22.6730 C.3   167  LYS167      0.1561
     48  C        -19.5800    0.3030   21.1460 C.2   167  LYS167      0.2260
     49  O        -19.6680   -0.7440   20.4830 O.2   167  LYS167     -0.2867
     50  CB       -18.4860   -0.8280   23.0810 C.3   167  LYS167      0.0271
     51  CG       -17.0210   -0.4910   22.7380 C.3   167  LYS167      0.0035
     52  CD       -16.1310   -1.6770   23.0690 C.3   167  LYS167      0.0206
     53  CE       -14.7950   -1.5500   22.3310 C.3   167  LYS167      0.1093
     54  NZ       -13.8000   -2.5830   22.7020 N.3   167  LYS167     -0.1314
     55  N        -18.5520    1.5040   17.2920 N.3   169  CYS169     -0.1235
     56  CA       -17.4060    1.7330   16.4600 C.3   169  CYS169      0.1677
     57  C        -17.9840    1.7440   15.0570 C.2   169  CYS169      0.2270
     58  O        -17.6550    0.8340   14.2300 O.2   169  CYS169     -0.2867
     59  CB       -16.3570    0.6350   16.5360 C.3   169  CYS169      0.0956
     60  SG       -15.7510    0.4620   18.1860 S.3   169  CYS169     -0.0801
     61  N        -15.6590    2.7610   20.8530 N.3   191  GLY191     -0.1210
     62  CA       -14.5580    1.8140   20.9690 C.3   191  GLY191      0.1956
     63  C        -13.4280    2.2150   20.0230 C.2   191  GLY191      0.2612
     64  O        -12.5990    1.3940   19.7240 O.2   191  GLY191     -0.2717
     65  N        -13.4290    3.4630   19.5290 N.am  192  GLU192     -0.1965
     66  CA       -12.3600    3.9440   18.6490 C.3   192  GLU192      0.1733
     67  C        -11.5070    5.0220   19.3790 C.2   192  GLU192      0.2616
     68  O        -12.0240    6.1160   19.6180 O.2   192  GLU192     -0.2715
     69  CB       -12.9810    4.5860   17.3670 C.3   192  GLU192      0.0429
     70  CG       -11.9170    5.2420   16.4900 C.3   192  GLU192      0.1163
     71  CD       -10.7880    4.3020   16.0410 C.2   192  GLU192      0.3649
     72  OE1       -9.5720    4.4820   16.4640 O.co2 192  GLU192     -0.2457
     73  OE2      -11.1360    3.3340   15.2760 O.co2 192  GLU192     -0.2457
     74  N        -10.2680    4.6860   19.7960 N.am  193  ASP193     -0.1971
     75  CA        -9.3650    5.7140   20.4440 C.3   193  ASP193      0.1709
     76  C         -9.2390    6.9810   19.5250 C.2   193  ASP193      0.2293
     77  O         -9.2440    8.1500   19.9520 O.2   193  ASP193     -0.2864
     78  CB        -7.9960    5.1060   20.7700 C.3   193  ASP193      0.1436
     79  CG        -8.0520    4.1960   22.0320 C.2   193  ASP193      0.3671
     80  OD1       -8.6340    4.6490   22.9850 O.co2 193  ASP193     -0.2456
     81  OD2       -7.5710    3.0380   22.0400 O.co2 193  ASP193     -0.2456
     82  N         -7.9520    0.9930   23.9990 N.3   210  VAL210     -0.1245
     83  CA        -6.6620    0.3140   23.9610 C.3   210  VAL210      0.1561
     84  C         -5.5530    1.2600   24.3710 C.2   210  VAL210      0.2260
     85  O         -4.6600    0.8610   25.1570 O.2   210  VAL210     -0.2867
     86  CB        -6.3550   -0.2300   22.5370 C.3   210  VAL210      0.0252
     87  CG1       -5.0270   -1.0520   22.5290 C.3   210  VAL210      0.0019
     88  CG2       -7.5030   -1.2170   22.2690 C.3   210  VAL210      0.0019
     89  N         -2.4620    6.6170   17.9910 N.3   245  VAL245     -0.1245
     90  CA        -3.5530    5.6250   17.8140 C.3   245  VAL245      0.1561
     91  C         -3.1950    4.7870   16.6080 C.2   245  VAL245      0.2260
     92  O         -3.2320    3.5580   16.6900 O.2   245  VAL245     -0.2867
     93  CB        -4.9810    6.2450   17.7350 C.3   245  VAL245      0.0252
     94  CG1       -6.0350    5.1250   17.4450 C.3   245  VAL245      0.0019
     95  CG2       -5.3150    6.9300   19.0940 C.3   245  VAL245      0.0019
     96  N         -2.4380    0.5630   16.2520 N.3   249  PHE249     -0.1241
     97  CA        -3.1290   -0.3520   15.3520 C.3   249  PHE249      0.1605
     98  C         -2.4370   -0.6290   14.0160 C.2   249  PHE249      0.2264
     99  O         -3.0360   -1.2210   13.1290 O.2   249  PHE249     -0.2867
    100  CB        -4.5500    0.1520   15.1660 C.3   249  PHE249      0.0534
    101  CG        -5.3080    0.0860   16.4370 C.ar  249  PHE249     -0.0203
    102  CD1       -5.9270   -1.0560   16.7570 C.ar  249  PHE249     -0.0042
    103  CD2       -5.3020    1.1520   17.3590 C.ar  249  PHE249     -0.0042
    104  CE1       -6.6040   -1.2250   17.9620 C.ar  249  PHE249     -0.0003
    105  CE2       -5.9530    0.9890   18.6130 C.ar  249  PHE249     -0.0003
    106  CZ        -6.6310   -0.2080   18.9020 C.ar  249  PHE249     -0.0000
    107  N         -3.7930   -5.6720   16.4450 N.3   253  SER253     -0.1217
    108  CA        -3.7820   -5.3290   17.8900 C.3   253  SER253      0.1889
    109  C         -4.1830   -6.6340   18.5900 C.2   253  SER253      0.2288
    110  O         -4.9810   -7.3760   18.0490 O.2   253  SER253     -0.2866
    111  CB        -4.7520   -4.2040   18.1940 C.3   253  SER253      0.2089
    112  OG        -4.8370   -3.9430   19.6300 O.3   253  SER253     -0.2183
@<TRIPOS>BOND
     1    38    37    2
     2    35    36    1
     3    37    36    1
     4    36    39    1
     5    99    98    2
     6    30    29    2
     7    29    28    1
     8    98    97    1
     9    58    57    2
    10    39    40    1
    11    40    41    1
    12    57    56    1
    13   100    97    1
    14   100   101    1
    15    28    27    1
    16    28    31    1
    17    73    71   ar
    18    97    96    1
    19    32    31    1
    20    32    34    1
    21    44    43    1
    22    71    72   ar
    23    71    70    1
    24    31    33    1
    25    41    42    1
    26    43    42    2
    27    43    45    1
    28   101   102   ar
    29   101   103   ar
    30   107   108    1
    31    56    59    1
    32    56    55    1
    33    70    69    1
    34    59    60    1
    35    91    92    2
    36    91    90    1
    37   102   104   ar
    38   103   105   ar
    39    69    66    1
    40    94    93    1
    41    93    90    1
    42    93    95    1
    43    90    89    1
    44   108   111    1
    45   108   109    1
    46   104   106   ar
    47   110   109    2
    48   111   112    1
    49   105   106   ar
    50    66    67    1
    51    66    65    1
    52    18    17    2
    53    26    25    1
    54    67    68    2
    55    67    74   am
    56     7     5    1
    57    76    77    2
    58    76    75    1
    59    65    63   am
    60    17    16    1
    61    64    63    2
    62    25    23   ar
    63    25    24   ar
    64    74    75    1
    65    23    21   ar
    66    63    62    1
    67    24    22   ar
    68    21    20   ar
    69    75    78    1
    70    49    48    2
    71     6     5    1
    72     5     2    1
    73    78    79    1
    74    22    20   ar
    75    61    62    1
    76    20    19    1
    77    16    19    1
    78    16    15    1
    79    48    47    1
    80     2     3    1
    81     2     1    1
    82     4     3    2
    83    79    81   ar
    84    79    80   ar
    85     3     8   am
    86    88    86    1
    87    53    54    1
    88    53    52    1
    89    87    86    1
    90    86    83    1
    91    47    46    1
    92    47    50    1
    93    51    52    1
    94    51    50    1
    95     8     9    1
    96    13    12    1
    97     9    12    1
    98     9    10    1
    99    83    82    1
   100    83    84    1
   101    12    14    1
   102    10    11    2
   103    84    85    2
