@<TRIPOS>MOLECULE
tmp/3vfqA00.pdb
 189 181 0 0 0
SMALL
GASTEIGER

@<TRIPOS>ATOM
      1  N         27.6730    0.6970   22.9290 N.3   205  GLU205     -0.1231
      2  CA        28.4000   -0.3960   22.2680 C.3   205  GLU205      0.1699
      3  C         27.6510   -0.8720   21.0060 C.2   205  GLU205      0.2593
      4  O         26.4520   -0.5980   20.8280 O.2   205  GLU205     -0.2718
      5  CB        28.6510   -1.5720   23.2510 C.3   205  GLU205      0.0402
      6  CG        27.3950   -2.4360   23.6410 C.3   205  GLU205      0.1161
      7  CD        27.5680   -3.2590   24.9650 C.2   205  GLU205      0.3649
      8  OE1       26.6010   -3.3250   25.7740 O.co2 205  GLU205     -0.2457
      9  OE2       28.6650   -3.8360   25.1970 O.co2 205  GLU205     -0.2457
     10  N         28.3830   -1.5550   20.1190 N.am  206  GLY206     -0.1942
     11  CA        27.7680   -2.2970   19.0240 C.3   206  GLY206      0.2014
     12  C         26.8500   -3.3210   19.6690 C.2   206  GLY206      0.2639
     13  O         27.1910   -3.8740   20.7180 O.2   206  GLY206     -0.2714
     14  N         25.6780   -3.5560   19.0710 N.am  207  VAL207     -0.1963
     15  CA        24.6810   -4.4990   19.6240 C.3   207  VAL207      0.1727
     16  C         25.2070   -5.9520   19.7630 C.2   207  VAL207      0.2616
     17  O         24.8650   -6.6630   20.7180 O.2   207  VAL207     -0.2715
     18  CB        23.3770   -4.4890   18.7810 C.3   207  VAL207      0.0290
     19  CG1       23.6190   -5.0500   17.3790 C.3   207  VAL207      0.0023
     20  CG2       22.2520   -5.2680   19.4800 C.3   207  VAL207      0.0023
     21  N         26.0450   -6.3640   18.8090 N.am  208  GLN208     -0.1977
     22  CA        26.7840   -7.6300   18.8680 C.3   208  GLN208      0.1601
     23  C         27.4870   -7.8910   20.2100 C.2   208  GLN208      0.2287
     24  O         27.5470   -9.0300   20.6760 O.2   208  GLN208     -0.2864
     25  CB        27.8170   -7.6800   17.7280 C.3   208  GLN208      0.0394
     26  CG        28.8690   -6.5370   17.7160 C.3   208  GLN208      0.0908
     27  CD        28.6900   -5.5190   16.5800 C.2   208  GLN208      0.2608
     28  OE1       27.5610   -5.2100   16.1910 O.2   208  GLN208     -0.2717
     29  NE2       29.7990   -5.0150   16.0330 N.am  208  GLN208     -0.0878
     30  N         16.3900   -6.2880   13.7790 N.3   218  SER218     -0.1202
     31  CA        15.3650   -5.8630   12.8310 C.3   218  SER218      0.2020
     32  C         15.6770   -6.4670   11.4600 C.2   218  SER218      0.2619
     33  O         16.7890   -6.3200   10.9990 O.2   218  SER218     -0.2717
     34  CB        15.2680   -4.3220   12.7870 C.3   218  SER218      0.2103
     35  OG        15.3900   -3.8280   11.4570 O.3   218  SER218     -0.2182
     36  N         14.6970   -7.1310   10.8280 N.am  219  VAL219     -0.1966
     37  CA        14.9390   -7.9650    9.6270 C.3   219  VAL219      0.1712
     38  C         13.7680   -7.9480    8.6310 C.2   219  VAL219      0.2458
     39  O         12.6220   -7.7840    9.0500 O.2   219  VAL219     -0.2730
     40  CB        15.1720   -9.4510   10.0030 C.3   219  VAL219      0.0289
     41  CG1       16.0180   -9.5690   11.2700 C.3   219  VAL219      0.0023
     42  CG2       13.8280  -10.1840   10.1580 C.3   219  VAL219      0.0023
     43  N         14.0480   -8.1480    7.3130 N.am  220  PRO220     -0.2727
     44  CA        13.0580   -8.0160    6.2240 C.3   220  PRO220      0.1402
     45  C         12.0670   -9.1630    6.0910 C.2   220  PRO220      0.2269
     46  O         12.1200  -10.1210    6.8500 O.2   220  PRO220     -0.2865
     47  CB        13.9260   -7.9340    4.9720 C.3   220  PRO220      0.0296
     48  CG        15.1920   -8.6120    5.3300 C.3   220  PRO220      0.0237
     49  CD        15.3970   -8.4310    6.7870 C.3   220  PRO220      0.0939
     50  N         21.4060   -8.2530    4.7710 N.3   227  ARG227     -0.1231
     51  CA        21.0420   -7.0590    4.0100 C.3   227  ARG227      0.1694
     52  C         21.3320   -5.7560    4.7720 C.2   227  ARG227      0.2593
     53  O         22.2500   -5.0100    4.3950 O.2   227  ARG227     -0.2718
     54  CB        19.5710   -7.1440    3.5780 C.3   227  ARG227      0.0321
     55  CG        19.2760   -6.3180    2.3590 C.3   227  ARG227      0.0489
     56  CD        18.5720   -7.1330    1.3010 C.3   227  ARG227      0.2205
     57  NE        17.2010   -7.4080    1.7010 N.pl3 227  ARG227     -0.0865
     58  CZ        16.5940   -8.5940    1.6440 C.cat 227  ARG227      0.5346
     59  NH1       15.3300   -8.6900    2.0530 N.pl3 227  ARG227      0.1354
     60  NH2       17.2160   -9.6760    1.1740 N.pl3 227  ARG227      0.1354
     61  N         20.5770   -5.4940    5.8440 N.am  228  GLY228     -0.1943
     62  CA        20.7840   -4.2920    6.6530 C.3   228  GLY228      0.1998
     63  C         22.0120   -4.3680    7.5610 C.2   228  GLY228      0.2481
     64  O         22.3560   -5.4430    8.0520 O.2   228  GLY228     -0.2729
     65  N         22.6640   -3.2180    7.8180 N.am  229  PRO229     -0.2715
     66  CA        23.8840   -3.1300    8.6100 C.3   229  PRO229      0.1536
     67  C         23.7700   -3.6350   10.0510 C.2   229  PRO229      0.2598
     68  O         24.7710   -4.0800   10.6160 O.2   229  PRO229     -0.2715
     69  CB        24.1830   -1.6260    8.6130 C.3   229  PRO229      0.0310
     70  CG        22.8990   -0.9890    8.3720 C.3   229  PRO229      0.0237
     71  CD        22.2270   -1.8810    7.3990 C.3   229  PRO229      0.0939
     72  N         22.5850   -3.5330   10.6430 N.am  230  LEU230     -0.1964
     73  CA        22.3470   -4.0310   12.0030 C.3   230  LEU230      0.1728
     74  C         22.2810   -5.5510   11.9710 C.2   230  LEU230      0.2616
     75  O         22.8760   -6.2510   12.7800 O.2   230  LEU230     -0.2715
     76  CB        21.0210   -3.4810   12.5390 C.3   230  LEU230      0.0311
     77  CG        20.6260   -3.9420   13.9370 C.3   230  LEU230      0.0022
     78  CD1       21.5410   -3.2820   14.9430 C.3   230  LEU230      0.0001
     79  CD2       19.1470   -3.6510   14.2280 C.3   230  LEU230      0.0001
     80  N         21.5200   -6.0400   11.0120 N.am  231  SER231     -0.1950
     81  CA        21.3240   -7.4450   10.8480 C.3   231  SER231      0.1924
     82  C         22.6690   -8.0780   10.4840 C.2   231  SER231      0.2314
     83  O         23.0240   -9.1140   11.0340 O.2   231  SER231     -0.2863
     84  CB        20.2630   -7.6840    9.7790 C.3   231  SER231      0.2116
     85  OG        19.5760   -8.8750   10.0480 O.3   231  SER231     -0.2180
     86  N         25.7540   -7.1390   11.1880 N.3   233  SER233     -0.1217
     87  CA        26.7120   -7.2100   12.2930 C.3   233  SER233      0.1889
     88  C         26.4220   -8.3650   13.2750 C.2   233  SER233      0.2288
     89  O         27.3510   -8.9570   13.8470 O.2   233  SER233     -0.2866
     90  CB        26.8200   -5.8470   13.0180 C.3   233  SER233      0.2089
     91  OG        25.6030   -5.1220   12.9920 O.3   233  SER233     -0.2183
     92  N         10.2220   -7.7690   12.1970 N.3   277  VAL277     -0.1231
     93  CA        10.0580   -7.1330   10.8850 C.3   277  VAL277      0.1692
     94  C          9.3740   -5.8180   11.1000 C.2   277  VAL277      0.2591
     95  O          8.1490   -5.7670   11.2270 O.2   277  VAL277     -0.2718
     96  CB         9.1980   -7.9670    9.9040 C.3   277  VAL277      0.0266
     97  CG1        9.0440   -7.2290    8.5660 C.3   277  VAL277      0.0020
     98  CG2        9.8070   -9.3560    9.6960 C.3   277  VAL277      0.0020
     99  N         10.1690   -4.7510   11.1690 N.am  278  ALA278     -0.1980
    100  CA         9.6440   -3.4220   11.5050 C.3   278  ALA278      0.1597
    101  C          9.0450   -2.7740   10.2680 C.2   278  ALA278      0.2287
    102  O          9.4580   -3.0880    9.1340 O.2   278  ALA278     -0.2864
    103  CB        10.7220   -2.5480   12.0860 C.3   278  ALA278      0.0319
    104  N         18.1410   -1.9500   19.9290 N.3   314  PRO314     -0.2102
    105  CA        18.8380   -0.9380   19.1090 C.3   314  PRO314      0.1504
    106  C         17.8910    0.1150   18.5760 C.2   314  PRO314      0.2575
    107  O         16.7090    0.0670   18.8600 O.2   314  PRO314     -0.2718
    108  CB        19.4150   -1.7390   17.9450 C.3   314  PRO314      0.0282
    109  CG        18.7150   -3.1100   17.9730 C.3   314  PRO314      0.0208
    110  CD        17.8260   -3.1780   19.1710 C.3   314  PRO314      0.0893
    111  N         18.3940    1.0720   17.8020 N.am  315  ALA315     -0.1980
    112  CA        17.4910    2.0220   17.1280 C.3   315  ALA315      0.1597
    113  C         16.9130    1.3370   15.8790 C.2   315  ALA315      0.2287
    114  O         17.3680    1.5740   14.7500 O.2   315  ALA315     -0.2864
    115  CB        18.2050    3.3110   16.7810 C.3   315  ALA315      0.0319
    116  N         14.5490    0.5270   12.8550 N.3   317  GLY317     -0.1210
    117  CA        13.7800    1.3230   11.9260 C.3   317  GLY317      0.1956
    118  C         14.3580    2.6890   11.6200 C.2   317  GLY317      0.2613
    119  O         13.8140    3.4080   10.7950 O.2   317  GLY317     -0.2717
    120  N         15.4460    3.0680   12.2820 N.am  318  THR318     -0.1938
    121  CA        16.0110    4.3960   12.0790 C.3   318  THR318      0.2028
    122  C         17.0540    4.4230   10.9750 C.2   318  THR318      0.2643
    123  O         17.6040    5.4840   10.6750 O.2   318  THR318     -0.2714
    124  CB        16.6350    4.9660   13.3710 C.3   318  THR318      0.1808
    125  OG1       17.6840    4.1120   13.8170 O.3   318  THR318     -0.2208
    126  CG2       15.5850    5.1120   14.4460 C.3   318  THR318      0.0379
    127  N         17.3360    3.2570   10.3920 N.am  319  GLY319     -0.1939
    128  CA        18.1610    3.1460    9.1790 C.3   319  GLY319      0.2014
    129  C         17.3170    3.1480    7.9070 C.2   319  GLY319      0.2639
    130  O         16.7070    4.1690    7.5460 O.2   319  GLY319     -0.2714
    131  N         17.2530    1.9920    7.2440 N.am  320  ASN320     -0.1958
    132  CA        16.5640    1.8740    5.9480 C.3   320  ASN320      0.1819
    133  C         15.0460    2.0250    6.0270 C.2   320  ASN320      0.2621
    134  O         14.4000    2.2190    5.0000 O.2   320  ASN320     -0.2715
    135  CB        16.8950    0.5500    5.2350 C.3   320  ASN320      0.1195
    136  CG        18.3790    0.2070    5.2940 C.2   320  ASN320      0.2630
    137  OD1       19.2090    1.0900    5.5190 O.2   320  ASN320     -0.2716
    138  ND2       18.7170   -1.0750    5.1210 N.am  320  ASN320     -0.0877
    139  N         14.4580    1.9450    7.2170 N.am  321  LEU321     -0.1977
    140  CA        13.0180    2.0690    7.3070 C.3   321  LEU321      0.1596
    141  C         12.6160    3.5120    7.4480 C.2   321  LEU321      0.2287
    142  O         11.4370    3.8380    7.3160 O.2   321  LEU321     -0.2864
    143  CB        12.4820    1.2410    8.4540 C.3   321  LEU321      0.0297
    144  CG        12.7340   -0.2710    8.2760 C.3   321  LEU321      0.0022
    145  CD1       12.2770   -1.0290    9.4970 C.3   321  LEU321      0.0001
    146  CD2       12.0830   -0.8060    6.9970 C.3   321  LEU321      0.0001
    147  N         14.9980    9.7110   13.8790 N.3   325  LYS325     -0.1245
    148  CA        15.5910    9.1490   15.0930 C.3   325  LYS325      0.1561
    149  C         15.0290    9.6730   16.4250 C.2   325  LYS325      0.2260
    150  O         14.7240    8.9010   17.3200 O.2   325  LYS325     -0.2867
    151  CB        17.1040    9.2850   15.0290 C.3   325  LYS325      0.0271
    152  CG        17.7090    8.3570   13.9890 C.3   325  LYS325      0.0035
    153  CD        19.1100    8.7640   13.6720 C.3   325  LYS325      0.0206
    154  CE        19.8750    7.6730   12.9700 C.3   325  LYS325      0.1093
    155  NZ        21.3190    7.8680   13.2960 N.3   325  LYS325     -0.1314
    156  N         21.0460    0.1080   22.7130 N.3   354  LEU354     -0.1245
    157  CA        22.3240   -0.0690   22.0620 C.3   354  LEU354      0.1561
    158  C         22.4640    0.8080   20.8430 C.2   354  LEU354      0.2260
    159  O         21.7170    0.6920   19.9000 O.2   354  LEU354     -0.2867
    160  CB        22.5310   -1.5220   21.6840 C.3   354  LEU354      0.0270
    161  CG        22.6980   -2.4810   22.8550 C.3   354  LEU354      0.0019
    162  CD1       23.8480   -3.3570   22.5280 C.3   354  LEU354      0.0001
    163  CD2       22.9580   -1.7910   24.1570 C.3   354  LEU354      0.0001
    164  N         25.2640    2.4550   18.1580 N.3   356  HIS356     -0.1241
    165  CA        26.5970    2.3920   17.5980 C.3   356  HIS356      0.1621
    166  C         27.3860    3.6720   17.9310 C.2   356  HIS356      0.2264
    167  O         26.8800    4.7820   17.7470 O.2   356  HIS356     -0.2867
    168  CB        26.5090    2.2200   16.0800 C.3   356  HIS356      0.0745
    169  CG        27.7060    1.5590   15.4890 C.ar  356  HIS356      0.0817
    170  ND1       28.9810    2.0400   15.6770 N.ar  356  HIS356     -0.2268
    171  CD2       27.8270    0.4500   14.7260 C.ar  356  HIS356      0.1154
    172  CE1       29.8410    1.2470   15.0640 C.ar  356  HIS356      0.1986
    173  NE2       29.1670    0.2770   14.4740 N.ar  356  HIS356     -0.2212
    174  N         27.1820    6.5790   15.6590 N.3   359  ASP359     -0.1239
    175  CA        25.8340    7.0130   15.2740 C.3   359  ASP359      0.1674
    176  C         25.3860    8.1730   16.1550 C.2   359  ASP359      0.2266
    177  O         24.5590    8.0140   17.0550 O.2   359  ASP359     -0.2867
    178  CB        24.8680    5.8450   15.4110 C.3   359  ASP359      0.1410
    179  CG        23.4850    6.1720   14.9180 C.2   359  ASP359      0.3668
    180  OD1       22.6320    5.2490   14.8810 O.co2 359  ASP359     -0.2456
    181  OD2       23.2440    7.3530   14.5810 O.co2 359  ASP359     -0.2456
    182  N         21.7400    9.2030   16.8430 N.3   362  ASN362     -0.1240
    183  CA        21.0160    8.3120   17.7530 C.3   362  ASN362      0.1653
    184  C         21.4530    8.4770   19.1900 C.2   362  ASN362      0.2266
    185  O         20.6360    8.3830   20.0920 O.2   362  ASN362     -0.2867
    186  CB        21.1400    6.8400   17.3500 C.3   362  ASN362      0.1155
    187  CG        19.9720    6.3540   16.5440 C.2   362  ASN362      0.2627
    188  OD1       18.8230    6.5050   16.9460 O.2   362  ASN362     -0.2716
    189  ND2       20.2580    5.7370   15.4120 N.am  362  ASN362     -0.0877
@<TRIPOS>BOND
     1    60    58    1
     2    56    57    1
     3    56    55    1
     4    58    57    2
     5    58    59    1
     6    55    54    1
     7    54    51    1
     8    51    50    1
     9    51    52    1
    10    53    52    2
    11    52    61   am
    12    47    48    1
    13    47    44    1
    14   134   133    2
    15   138   136   am
    16   135   136    1
    17   135   132    1
    18   136   137    2
    19    48    49    1
    20    61    62    1
    21   132   133    1
    22   132   131    1
    23   133   139   am
    24    45    44    1
    25    45    46    2
    26    44    43    1
    27    62    63    1
    28    49    43    1
    29   146   144    1
    30   139   140    1
    31   131   129   am
    32   140   141    1
    33   140   143    1
    34    43    38   am
    35   142   141    2
    36    71    65    1
    37    71    70    1
    38   130   129    2
    39    63    65   am
    40    63    64    2
    41    65    66    1
    42   129   128    1
    43   144   143    1
    44   144   145    1
    45    70    69    1
    46    97    96    1
    47    66    69    1
    48    66    67    1
    49    38    39    2
    50    38    37    1
    51   102   101    2
    52   128   127    1
    53    37    40    1
    54    37    36    1
    55    98    96    1
    56    84    85    1
    57    84    81    1
    58    96    93    1
    59    40    42    1
    60    40    41    1
    61    67    68    2
    62    67    72   am
    63   101   100    1
    64   127   122   am
    65    82    81    1
    66    82    83    2
    67    72    73    1
    68   123   122    2
    69   119   118    2
    70    36    32   am
    71    81    80    1
    72    93    94    1
    73    93    92    1
    74   122   121    1
    75    33    32    2
    76    80    74   am
    77    94    99   am
    78    94    95    2
    79    99   100    1
    80    86    87    1
    81    35    34    1
    82    32    31    1
    83   100   103    1
    84   118   117    1
    85   118   120   am
    86   117   116    1
    87    74    73    1
    88    74    75    2
    89    73    76    1
    90   121   120    1
    91   121   124    1
    92    87    90    1
    93    87    88    1
    94    76    77    1
    95    34    31    1
    96    31    30    1
    97   154   155    1
    98   154   153    1
    99    91    90    1
   100    88    89    2
   101   124   125    1
   102   124   126    1
   103   153   152    1
   104   147   148    1
   105    77    79    1
   106    77    78    1
   107   152   151    1
   108   173   171   ar
   109   173   172   ar
   110   181   179   ar
   111   171   169   ar
   112   114   113    2
   113   180   179   ar
   114   179   178    1
   115   151   148    1
   116   172   170   ar
   117   148   149    1
   118   175   178    1
   119   175   174    1
   120   175   176    1
   121   189   187   am
   122   169   170   ar
   123   169   168    1
   124   113   112    1
   125    29    27   am
   126   168   165    1
   127   176   177    2
   128    28    27    2
   129   149   150    2
   130   187   188    2
   131   187   186    1
   132    27    26    1
   133   115   112    1
   134   182   183    1
   135   112   111    1
   136   186   183    1
   137    19    18    1
   138   165   166    1
   139   165   164    1
   140    26    25    1
   141    25    22    1
   142   167   166    2
   143   183   184    1
   144   111   106   am
   145   108   109    1
   146   108   105    1
   147   109   110    1
   148   106   107    2
   149   106   105    1
   150    18    20    1
   151    18    15    1
   152    21    22    1
   153    21    16   am
   154    22    23    1
   155    11    12    1
   156    11    10    1
   157    14    15    1
   158    14    12   am
   159   105   104    1
   160   110   104    1
   161   184   185    2
   162    15    16    1
   163    12    13    2
   164    16    17    2
   165   159   158    2
   166    10     3   am
   167    23    24    2
   168     4     3    2
   169   158   157    1
   170     3     2    1
   171   160   157    1
   172   160   161    1
   173   157   156    1
   174     2     1    1
   175     2     5    1
   176   162   161    1
   177   161   163    1
   178     5     6    1
   179     6     7    1
   180     7     9   ar
   181     7     8   ar
