@<TRIPOS>MOLECULE
tmp/3vg9A00.pdb
 187 180 0 0 0
SMALL
GASTEIGER

@<TRIPOS>ATOM
      1  N        -82.9400  -14.5940  -40.5650 N.3    61  ILE61      -0.1245
      2  CA       -82.8620  -14.2950  -41.9960 C.3    61  ILE61       0.1561
      3  C        -82.8700  -15.5170  -42.9420 C.2    61  ILE61       0.2260
      4  O        -83.2400  -15.3890  -44.1140 O.2    61  ILE61      -0.2867
      5  CB       -81.6530  -13.3750  -42.2950 C.3    61  ILE61       0.0252
      6  CG1      -81.7450  -12.1090  -41.4420 C.3    61  ILE61       0.0019
      7  CG2      -81.5960  -13.0110  -43.7660 C.3    61  ILE61       0.0019
      8  CD1      -83.1330  -11.4900  -41.4300 C.3    61  ILE61       0.0001
      9  N        -73.5680   -7.6770  -38.4120 N.3    79  VAL79      -0.1231
     10  CA       -72.2640   -8.3210  -38.4210 C.3    79  VAL79       0.1692
     11  C        -71.3110   -7.5680  -39.3510 C.2    79  VAL79       0.2591
     12  O        -70.0980   -7.7660  -39.2960 O.2    79  VAL79      -0.2718
     13  CB       -72.3820   -9.7710  -38.9370 C.3    79  VAL79       0.0266
     14  CG1      -73.7350  -10.3540  -38.5680 C.3    79  VAL79       0.0020
     15  CG2      -72.2010   -9.8250  -40.4520 C.3    79  VAL79       0.0020
     16  N        -71.8680   -6.7300  -40.2250 N.am   80  LEU80      -0.1980
     17  CA       -71.0780   -5.8000  -41.0360 C.3    80  LEU80       0.1596
     18  C        -70.1930   -4.8890  -40.1770 C.2    80  LEU80       0.2287
     19  O        -68.9660   -4.8510  -40.3530 O.2    80  LEU80      -0.2864
     20  CB       -71.9990   -4.9360  -41.9050 C.3    80  LEU80       0.0297
     21  CG       -72.3030   -5.3930  -43.3340 C.3    80  LEU80       0.0022
     22  CD1      -71.5400   -4.5700  -44.3630 C.3    80  LEU80       0.0001
     23  CD2      -71.9860   -6.8660  -43.4790 C.3    80  LEU80       0.0001
     24  N        -67.5780   -7.0070  -38.1270 N.3    83  THR83      -0.1218
     25  CA       -66.4500   -7.3460  -38.9910 C.3    83  THR83       0.1862
     26  C        -65.5350   -6.1350  -39.1850 C.2    83  THR83       0.2287
     27  O        -64.3020   -6.2330  -39.0440 O.2    83  THR83      -0.2866
     28  CB       -66.9270   -7.8530  -40.3740 C.3    83  THR83       0.1770
     29  OG1      -67.7900   -8.9840  -40.2030 O.3    83  THR83      -0.2211
     30  CG2      -65.7430   -8.2590  -41.2420 C.3    83  THR83       0.0375
     31  N        -84.4850   -9.7390  -46.6580 N.3   155  LEU155     -0.1231
     32  CA       -83.5660  -10.8540  -46.8240 C.3   155  LEU155      0.1693
     33  C        -82.3100  -10.3460  -47.5120 C.2   155  LEU155      0.2592
     34  O        -82.3780   -9.4770  -48.3800 O.2   155  LEU155     -0.2718
     35  CB       -84.2120  -11.9930  -47.6190 C.3   155  LEU155      0.0284
     36  CG       -84.6610  -13.2080  -46.7990 C.3   155  LEU155      0.0019
     37  CD1      -85.4320  -12.7590  -45.5680 C.3   155  LEU155      0.0001
     38  CD2      -85.4800  -14.1960  -47.6350 C.3   155  LEU155      0.0001
     39  N        -81.1620  -10.8820  -47.1190 N.am  156  PHE156     -0.1962
     40  CA       -79.8980  -10.3090  -47.5550 C.3   156  PHE156      0.1771
     41  C        -79.8180  -10.1290  -49.0690 C.2   156  PHE156      0.2619
     42  O        -79.8680   -9.0080  -49.5570 O.2   156  PHE156     -0.2715
     43  CB       -78.6990  -11.1090  -47.0350 C.3   156  PHE156      0.0574
     44  CG       -77.4340  -10.2980  -46.9340 C.ar  156  PHE156     -0.0200
     45  CD1      -77.2540   -9.4030  -45.8930 C.ar  156  PHE156     -0.0042
     46  CD2      -76.4310  -10.4270  -47.8780 C.ar  156  PHE156     -0.0042
     47  CE1      -76.0970   -8.6530  -45.7930 C.ar  156  PHE156     -0.0003
     48  CE2      -75.2690   -9.6730  -47.7850 C.ar  156  PHE156     -0.0003
     49  CZ       -75.1010   -8.7900  -46.7400 C.ar  156  PHE156     -0.0000
     50  N        -79.7500  -11.2260  -49.8130 N.am  157  GLU157     -0.1977
     51  CA       -79.2780  -11.1570  -51.1930 C.3   157  GLU157      0.1602
     52  C        -79.8960  -10.0220  -52.0140 C.2   157  GLU157      0.2287
     53  O        -79.1760   -9.2530  -52.6540 O.2   157  GLU157     -0.2864
     54  CB       -79.4730  -12.4990  -51.8980 C.3   157  GLU157      0.0415
     55  CG       -78.7620  -12.5780  -53.2320 C.3   157  GLU157      0.1163
     56  CD       -78.0470  -13.8960  -53.4350 C.2   157  GLU157      0.3649
     57  OE1      -77.1950  -13.9660  -54.3460 O.co2 157  GLU157     -0.2457
     58  OE2      -78.3340  -14.8560  -52.6890 O.co2 157  GLU157     -0.2457
     59  N        -80.0150   -6.6070  -49.7390 N.3   160  VAL160     -0.1245
     60  CA       -78.6370   -6.1590  -49.5990 C.3   160  VAL160      0.1561
     61  C        -78.0110   -5.9730  -50.9740 C.2   160  VAL160      0.2260
     62  O        -77.9830   -6.8890  -51.7980 O.2   160  VAL160     -0.2867
     63  CB       -77.7700   -7.1270  -48.7920 C.3   160  VAL160      0.0252
     64  CG1      -77.1600   -8.1680  -49.7110 C.3   160  VAL160      0.0019
     65  CG2      -76.6740   -6.3590  -48.0790 C.3   160  VAL160      0.0019
     66  N        -75.3540   -5.5730  -53.8590 N.3   162  MET162     -0.1245
     67  CA       -74.0830   -6.2260  -54.1270 C.3   162  MET162      0.1570
     68  C        -73.1180   -5.2660  -54.8140 C.2   162  MET162      0.2261
     69  O        -71.9540   -5.5940  -55.0400 O.2   162  MET162     -0.2867
     70  CB       -74.2910   -7.4920  -54.9550 C.3   162  MET162      0.0387
     71  CG       -73.1270   -8.4640  -54.8980 C.3   162  MET162      0.0595
     72  SD       -73.6190  -10.1350  -55.3620 S.3   162  MET162     -0.1393
     73  CE       -74.5120   -9.8130  -56.8810 C.3   162  MET162      0.0692
     74  N        -71.1750   -4.5510  -51.2460 N.3   165  MET165     -0.1245
     75  CA       -70.4420   -5.6960  -50.7250 C.3   165  MET165      0.1570
     76  C        -69.1720   -5.9160  -51.5370 C.2   165  MET165      0.2261
     77  O        -68.1320   -6.2720  -50.9860 O.2   165  MET165     -0.2867
     78  CB       -71.2940   -6.9660  -50.8050 C.3   165  MET165      0.0387
     79  CG       -72.6330   -6.8950  -50.0950 C.3   165  MET165      0.0595
     80  SD       -72.5110   -6.5200  -48.3380 S.3   165  MET165     -0.1393
     81  CE       -72.5940   -4.7290  -48.3590 C.3   165  MET165      0.0692
     82  N        -67.2120   -2.4260  -49.5280 N.3   169  ASN169     -0.1240
     83  CA       -66.8530   -3.3730  -48.4810 C.3   169  ASN169      0.1653
     84  C        -65.5720   -4.1200  -48.8390 C.2   169  ASN169      0.2266
     85  O        -64.5110   -3.8370  -48.2900 O.2   169  ASN169     -0.2867
     86  CB       -67.9890   -4.3710  -48.2500 C.3   169  ASN169      0.1155
     87  CG       -68.3770   -4.4920  -46.7880 C.2   169  ASN169      0.2627
     88  OD1      -68.4570   -3.4950  -46.0680 O.2   169  ASN169     -0.2716
     89  ND2      -68.6200   -5.7210  -46.3400 N.am  169  ASN169     -0.0877
     90  N        -63.1790  -14.3220  -44.3450 N.3   234  TRP234     -0.1241
     91  CA       -64.1010  -13.5280  -45.1530 C.3   234  TRP234      0.1605
     92  C        -63.7730  -13.5280  -46.6500 C.2   234  TRP234      0.2264
     93  O        -64.5700  -13.0650  -47.4810 O.2   234  TRP234     -0.2867
     94  CB       -64.1950  -12.1070  -44.6030 C.3   234  TRP234      0.0550
     95  CG       -64.8570  -12.0640  -43.2630 C.ar  234  TRP234      0.0003
     96  CD1      -64.2490  -12.1180  -42.0440 C.ar  234  TRP234      0.0946
     97  CD2      -66.2630  -11.9770  -43.0080 C.ar  234  TRP234      0.0152
     98  NE1      -65.1900  -12.0590  -41.0440 N.ar  234  TRP234     -0.2442
     99  CE2      -66.4350  -11.9720  -41.6100 C.ar  234  TRP234      0.0810
    100  CE3      -67.3920  -11.8980  -43.8250 C.ar  234  TRP234      0.0012
    101  CZ2      -67.6920  -11.8930  -41.0130 C.ar  234  TRP234      0.0191
    102  CZ3      -68.6340  -11.8180  -43.2320 C.ar  234  TRP234      0.0001
    103  CH2      -68.7760  -11.8170  -41.8400 C.ar  234  TRP234      0.0015
    104  N        -66.2340  -15.7260  -48.9710 N.3   237  LEU237     -0.1231
    105  CA       -67.5010  -15.0250  -49.1300 C.3   237  LEU237      0.1693
    106  C        -67.3640  -13.8590  -50.0970 C.2   237  LEU237      0.2592
    107  O        -68.1820  -13.6930  -51.0040 O.2   237  LEU237     -0.2718
    108  CB       -68.0180  -14.5320  -47.7780 C.3   237  LEU237      0.0284
    109  CG       -69.3450  -13.7720  -47.7810 C.3   237  LEU237      0.0019
    110  CD1      -70.0440  -13.9170  -46.4370 C.3   237  LEU237      0.0001
    111  CD2      -69.1250  -12.3090  -48.1290 C.3   237  LEU237      0.0001
    112  N        -66.3290  -13.0480  -49.9020 N.am  238  HIS238     -0.1976
    113  CA       -66.1230  -11.9010  -50.7760 C.3   238  HIS238      0.1656
    114  C        -65.7400  -12.2960  -52.2030 C.2   238  HIS238      0.2291
    115  O        -65.8900  -11.5010  -53.1290 O.2   238  HIS238     -0.2864
    116  CB       -65.0950  -10.9440  -50.1800 C.3   238  HIS238      0.0771
    117  CG       -65.6610  -10.0200  -49.1590 C.ar  238  HIS238      0.0820
    118  ND1      -65.6620  -10.3070  -47.8000 N.ar  238  HIS238     -0.2267
    119  CD2      -66.2610   -8.8130  -49.2710 C.ar  238  HIS238      0.1154
    120  CE1      -66.2240   -9.3230  -47.1430 C.ar  238  HIS238      0.1986
    121  NE2      -66.6020   -8.3920  -48.0140 N.ar  238  HIS238     -0.2212
    122  N        -69.4850  -13.3060  -53.6130 N.3   241  ASN241     -0.1240
    123  CA       -70.1330  -12.0430  -53.9450 C.3   241  ASN241      0.1653
    124  C        -69.3810  -11.3430  -55.0610 C.2   241  ASN241      0.2266
    125  O        -69.9750  -10.7180  -55.9420 O.2   241  ASN241     -0.2867
    126  CB       -70.1820  -11.1210  -52.7280 C.3   241  ASN241      0.1155
    127  CG       -71.1280  -11.6140  -51.6600 C.2   241  ASN241      0.2627
    128  OD1      -71.4350  -12.8040  -51.5830 O.2   241  ASN241     -0.2716
    129  ND2      -71.5990  -10.6950  -50.8250 N.am  241  ASN241     -0.0877
    130  N        -74.7710  -17.8480  -60.6950 N.3   252  HIS252     -0.1226
    131  CA       -74.7740  -17.6090  -59.2460 C.3   252  HIS252      0.1752
    132  C        -74.2890  -18.8300  -58.4580 C.2   252  HIS252      0.2596
    133  O        -74.0680  -19.9000  -59.0280 O.2   252  HIS252     -0.2718
    134  CB       -76.1830  -17.2210  -58.7760 C.3   252  HIS252      0.0759
    135  CG       -76.3040  -17.0420  -57.2920 C.ar  252  HIS252      0.0818
    136  ND1      -75.6810  -16.0170  -56.6130 N.ar  252  HIS252     -0.2268
    137  CD2      -76.9720  -17.7600  -56.3580 C.ar  252  HIS252      0.1154
    138  CE1      -75.9600  -16.1110  -55.3260 C.ar  252  HIS252      0.1986
    139  NE2      -76.7420  -17.1600  -55.1430 N.ar  252  HIS252     -0.2212
    140  N        -74.1410  -18.6590  -57.1450 N.am  253  ALA253     -0.1966
    141  CA       -73.6810  -19.7230  -56.2490 C.3   253  ALA253      0.1713
    142  C        -74.8090  -20.5380  -55.6060 C.2   253  ALA253      0.2458
    143  O        -75.8880  -20.0120  -55.3250 O.2   253  ALA253     -0.2730
    144  CB       -72.7460  -19.1610  -55.1770 C.3   253  ALA253      0.0333
    145  N        -74.5420  -21.8290  -55.3670 N.am  254  PRO254     -0.2716
    146  CA       -75.4620  -22.8310  -54.8080 C.3   254  PRO254      0.1536
    147  C        -75.9400  -22.5340  -53.3850 C.2   254  PRO254      0.2598
    148  O        -75.6310  -21.4870  -52.8220 O.2   254  PRO254     -0.2715
    149  CB       -74.6210  -24.1070  -54.7630 C.3   254  PRO254      0.0310
    150  CG       -73.4170  -23.8630  -55.5560 C.3   254  PRO254      0.0237
    151  CD       -73.3310  -22.4300  -55.9510 C.3   254  PRO254      0.0939
    152  N        -76.7290  -23.4550  -52.8350 N.am  255  LEU255     -0.1978
    153  CA       -77.0760  -23.4550  -51.4160 C.3   255  LEU255      0.1596
    154  C        -75.9360  -24.1060  -50.6370 C.2   255  LEU255      0.2287
    155  O        -75.4970  -23.5990  -49.5960 O.2   255  LEU255     -0.2864
    156  CB       -78.3780  -24.2420  -51.1880 C.3   255  LEU255      0.0297
    157  CG       -79.0950  -24.2010  -49.8310 C.3   255  LEU255      0.0022
    158  CD1      -79.7660  -22.8550  -49.6530 C.3   255  LEU255      0.0001
    159  CD2      -80.1230  -25.3270  -49.6880 C.3   255  LEU255      0.0001
    160  N        -72.6660  -21.6240  -51.0080 N.3   258  MET258     -0.1230
    161  CA       -72.9860  -20.2920  -50.5060 C.3   258  MET258      0.1702
    162  C        -73.3330  -20.2830  -49.0200 C.2   258  MET258      0.2592
    163  O        -73.1270  -19.2780  -48.3390 O.2   258  MET258     -0.2718
    164  CB       -74.1580  -19.7060  -51.2930 C.3   258  MET258      0.0401
    165  CG       -74.6400  -18.3560  -50.8020 C.3   258  MET258      0.0596
    166  SD       -73.6730  -16.9990  -51.4820 S.3   258  MET258     -0.1393
    167  CE       -74.5190  -15.5970  -50.7580 C.3   258  MET258      0.0692
    168  N        -73.8510  -21.3930  -48.5060 N.am  259  TYR259     -0.1976
    169  CA       -74.2070  -21.4200  -47.0920 C.3   259  TYR259      0.1639
    170  C        -73.0010  -21.7200  -46.2000 C.2   259  TYR259      0.2290
    171  O        -73.1240  -21.8360  -44.9780 O.2   259  TYR259     -0.2864
    172  CB       -75.3840  -22.3590  -46.8240 C.3   259  TYR259      0.0560
    173  CG       -76.6200  -21.6050  -46.3920 C.ar  259  TYR259     -0.0198
    174  CD1      -76.9120  -20.3580  -46.9290 C.ar  259  TYR259     -0.0009
    175  CD2      -77.4890  -22.1300  -45.4480 C.ar  259  TYR259     -0.0009
    176  CE1      -78.0330  -19.6550  -46.5390 C.ar  259  TYR259      0.0417
    177  CE2      -78.6160  -21.4330  -45.0510 C.ar  259  TYR259      0.0417
    178  CZ       -78.8810  -20.1960  -45.5990 C.ar  259  TYR259      0.1957
    179  OH       -80.0000  -19.4980  -45.2070 O.3   259  TYR259     -0.2866
    180  N        -70.9990  -17.8600  -45.0150 N.3   262  ILE262     -0.1245
    181  CA       -71.6820  -17.3460  -43.8300 C.3   262  ILE262      0.1561
    182  C        -71.1890  -18.0610  -42.5530 C.2   262  ILE262      0.2260
    183  O        -70.7080  -17.4160  -41.6140 O.2   262  ILE262     -0.2867
    184  CB       -73.2310  -17.4400  -43.9750 C.3   262  ILE262      0.0252
    185  CG1      -73.9290  -16.6470  -42.8670 C.3   262  ILE262      0.0019
    186  CG2      -73.7000  -18.8940  -44.0110 C.3   262  ILE262      0.0019
    187  CD1      -73.5570  -15.1670  -42.8410 C.3   262  ILE262      0.0001
@<TRIPOS>BOND
     1   130   131    1
     2   131   134    1
     3   131   132    1
     4   133   132    2
     5   134   135    1
     6   132   140   am
     7   135   136   ar
     8   135   137   ar
     9   140   141    1
    10    73    72    1
    11   136   138   ar
    12   137   139   ar
    13   141   142    1
    14   141   144    1
    15   151   150    1
    16   151   145    1
    17   125   124    2
    18   142   145   am
    19   142   143    2
    20   150   149    1
    21   145   146    1
    22    72    71    1
    23   138   139   ar
    24   124   123    1
    25    69    68    2
    26    70    71    1
    27    70    67    1
    28    68    67    1
    29   146   149    1
    30   146   147    1
    31    57    56   ar
    32    67    66    1
    33   123   122    1
    34   123   126    1
    35    56    55    1
    36    56    58   ar
    37   147   152   am
    38   147   148    2
    39    55    54    1
    40   115   114    2
    41   152   153    1
    42   126   127    1
    43    53    52    2
    44   114   113    1
    45    52    51    1
    46    54    51    1
    47    62    61    2
    48   127   128    2
    49   127   129   am
    50    76    77    2
    51    76    75    1
    52   166   165    1
    53   166   167    1
    54   153   156    1
    55   153   154    1
    56   164   165    1
    57   164   161    1
    58    74    75    1
    59    51    50    1
    60   156   157    1
    61   160   161    1
    62   107   106    2
    63    61    60    1
    64    78    75    1
    65    78    79    1
    66   113   116    1
    67   113   112    1
    68   154   155    2
    69   161   162    1
    70   116   117    1
    71   106   112   am
    72   106   105    1
    73    79    80    1
    74   157   159    1
    75   157   158    1
    76    50    41   am
    77    59    60    1
    78    64    63    1
    79    60    63    1
    80    42    41    2
    81    82    83    1
    82   119   117   ar
    83   119   121   ar
    84   117   118   ar
    85   105   104    1
    86   105   108    1
    87    41    40    1
    88   162   168   am
    89   162   163    2
    90    84    83    1
    91    84    85    2
    92    63    65    1
    93   168   169    1
    94    83    86    1
    95    34    33    2
    96    81    80    1
    97    86    87    1
    98   111   109    1
    99   121   120   ar
   100    46    48   ar
   101    46    44   ar
   102   118   120   ar
   103    48    49   ar
   104   109   108    1
   105   109   110    1
   106    38    36    1
   107    35    32    1
   108    35    36    1
   109    40    39    1
   110    40    43    1
   111    33    39   am
   112    33    32    1
   113    93    92    2
   114   169   172    1
   115   169   170    1
   116    43    44    1
   117    44    45   ar
   118   174   176   ar
   119   174   173   ar
   120   172   173    1
   121    32    31    1
   122    36    37    1
   123    87    89   am
   124    87    88    2
   125    49    47   ar
   126    92    91    1
   127   176   178   ar
   128   173   175   ar
   129   170   171    2
   130    45    47   ar
   131   178   179    1
   132   178   177   ar
   133   175   177   ar
   134    91    94    1
   135    91    90    1
   136   180   181    1
   137    94    95    1
   138    22    21    1
   139     4     3    2
   140   186   184    1
   141   184   181    1
   142   184   185    1
   143   181   182    1
   144   100   102   ar
   145   100    97   ar
   146     7     5    1
   147    23    21    1
   148    21    20    1
   149    95    97   ar
   150    95    96   ar
   151   102   103   ar
   152    97    99   ar
   153     3     2    1
   154   185   187    1
   155   182   183    2
   156     5     2    1
   157     5     6    1
   158    96    98   ar
   159     2     1    1
   160    20    17    1
   161   103   101   ar
   162    99    98   ar
   163    99   101   ar
   164     6     8    1
   165    30    28    1
   166    17    16    1
   167    17    18    1
   168    15    13    1
   169    28    29    1
   170    28    25    1
   171    19    18    2
   172    16    11   am
   173    11    12    2
   174    11    10    1
   175    26    27    2
   176    26    25    1
   177    25    24    1
   178    13    14    1
   179    13    10    1
   180    10     9    1
