@<TRIPOS>MOLECULE
tmp/3vg9A05.pdb
 99 96 0 0 0
SMALL
GASTEIGER

@<TRIPOS>ATOM
      1  N        -55.7270   -3.8680  -25.0010 N.3    38  TYR38      -0.1241
      2  CA       -57.0020   -3.1630  -25.0720 C.3    38  TYR38       0.1605
      3  C        -57.5870   -3.3530  -26.4640 C.2    38  TYR38       0.2264
      4  O        -58.7760   -3.6290  -26.6030 O.2    38  TYR38      -0.2867
      5  CB       -56.8650   -1.6790  -24.7390 C.3    38  TYR38       0.0534
      6  CG       -56.2850   -1.4310  -23.3730 C.ar   38  TYR38      -0.0201
      7  CD1      -56.1170   -2.4770  -22.4710 C.ar   38  TYR38      -0.0009
      8  CD2      -55.9000   -0.1560  -22.9810 C.ar   38  TYR38      -0.0009
      9  CE1      -55.5760   -2.2620  -21.2160 C.ar   38  TYR38       0.0417
     10  CE2      -55.3550    0.0710  -21.7280 C.ar   38  TYR38       0.0417
     11  CZ       -55.1960   -0.9860  -20.8490 C.ar   38  TYR38       0.1957
     12  OH       -54.6580   -0.7660  -19.6010 O.3    38  TYR38      -0.2866
     13  N        -58.8310   -6.7410  -26.5600 N.3    41  VAL41      -0.1231
     14  CA       -60.0980   -6.8160  -25.8410 C.3    41  VAL41       0.1692
     15  C        -61.2440   -6.3070  -26.7180 C.2    41  VAL41       0.2592
     16  O        -62.3550   -6.8340  -26.6720 O.2    41  VAL41      -0.2718
     17  CB       -60.0370   -6.0560  -24.4930 C.3    41  VAL41       0.0266
     18  CG1      -61.3030   -5.2600  -24.2570 C.3    41  VAL41       0.0020
     19  CG2      -59.8010   -7.0260  -23.3520 C.3    41  VAL41       0.0020
     20  N        -60.9620   -5.2900  -27.5280 N.am   42  SER42      -0.1952
     21  CA       -61.9280   -4.7970  -28.5040 C.3    42  SER42       0.1924
     22  C        -62.3070   -5.9240  -29.4530 C.2    42  SER42       0.2314
     23  O        -63.4900   -6.1300  -29.7590 O.2    42  SER42      -0.2863
     24  CB       -61.3470   -3.6230  -29.2950 C.3    42  SER42       0.2116
     25  OG       -62.2170   -3.2290  -30.3450 O.3    42  SER42      -0.2180
     26  N        -64.5890   -8.4670  -27.5700 N.3    45  ALA45      -0.1245
     27  CA       -65.9560   -7.9790  -27.4100 C.3    45  ALA45       0.1562
     28  C        -66.7210   -8.0140  -28.7330 C.2    45  ALA45       0.2260
     29  O        -67.8260   -8.5660  -28.8150 O.2    45  ALA45      -0.2867
     30  CB       -65.9540   -6.5760  -26.8200 C.3    45  ALA45       0.0290
     31  N        -81.2950   -3.6910  -40.3690 N.3    74  PHE74      -0.1241
     32  CA       -80.4590   -3.9520  -39.1970 C.3    74  PHE74       0.1605
     33  C        -80.0530   -5.4200  -39.1100 C.2    74  PHE74       0.2264
     34  O        -78.8690   -5.7600  -39.1870 O.2    74  PHE74      -0.2867
     35  CB       -81.1710   -3.5550  -37.8980 C.3    74  PHE74       0.0534
     36  CG       -80.3990   -3.9200  -36.6490 C.ar   74  PHE74      -0.0203
     37  CD1      -79.7800   -2.9450  -35.8810 C.ar   74  PHE74      -0.0042
     38  CD2      -80.2810   -5.2400  -36.2500 C.ar   74  PHE74      -0.0042
     39  CE1      -79.0640   -3.2820  -34.7360 C.ar   74  PHE74      -0.0003
     40  CE2      -79.5670   -5.5780  -35.1140 C.ar   74  PHE74      -0.0003
     41  CZ       -78.9610   -4.6030  -34.3560 C.ar   74  PHE74      -0.0000
     42  N        -75.6520   -6.2790  -39.6340 N.3    78  PHE78      -0.1241
     43  CA       -75.1630   -5.8850  -38.3150 C.3    78  PHE78       0.1605
     44  C        -73.7300   -6.3740  -38.2140 C.2    78  PHE78       0.2264
     45  O        -72.8080   -5.6080  -37.9560 O.2    78  PHE78      -0.2867
     46  CB       -76.0060   -6.4480  -37.1760 C.3    78  PHE78       0.0534
     47  CG       -75.5120   -6.0390  -35.8140 C.ar   78  PHE78      -0.0203
     48  CD1      -75.2070   -4.7130  -35.5460 C.ar   78  PHE78      -0.0042
     49  CD2      -75.3410   -6.9750  -34.8060 C.ar   78  PHE78      -0.0042
     50  CE1      -74.7430   -4.3240  -34.2980 C.ar   78  PHE78      -0.0003
     51  CE2      -74.8790   -6.5910  -33.5540 C.ar   78  PHE78      -0.0003
     52  CZ       -74.5820   -5.2640  -33.3010 C.ar   78  PHE78      -0.0000
     53  N        -57.8380    4.3570  -25.7290 N.3   117  LYS117     -0.1245
     54  CA       -59.2500    4.6330  -25.4750 C.3   117  LYS117      0.1561
     55  C        -59.8640    5.3500  -26.6750 C.2   117  LYS117      0.2260
     56  O        -60.7890    4.8380  -27.3190 O.2   117  LYS117     -0.2867
     57  CB       -59.4210    5.5010  -24.2210 C.3   117  LYS117      0.0271
     58  CG       -58.9140    4.8930  -22.9230 C.3   117  LYS117      0.0035
     59  CD       -59.0370    5.9010  -21.7850 C.3   117  LYS117      0.0206
     60  CE       -58.2960    5.4430  -20.5290 C.3   117  LYS117      0.1093
     61  NZ       -58.1790    6.5300  -19.5070 N.3   117  LYS117     -0.1314
     62  N        -60.1150    3.6110  -30.0190 N.3   120  ILE120     -0.1231
     63  CA       -61.1010    2.5330  -29.9410 C.3   120  ILE120      0.1692
     64  C        -62.5290    3.0590  -30.0740 C.2   120  ILE120      0.2591
     65  O        -63.3150    2.5490  -30.8790 O.2   120  ILE120     -0.2718
     66  CB       -60.9650    1.7310  -28.6320 C.3   120  ILE120      0.0266
     67  CG1      -59.6000    1.0410  -28.5710 C.3   120  ILE120      0.0019
     68  CG2      -62.0840    0.7070  -28.5240 C.3   120  ILE120      0.0020
     69  CD1      -59.2530    0.4970  -27.2040 C.3   120  ILE120      0.0001
     70  N        -62.8560    4.0720  -29.2720 N.am  121  ALA121     -0.1980
     71  CA       -64.1390    4.7760  -29.3680 C.3   121  ALA121      0.1597
     72  C        -64.4420    5.1900  -30.8130 C.2   121  ALA121      0.2287
     73  O        -65.4490    4.7650  -31.4170 O.2   121  ALA121     -0.2864
     74  CB       -64.1400    5.9950  -28.4520 C.3   121  ALA121      0.0319
     75  N        -65.1420    2.4100  -33.1590 N.3   124  TRP124     -0.1241
     76  CA       -66.4980    1.8750  -33.0420 C.3   124  TRP124      0.1605
     77  C        -67.4940    2.7630  -33.7850 C.2   124  TRP124      0.2264
     78  O        -68.2940    2.2810  -34.5980 O.2   124  TRP124     -0.2867
     79  CB       -66.9060    1.7050  -31.5800 C.3   124  TRP124      0.0550
     80  CG       -66.3130    0.4890  -30.9620 C.ar  124  TRP124      0.0003
     81  CD1      -65.2680    0.4380  -30.0880 C.ar  124  TRP124      0.0946
     82  CD2      -66.7120   -0.8670  -31.1900 C.ar  124  TRP124      0.0152
     83  NE1      -64.9990   -0.8650  -29.7460 N.ar  124  TRP124     -0.2442
     84  CE2      -65.8710   -1.6860  -30.4100 C.ar  124  TRP124      0.0810
     85  CE3      -67.6990   -1.4670  -31.9740 C.ar  124  TRP124      0.0012
     86  CZ2      -65.9900   -3.0740  -30.3900 C.ar  124  TRP124      0.0191
     87  CZ3      -67.8150   -2.8460  -31.9530 C.ar  124  TRP124      0.0001
     88  CH2      -66.9640   -3.6340  -31.1660 C.ar  124  TRP124      0.0015
     89  N        -69.7230    1.7670  -37.1010 N.3   128  PHE128     -0.1241
     90  CA       -71.1620    1.9330  -37.3170 C.3   128  PHE128      0.1605
     91  C        -71.4680    2.7080  -38.5960 C.2   128  PHE128      0.2264
     92  O        -72.1330    2.1970  -39.5000 O.2   128  PHE128     -0.2867
     93  CB       -71.8370    2.5970  -36.1160 C.3   128  PHE128      0.0534
     94  CG       -72.2980    1.6230  -35.0760 C.ar  128  PHE128     -0.0203
     95  CD1      -72.0830    0.2690  -35.2410 C.ar  128  PHE128     -0.0042
     96  CD2      -72.9580    2.0570  -33.9420 C.ar  128  PHE128     -0.0042
     97  CE1      -72.5030   -0.6380  -34.2940 C.ar  128  PHE128     -0.0003
     98  CE2      -73.3850    1.1540  -32.9890 C.ar  128  PHE128     -0.0003
     99  CZ       -73.1560   -0.1970  -33.1670 C.ar  128  PHE128     -0.0000
@<TRIPOS>BOND
     1    31    32    1
     2    42    43    1
     3    92    91    2
     4    32    33    1
     5    32    35    1
     6    34    33    2
     7    91    90    1
     8    43    44    1
     9    43    46    1
    10    44    45    2
    11    35    36    1
    12    90    89    1
    13    90    93    1
    14    46    47    1
    15    36    38   ar
    16    36    37   ar
    17    38    40   ar
    18    93    94    1
    19    37    39   ar
    20    47    48   ar
    21    47    49   ar
    22    48    50   ar
    23    95    94   ar
    24    95    97   ar
    25    40    41   ar
    26    94    96   ar
    27    49    51   ar
    28    39    41   ar
    29    78    77    2
    30    50    52   ar
    31    97    99   ar
    32    96    98   ar
    33    77    76    1
    34    51    52   ar
    35    99    98   ar
    36    75    76    1
    37    76    79    1
    38    85    87   ar
    39    85    82   ar
    40    87    88   ar
    41    79    80    1
    42    73    72    2
    43    82    80   ar
    44    82    84   ar
    45    88    86   ar
    46    80    81   ar
    47    65    64    2
    48    72    71    1
    49    84    86   ar
    50    84    83   ar
    51    25    24    1
    52    81    83   ar
    53    64    63    1
    54    64    70   am
    55    62    63    1
    56    63    66    1
    57    23    22    2
    58    22    21    1
    59    71    70    1
    60    71    74    1
    61    24    21    1
    62    29    28    2
    63    28    27    1
    64    66    67    1
    65    66    68    1
    66    67    69    1
    67    21    20    1
    68    26    27    1
    69    20    15   am
    70    27    30    1
    71    56    55    2
    72    15    16    2
    73    15    14    1
    74    55    54    1
    75     4     3    2
    76    13    14    1
    77     3     2    1
    78    14    17    1
    79    53    54    1
    80    54    57    1
    81     2     1    1
    82     2     5    1
    83     5     6    1
    84    17    18    1
    85    17    19    1
    86    57    58    1
    87     6     8   ar
    88     6     7   ar
    89     8    10   ar
    90    58    59    1
    91     7     9   ar
    92    59    60    1
    93    10    11   ar
    94     9    11   ar
    95    11    12    1
    96    60    61    1
