@<TRIPOS>MOLECULE
tmp/3vg9A03.pdb
 130 121 0 0 0
SMALL
GASTEIGER

@<TRIPOS>ATOM
      1  N        -60.2060   -5.1010  -48.1150 N.3   175  LEU175     -0.1245
      2  CA       -58.9940   -5.4520  -48.8490 C.3   175  LEU175      0.1561
      3  C        -57.8470   -4.4570  -48.6180 C.2   175  LEU175      0.2260
      4  O        -56.6930   -4.8590  -48.4730 O.2   175  LEU175     -0.2867
      5  CB       -59.2970   -5.5760  -50.3460 C.3   175  LEU175      0.0270
      6  CG       -58.4400   -6.5380  -51.1710 C.3   175  LEU175      0.0019
      7  CD1      -58.7510   -7.9860  -50.8100 C.3   175  LEU175      0.0001
      8  CD2      -58.6630   -6.2990  -52.6560 C.3   175  LEU175      0.0001
      9  N        -56.5580   -4.6610  -44.8400 N.3   178  LEU178     -0.1231
     10  CA       -55.9260   -5.9720  -44.7990 C.3   178  LEU178      0.1693
     11  C        -54.5820   -5.9260  -45.5140 C.2   178  LEU178      0.2591
     12  O        -53.6050   -6.5430  -45.0850 O.2   178  LEU178     -0.2718
     13  CB       -56.8180   -7.0030  -45.4850 C.3   178  LEU178      0.0284
     14  CG       -56.6180   -8.4650  -45.0900 C.3   178  LEU178      0.0019
     15  CD1      -57.2580   -8.7260  -43.7350 C.3   178  LEU178      0.0001
     16  CD2      -57.1980   -9.3950  -46.1460 C.3   178  LEU178      0.0001
     17  N        -54.5320   -5.1870  -46.6140 N.am  179  LEU179     -0.1980
     18  CA       -53.3390   -5.1910  -47.4500 C.3   179  LEU179      0.1596
     19  C        -52.1910   -4.3500  -46.8930 C.2   179  LEU179      0.2287
     20  O        -51.0550   -4.8250  -46.8360 O.2   179  LEU179     -0.2864
     21  CB       -53.6610   -4.8320  -48.9070 C.3   179  LEU179      0.0297
     22  CG       -53.2080   -5.9460  -49.8560 C.3   179  LEU179      0.0022
     23  CD1      -53.6270   -7.2750  -49.2680 C.3   179  LEU179      0.0001
     24  CD2      -53.7450   -5.7960  -51.2760 C.3   179  LEU179      0.0001
     25  N        -50.8190   -6.4120  -44.1690 N.3   182  LEU182     -0.1245
     26  CA       -49.8340   -7.3590  -44.6830 C.3   182  LEU182      0.1561
     27  C        -48.5050   -6.6400  -44.9180 C.2   182  LEU182      0.2260
     28  O        -47.4200   -7.2040  -44.7120 O.2   182  LEU182     -0.2867
     29  CB       -50.3330   -7.9660  -45.9960 C.3   182  LEU182      0.0270
     30  CG       -49.3940   -8.8710  -46.7980 C.3   182  LEU182      0.0019
     31  CD1      -49.3720  -10.2700  -46.2110 C.3   182  LEU182      0.0001
     32  CD2      -49.8210   -8.9100  -48.2610 C.3   182  LEU182      0.0001
     33  N        -46.7960   -5.5760  -41.4900 N.3   185  TYR185     -0.1227
     34  CA       -46.2580   -6.7940  -40.9030 C.3   185  TYR185      0.1736
     35  C        -44.9960   -7.2980  -41.6140 C.2   185  TYR185      0.2595
     36  O        -43.9730   -7.5560  -40.9680 O.2   185  TYR185     -0.2718
     37  CB       -47.3360   -7.8760  -40.8080 C.3   185  TYR185      0.0548
     38  CG       -48.1290   -7.7940  -39.5250 C.ar  185  TYR185     -0.0200
     39  CD1      -47.4860   -7.7480  -38.2990 C.ar  185  TYR185     -0.0009
     40  CD2      -49.5120   -7.7360  -39.5370 C.ar  185  TYR185     -0.0009
     41  CE1      -48.1980   -7.6660  -37.1230 C.ar  185  TYR185      0.0417
     42  CE2      -50.2330   -7.6530  -38.3610 C.ar  185  TYR185      0.0417
     43  CZ       -49.5680   -7.6190  -37.1570 C.ar  185  TYR185      0.1957
     44  OH       -50.2700   -7.5350  -35.9800 O.3   185  TYR185     -0.2866
     45  N        -45.0530   -7.4240  -42.9380 N.am  186  LEU186     -0.1980
     46  CA       -43.8760   -7.8840  -43.6720 C.3   186  LEU186      0.1596
     47  C        -42.6940   -6.9360  -43.4790 C.2   186  LEU186      0.2287
     48  O        -41.5380   -7.3640  -43.4780 O.2   186  LEU186     -0.2864
     49  CB       -44.1840   -8.0800  -45.1600 C.3   186  LEU186      0.0297
     50  CG       -45.1300   -9.2410  -45.4880 C.3   186  LEU186      0.0022
     51  CD1      -45.3910   -9.3280  -46.9830 C.3   186  LEU186      0.0001
     52  CD2      -44.5840  -10.5630  -44.9600 C.3   186  LEU186      0.0001
     53  N        -41.1750   -7.7080  -40.1100 N.3   189  PHE189     -0.1241
     54  CA       -40.4260   -8.9590  -40.1780 C.3   189  PHE189      0.1605
     55  C        -39.0930   -8.8270  -40.9130 C.2   189  PHE189      0.2264
     56  O        -38.0440   -9.1940  -40.3780 O.2   189  PHE189     -0.2867
     57  CB       -41.2780  -10.0620  -40.8000 C.3   189  PHE189      0.0534
     58  CG       -42.5620  -10.3180  -40.0630 C.ar  189  PHE189     -0.0203
     59  CD1      -42.7230   -9.8830  -38.7570 C.ar  189  PHE189     -0.0042
     60  CD2      -43.6090  -10.9870  -40.6760 C.ar  189  PHE189     -0.0042
     61  CE1      -43.9020  -10.1120  -38.0730 C.ar  189  PHE189     -0.0003
     62  CE2      -44.7920  -11.2220  -39.9970 C.ar  189  PHE189     -0.0003
     63  CZ       -44.9380  -10.7820  -38.6930 C.ar  189  PHE189     -0.0000
     64  N        -41.5790  -12.7420  -32.6340 N.3   218  HIS218     -0.1241
     65  CA       -42.3750  -13.9640  -32.5690 C.3   218  HIS218      0.1621
     66  C        -43.7980  -13.6160  -32.1500 C.2   218  HIS218      0.2264
     67  O        -44.7710  -14.1200  -32.7180 O.2   218  HIS218     -0.2867
     68  CB       -41.7600  -14.9560  -31.5750 C.3   218  HIS218      0.0745
     69  CG       -42.5240  -16.2410  -31.4420 C.ar  218  HIS218      0.0817
     70  ND1      -42.4830  -17.2350  -32.3980 N.ar  218  HIS218     -0.2268
     71  CD2      -43.3430  -16.6940  -30.4630 C.ar  218  HIS218      0.1154
     72  CE1      -43.2440  -18.2440  -32.0120 C.ar  218  HIS218      0.1986
     73  NE2      -43.7760  -17.9430  -30.8420 N.ar  218  HIS218     -0.2212
     74  N        -45.6220  -12.1210  -35.0450 N.3   221  LYS221     -0.1245
     75  CA       -46.0780  -13.1490  -35.9730 C.3   221  LYS221      0.1561
     76  C        -47.3320  -13.8430  -35.4490 C.2   221  LYS221      0.2260
     77  O        -48.2790  -14.0850  -36.2030 O.2   221  LYS221     -0.2867
     78  CB       -44.9740  -14.1640  -36.2560 C.3   221  LYS221      0.0271
     79  CG       -43.7850  -13.5860  -37.0050 C.3   221  LYS221      0.0035
     80  CD       -42.6820  -14.6200  -37.1590 C.3   221  LYS221      0.0206
     81  CE       -41.4170  -14.0000  -37.7170 C.3   221  LYS221      0.1093
     82  NZ       -40.2240  -14.8270  -37.3860 N.3   221  LYS221     -0.1314
     83  N        -50.1090  -11.5790  -36.2360 N.3   224  ALA224     -0.1231
     84  CA       -50.3730  -11.4670  -37.6670 C.3   224  ALA224      0.1694
     85  C        -51.0810  -12.7120  -38.2080 C.2   224  ALA224      0.2591
     86  O        -51.7860  -12.6570  -39.2220 O.2   224  ALA224     -0.2718
     87  CB       -49.0750  -11.2160  -38.4200 C.3   224  ALA224      0.0304
     88  N        -50.8870  -13.8360  -37.5290 N.am  225  ILE225     -0.1980
     89  CA       -51.6160  -15.0510  -37.8660 C.3   225  ILE225      0.1595
     90  C        -53.1200  -14.8360  -37.7180 C.2   225  ILE225      0.2287
     91  O        -53.9030  -15.3150  -38.5390 O.2   225  ILE225     -0.2864
     92  CB       -51.1700  -16.2320  -36.9960 C.3   225  ILE225      0.0276
     93  CG1      -49.8260  -16.7750  -37.4970 C.3   225  ILE225      0.0022
     94  CG2      -52.2270  -17.3140  -36.9960 C.3   225  ILE225      0.0022
     95  CD1      -49.2320  -17.8810  -36.6370 C.3   225  ILE225      0.0001
     96  N        -54.7370  -12.1060  -38.2900 N.3   227  VAL227     -0.1231
     97  CA       -55.1040  -11.4380  -39.5340 C.3   227  VAL227      0.1692
     98  C        -55.2320  -12.4550  -40.6640 C.2   227  VAL227      0.2592
     99  O        -56.2520  -12.5040  -41.3600 O.2   227  VAL227     -0.2718
    100  CB       -54.0640  -10.3700  -39.9340 C.3   227  VAL227      0.0266
    101  CG1      -54.2760   -9.9300  -41.3720 C.3   227  VAL227      0.0020
    102  CG2      -54.1290   -9.1800  -38.9930 C.3   227  VAL227      0.0020
    103  N        -54.1940  -13.2690  -40.8370 N.am  228  GLY228     -0.1957
    104  CA       -54.2000  -14.3040  -41.8580 C.3   228  GLY228      0.1869
    105  C        -55.4560  -15.1600  -41.8480 C.2   228  GLY228      0.2309
    106  O        -56.0240  -15.4530  -42.9010 O.2   228  GLY228     -0.2863
    107  N        -58.6190  -13.1830  -42.9190 N.3   231  ALA231     -0.1245
    108  CA       -58.6260  -13.2030  -44.3780 C.3   231  ALA231      0.1562
    109  C        -59.1140  -14.5410  -44.9130 C.2   231  ALA231      0.2260
    110  O        -60.0200  -14.5920  -45.7470 O.2   231  ALA231     -0.2867
    111  CB       -57.2370  -12.8980  -44.9180 C.3   231  ALA231      0.0290
    112  N        -62.6100  -14.0740  -46.9910 N.3   235  LEU235     -0.1245
    113  CA       -62.1630  -14.0960  -48.3780 C.3   235  LEU235      0.1561
    114  C        -63.0540  -14.9380  -49.2980 C.2   235  LEU235      0.2260
    115  O        -63.4190  -14.4840  -50.3770 O.2   235  LEU235     -0.2867
    116  CB       -60.7110  -14.5590  -48.4810 C.3   235  LEU235      0.0270
    117  CG       -60.1250  -14.3860  -49.8810 C.3   235  LEU235      0.0019
    118  CD1      -59.2600  -13.1350  -49.9340 C.3   235  LEU235      0.0001
    119  CD2      -59.3370  -15.6210  -50.2970 C.3   235  LEU235      0.0001
    120  N        -50.3790  -20.0250  -29.2910 N.3   279  ARG279     -0.1245
    121  CA       -49.1920  -19.2190  -29.5830 C.3   279  ARG279      0.1563
    122  C        -48.6410  -18.3310  -28.4490 C.2   279  ARG279      0.2260
    123  O        -47.5040  -17.8660  -28.5380 O.2   279  ARG279     -0.2867
    124  CB       -49.4570  -18.3490  -30.8160 C.3   279  ARG279      0.0307
    125  CG       -49.7040  -19.1340  -32.0880 C.3   279  ARG279      0.0489
    126  CD       -48.4160  -19.6450  -32.7070 C.3   279  ARG279      0.2205
    127  NE       -47.5490  -18.5560  -33.1470 N.pl3 279  ARG279     -0.0865
    128  CZ       -46.4670  -18.7220  -33.9010 C.cat 279  ARG279      0.5346
    129  NH1      -46.1230  -19.9340  -34.3080 N.pl3 279  ARG279      0.1354
    130  NH2      -45.7330  -17.6770  -34.2540 N.pl3 279  ARG279      0.1354
@<TRIPOS>BOND
     1     8     6    1
     2    24    22    1
     3     6     7    1
     4     6     5    1
     5   115   114    2
     6     5     2    1
     7   119   117    1
     8   118   117    1
     9   117   116    1
    10    22    23    1
    11    22    21    1
    12   114   113    1
    13    21    18    1
    14     2     3    1
    15     2     1    1
    16     3     4    2
    17   116   113    1
    18   113   112    1
    19    32    30    1
    20    18    19    1
    21    18    17    1
    22    51    50    1
    23    19    20    2
    24    30    31    1
    25    30    29    1
    26    17    11   am
    27    16    14    1
    28    29    26    1
    29   110   109    2
    30    11    12    2
    31    11    10    1
    32    50    49    1
    33    50    52    1
    34    13    14    1
    35    13    10    1
    36    49    46    1
    37    14    15    1
    38   111   108    1
    39    27    28    2
    40    27    26    1
    41   109   108    1
    42     9    10    1
    43    26    25    1
    44   108   107    1
    45    46    47    1
    46    46    45    1
    47    47    48    2
    48    45    35   am
    49   106   105    2
    50   104   105    1
    51   104   103    1
    52    35    36    2
    53    35    34    1
    54    33    34    1
    55   101   100    1
    56    99    98    2
    57    55    56    2
    58    55    54    1
    59    34    37    1
    60   103    98   am
    61    37    38    1
    62    57    54    1
    63    57    58    1
    64    60    58   ar
    65    60    62   ar
    66    98    97    1
    67    54    53    1
    68    58    59   ar
    69    62    63   ar
    70   100    97    1
    71   100   102    1
    72    40    38   ar
    73    40    42   ar
    74    97    96    1
    75    38    39   ar
    76    86    85    2
    77    59    61   ar
    78    63    61   ar
    79    91    90    2
    80    87    84    1
    81    42    43   ar
    82    39    41   ar
    83    85    84    1
    84    85    88   am
    85    89    90    1
    86    89    88    1
    87    89    92    1
    88    81    82    1
    89    81    80    1
    90    84    83    1
    91    93    92    1
    92    93    95    1
    93    80    79    1
    94    43    41   ar
    95    43    44    1
    96    79    78    1
    97    92    94    1
    98    78    75    1
    99    77    76    2
   100    75    76    1
   101    75    74    1
   102   129   128    1
   103   130   128    1
   104   128   127    2
   105   127   126    1
   106    67    66    2
   107   126   125    1
   108    64    65    1
   109    65    66    1
   110    65    68    1
   111    70    72   ar
   112    70    69   ar
   113   125   124    1
   114    72    73   ar
   115    68    69    1
   116    69    71   ar
   117    73    71   ar
   118   124   121    1
   119   121   120    1
   120   121   122    1
   121   123   122    2
