@<TRIPOS>MOLECULE
tmp/3vgcC00.pdb
 108 107 0 0 0
SMALL
GASTEIGER

@<TRIPOS>ATOM
      1  N         19.7060    5.8350   46.0000 N.3    39  SER39      -0.1202
      2  CA        21.0490    5.7060   45.4650 C.3    39  SER39       0.2020
      3  C         21.0420    5.0760   44.0770 C.2    39  SER39       0.2619
      4  O         20.2660    4.1560   43.8380 O.2    39  SER39      -0.2717
      5  CB        21.8990    4.8300   46.3860 C.3    39  SER39       0.2103
      6  OG        23.2060    4.6450   45.8500 O.3    39  SER39      -0.2182
      7  N         21.8450    5.6190   43.1510 N.am   40  SER40      -0.1937
      8  CA        22.0030    5.0090   41.8190 C.3    40  SER40       0.2055
      9  C         22.8510    3.7730   42.1750 C.2    40  SER40       0.2643
     10  O         23.4920    3.7480   43.2270 O.2    40  SER40      -0.2714
     11  CB        22.7790    5.9290   40.8600 C.3    40  SER40       0.2130
     12  OG        22.0060    7.0490   40.4610 O.3    40  SER40      -0.2179
     13  N         22.9110    2.7720   41.3130 N.am   41  CYS41      -0.1953
     14  CA        23.6530    1.5670   41.6680 C.3    41  CYS41       0.1843
     15  C         24.2110    0.9150   40.4090 C.2    41  CYS41       0.2625
     16  O         24.1750    1.5140   39.3330 O.2    41  CYS41      -0.2714
     17  CB        22.6790    0.6230   42.3910 C.3    41  CYS41       0.0997
     18  SG        23.3880   -0.6930   43.3950 S.3    41  CYS41      -0.0797
     19  N         24.7670   -0.2870   40.5360 N.am   42  MET42      -0.1963
     20  CA        25.3110   -0.9810   39.3700 C.3    42  MET42       0.1736
     21  C         24.2170   -1.1920   38.3400 C.2    42  MET42       0.2617
     22  O         23.1250   -1.6230   38.6930 O.2    42  MET42      -0.2715
     23  CB        25.9060   -2.3340   39.7580 C.3    42  MET42       0.0427
     24  CG        27.2690   -2.2450   40.4070 C.3    42  MET42       0.0599
     25  SD        27.1720   -1.9040   42.1540 S.3    42  MET42      -0.1393
     26  CE        26.1180   -3.1440   42.6440 C.3    42  MET42       0.0692
     27  N         24.5380   -0.9330   37.0700 N.am   43  GLY43      -0.1955
     28  CA        23.5630   -1.0700   36.0010 C.3    43  GLY43       0.1869
     29  C         22.9300    0.2660   35.6120 C.2    43  GLY43       0.2309
     30  O         22.3230    0.3840   34.5310 O.2    43  GLY43      -0.2863
     31  N         24.7830    3.1430   35.5280 N.3    45  SER45      -0.1217
     32  CA        25.8610    3.8860   34.8800 C.3    45  SER45       0.1889
     33  C         25.5660    4.3700   33.4710 C.2    45  SER45       0.2288
     34  O         24.9890    3.6410   32.6790 O.2    45  SER45      -0.2866
     35  CB        27.1280    3.0190   34.8510 C.3    45  SER45       0.2089
     36  OG        27.7810    3.0860   36.0960 O.3    45  SER45      -0.2183
     37  N         25.3310    9.2290   35.2670 N.3    63  VAL63      -0.1231
     38  CA        25.6230    8.3140   36.3730 C.3    63  VAL63       0.1692
     39  C         27.0360    7.7880   36.2060 C.2    63  VAL63       0.2593
     40  O         27.3440    7.1300   35.2160 O.2    63  VAL63      -0.2718
     41  CB        24.6250    7.1640   36.4500 C.3    63  VAL63       0.0266
     42  CG1       24.9440    6.2940   37.6510 C.3    63  VAL63       0.0020
     43  CG2       23.2010    7.7150   36.5310 C.3    63  VAL63       0.0020
     44  N         27.8780    8.0470   37.2040 N.am   64  SER64      -0.1938
     45  CA        29.2730    7.6740   37.1040 C.3    64  SER64       0.2055
     46  C         29.8040    6.7080   38.1590 C.2    64  SER64       0.2643
     47  O         30.1660    5.5760   37.8260 O.2    64  SER64      -0.2714
     48  CB        30.1100    8.9560   37.0510 C.3    64  SER64       0.2130
     49  OG        31.4940    8.6920   36.9370 O.3    64  SER64      -0.2179
     50  N         29.8270    7.1150   39.4260 N.am   65  TRP65      -0.1959
     51  CA        30.3500    6.2330   40.4620 C.3    65  TRP65       0.1771
     52  C         29.8650    6.6010   41.8440 C.2    65  TRP65       0.2620
     53  O         29.2740    7.6550   42.0470 O.2    65  TRP65      -0.2715
     54  CB        31.9020    6.2100   40.4280 C.3    65  TRP65       0.0590
     55  CG        32.6090    7.5190   40.7410 C.ar   65  TRP65       0.0006
     56  CD1       32.9320    8.5010   39.8590 C.ar   65  TRP65       0.0946
     57  CD2       33.1000    7.9570   42.0200 C.ar   65  TRP65       0.0152
     58  NE1       33.5930    9.5240   40.4990 N.ar   65  TRP65      -0.2442
     59  CE2       33.7110    9.2140   41.8270 C.ar   65  TRP65       0.0810
     60  CE3       33.0810    7.4070   43.3120 C.ar   65  TRP65       0.0012
     61  CZ2       34.2990    9.9360   42.8780 C.ar   65  TRP65       0.0191
     62  CZ3       33.6670    8.1310   44.3550 C.ar   65  TRP65       0.0001
     63  CH2       34.2660    9.3800   44.1290 C.ar   65  TRP65       0.0015
     64  N         30.1280    5.7170   42.7930 N.am   66  GLY66      -0.1940
     65  CA        29.7220    5.9760   44.1550 C.3    66  GLY66       0.2014
     66  C         30.0460    4.8290   45.0830 C.2    66  GLY66       0.2640
     67  O         30.9240    4.0140   44.8160 O.2    66  GLY66      -0.2714
     68  N         29.2690    4.7370   46.1490 N.am   67  SER67      -0.1935
     69  CA        29.4190    3.7150   47.1770 C.3    67  SER67       0.2055
     70  C         29.3900    2.3000   46.6020 C.2    67  SER67       0.2643
     71  O         28.4160    1.9200   45.9610 O.2    67  SER67      -0.2714
     72  CB        28.2920    3.9010   48.2050 C.3    67  SER67       0.2130
     73  OG        28.1570    2.7880   49.0680 O.3    67  SER67      -0.2179
     74  N         30.3990    1.4930   46.9290 N.am   68  SER68      -0.1949
     75  CA        30.4700    0.1130   46.4400 C.3    68  SER68       0.1924
     76  C         29.2660   -0.7030   46.8970 C.2    68  SER68       0.2314
     77  O         28.9440   -1.7340   46.3190 O.2    68  SER68      -0.2863
     78  CB        31.7620   -0.5590   46.9050 C.3    68  SER68       0.2116
     79  OG        31.7970   -0.6950   48.3170 O.3    68  SER68      -0.2180
     80  N         26.1990    0.8880   47.3380 N.3    70  CYS70      -0.1235
     81  CA        25.0340    1.7010   46.9650 C.3    70  CYS70       0.1677
     82  C         24.2850    2.2290   48.1940 C.2    70  CYS70       0.2270
     83  O         23.0590    2.2710   48.2340 O.2    70  CYS70      -0.2867
     84  CB        24.1060    0.9170   46.0370 C.3    70  CYS70       0.0956
     85  SG        24.9980    0.2950   44.5960 S.3    70  CYS70      -0.0801
     86  N         26.0660   10.0680   45.5940 N.3    76  GLY76      -0.1210
     87  CA        26.4320    9.3860   44.3640 C.3    76  GLY76       0.1956
     88  C         27.2020   10.4120   43.5470 C.2    76  GLY76       0.2612
     89  O         27.0030   11.6250   43.7570 O.2    76  GLY76      -0.2717
     90  N         28.0800    9.9590   42.6430 N.am   77  VAL77      -0.1965
     91  CA        28.8880   10.8630   41.8250 C.3    77  VAL77       0.1727
     92  C         28.5200   10.7360   40.3310 C.2    77  VAL77       0.2616
     93  O         28.3810    9.6440   39.7920 O.2    77  VAL77      -0.2715
     94  CB        30.4040   10.6390   42.0680 C.3    77  VAL77       0.0290
     95  CG1       31.1920   11.7610   41.4740 C.3    77  VAL77       0.0023
     96  CG2       30.6920   10.5340   43.5610 C.3    77  VAL77       0.0023
     97  N         28.3240   11.8830   39.6910 N.am   78  TYR78      -0.1974
     98  CA        27.8940   11.9800   38.2920 C.3    78  TYR78       0.1639
     99  C         28.8520   12.8510   37.4940 C.2    78  TYR78       0.2290
    100  O         29.4820   13.7460   38.0500 O.2    78  TYR78      -0.2864
    101  CB        26.4920   12.6250   38.2540 C.3    78  TYR78       0.0560
    102  CG        25.4530   11.8840   39.0730 C.ar   78  TYR78      -0.0198
    103  CD1       25.4570   11.9500   40.4730 C.ar   78  TYR78      -0.0009
    104  CD2       24.5230   11.0400   38.4600 C.ar   78  TYR78      -0.0009
    105  CE1       24.5640   11.1740   41.2510 C.ar   78  TYR78       0.0417
    106  CE2       23.6250   10.2690   39.2160 C.ar   78  TYR78       0.0417
    107  CZ        23.6540   10.3370   40.6180 C.ar   78  TYR78       0.1957
    108  OH        22.7980    9.5650   41.3730 O.3    78  TYR78      -0.2866
@<TRIPOS>BOND
     1    34    33    2
     2    33    32    1
     3    30    29    2
     4    35    32    1
     5    35    36    1
     6    32    31    1
     7    40    39    2
     8    37    38    1
     9    29    28    1
    10    28    27    1
    11    39    38    1
    12    39    44   am
    13    38    41    1
    14    41    43    1
    15    41    42    1
    16    49    48    1
    17    48    45    1
    18    27    21   am
    19    45    44    1
    20    45    46    1
    21    99   100    2
    22    99    98    1
    23    47    46    2
    24    46    50   am
    25   101    98    1
    26   101   102    1
    27    98    97    1
    28    21    22    2
    29    21    20    1
    30   104   102   ar
    31   104   106   ar
    32   102   103   ar
    33   106   107   ar
    34    16    15    2
    35    20    23    1
    36    20    19    1
    37    50    51    1
    38    97    92   am
    39    23    24    1
    40    93    92    2
    41    56    58   ar
    42    56    55   ar
    43    92    91    1
    44    24    25    1
    45    15    19   am
    46    15    14    1
    47    54    51    1
    48    54    55    1
    49    12    11    1
    50    51    52    1
    51   103   105   ar
    52    58    59   ar
    53   107   105   ar
    54   107   108    1
    55    55    57   ar
    56    11     8    1
    57    13    14    1
    58    13     9   am
    59    95    94    1
    60    14    17    1
    61     8     9    1
    62     8     7    1
    63    91    94    1
    64    91    90    1
    65    59    57   ar
    66    59    61   ar
    67    52    53    2
    68    52    64   am
    69    57    60   ar
    70    94    96    1
    71    25    26    1
    72     9    10    2
    73    17    18    1
    74    90    88   am
    75    64    65    1
    76    61    63   ar
    77     7     3   am
    78    60    62   ar
    79    18    85    1
    80    88    89    2
    81    88    87    1
    82     4     3    2
    83     3     2    1
    84    63    62   ar
    85    65    66    1
    86    87    86    1
    87    85    84    1
    88    67    66    2
    89    66    68   am
    90     2     1    1
    91     2     5    1
    92     6     5    1
    93    71    70    2
    94    84    81    1
    95    68    69    1
    96    77    76    2
    97    75    76    1
    98    75    78    1
    99    75    74    1
   100    70    74   am
   101    70    69    1
   102    78    79    1
   103    81    80    1
   104    81    82    1
   105    69    72    1
   106    82    83    2
   107    72    73    1
