@<TRIPOS>MOLECULE
tmp/3vgfA01.pdb
 83 78 0 0 0
SMALL
GASTEIGER

@<TRIPOS>ATOM
      1  N         28.6760   17.4650   30.1130 N.3   319  GLU319     -0.1245
      2  CA        27.7650   16.8440   29.1300 C.3   319  GLU319      0.1567
      3  C         28.2550   16.9790   27.6830 C.2   319  GLU319      0.2260
      4  O         28.8110   18.0230   27.3010 O.2   319  GLU319     -0.2867
      5  CB        26.3420   17.4100   29.2690 C.3   319  GLU319      0.0388
      6  CG        25.6820   16.9630   30.5480 C.3   319  GLU319      0.1160
      7  CD        24.1680   17.2280   30.5830 C.2   319  GLU319      0.3649
      8  OE1       23.6160   17.9080   29.6990 O.co2 319  GLU319     -0.2457
      9  OE2       23.5200   16.7610   31.5350 O.co2 319  GLU319     -0.2457
     10  N         26.3010   14.9080   25.0700 N.3   321  GLN321     -0.1245
     11  CA        25.2450   14.3170   24.2480 C.3   321  GLN321      0.1566
     12  C         24.6380   15.3540   23.2800 C.2   321  GLN321      0.2260
     13  O         24.7400   16.5740   23.4930 O.2   321  GLN321     -0.2867
     14  CB        24.1490   13.7020   25.1440 C.3   321  GLN321      0.0367
     15  CG        23.1030   14.7240   25.6620 C.3   321  GLN321      0.0905
     16  CD        23.5100   15.4230   26.9730 C.2   321  GLN321      0.2608
     17  OE1       22.7270   16.2190   27.5260 O.2   321  GLN321     -0.2717
     18  NE2       24.7180   15.1330   27.4740 N.am  321  GLN321     -0.0878
     19  N         25.9120   19.1770   22.4130 N.3   324  TYR324     -0.1241
     20  CA        27.0290   19.4230   23.3210 C.3   324  TYR324      0.1605
     21  C         28.3450   18.7820   22.8730 C.2   324  TYR324      0.2264
     22  O         29.4350   19.2510   23.2570 O.2   324  TYR324     -0.2867
     23  CB        26.6540   18.9890   24.7460 C.3   324  TYR324      0.0534
     24  CG        25.4910   19.7800   25.3330 C.ar  324  TYR324     -0.0201
     25  CD1       25.5520   21.1860   25.3780 C.ar  324  TYR324     -0.0009
     26  CD2       24.3450   19.1300   25.8370 C.ar  324  TYR324     -0.0009
     27  CE1       24.5500   21.9260   25.9110 C.ar  324  TYR324      0.0417
     28  CE2       23.2840   19.8770   26.3870 C.ar  324  TYR324      0.0417
     29  CZ        23.4020   21.2930   26.4020 C.ar  324  TYR324      0.1957
     30  OH        22.4230   22.1030   26.9200 O.3   324  TYR324     -0.2866
     31  N         13.7980   20.6930   26.3810 N.3   379  ASN379     -0.1225
     32  CA        14.1420   19.6300   25.4180 C.3   379  ASN379      0.1785
     33  C         14.9890   18.5090   26.0410 C.2   379  ASN379      0.2597
     34  O         15.2450   17.4670   25.4090 O.2   379  ASN379     -0.2718
     35  CB        14.7840   20.1840   24.1590 C.3   379  ASN379      0.1169
     36  CG        13.8060   20.9660   23.3390 C.2   379  ASN379      0.2627
     37  OD1       12.6290   20.6020   23.2640 O.2   379  ASN379     -0.2716
     38  ND2       14.2720   22.0600   22.7140 N.am  379  ASN379     -0.0877
     39  N         15.4050   18.7160   27.2800 N.am  380  ARG380     -0.1966
     40  CA        15.9230   17.6130   28.0740 C.3   380  ARG380      0.1729
     41  C         14.7730   16.6580   28.4110 C.2   380  ARG380      0.2617
     42  O         13.6380   17.0860   28.7770 O.2   380  ARG380     -0.2715
     43  CB        16.5740   18.1380   29.3340 C.3   380  ARG380      0.0348
     44  CG        17.7900   19.0620   29.0900 C.3   380  ARG380      0.0492
     45  CD        18.3050   19.5900   30.4450 C.3   380  ARG380      0.2205
     46  NE        19.0200   18.5530   31.1720 N.pl3 380  ARG380     -0.0865
     47  CZ        20.2900   18.2100   30.9380 C.cat 380  ARG380      0.5346
     48  NH1       21.0040   18.8570   30.0220 N.pl3 380  ARG380      0.1354
     49  NH2       20.8550   17.2310   31.6450 N.pl3 380  ARG380      0.1354
     50  N         15.0500   15.3690   28.2260 N.am  381  GLY381     -0.1940
     51  CA        14.0870   14.3240   28.5540 C.3   381  GLY381      0.2014
     52  C         13.5150   14.4550   29.9540 C.2   381  GLY381      0.2638
     53  O         12.2950   14.3630   30.1340 O.2   381  GLY381     -0.2714
     54  N         14.3770   14.7080   30.9340 N.am  382  LYS382     -0.1977
     55  CA        13.9210   14.8980   32.3260 C.3   382  LYS382      0.1596
     56  C         13.7000   16.3690   32.6530 C.2   382  LYS382      0.2287
     57  O         13.4740   16.7020   33.8100 O.2   382  LYS382     -0.2864
     58  CB        14.9130   14.3250   33.3290 C.3   382  LYS382      0.0298
     59  CG        15.1040   12.8240   33.2130 C.3   382  LYS382      0.0038
     60  CD        16.3090   12.4150   34.0930 C.3   382  LYS382      0.0206
     61  CE        16.7080   10.9570   33.9050 C.3   382  LYS382      0.1093
     62  NZ        18.0040   10.6820   34.6240 N.3   382  LYS382     -0.1314
     63  N         15.5640   18.9690   33.2390 N.3   384  GLU384     -0.1245
     64  CA        16.2730   19.5130   34.4020 C.3   384  GLU384      0.1567
     65  C         16.8280   20.9170   34.1860 C.2   384  GLU384      0.2260
     66  O         17.3660   21.2190   33.1310 O.2   384  GLU384     -0.2867
     67  CB        17.3930   18.6030   34.8160 C.3   384  GLU384      0.0388
     68  CG        16.9250   17.2790   35.4320 C.3   384  GLU384      0.1160
     69  CD        18.0970   16.3220   35.6360 C.2   384  GLU384      0.3649
     70  OE1       18.7200   15.9150   34.6180 O.co2 384  GLU384     -0.2457
     71  OE2       18.3920   15.9890   36.8150 O.co2 384  GLU384     -0.2457
     72  N         13.8210   12.8870   22.6750 N.3   446  ASN446     -0.1225
     73  CA        14.2840   13.5740   23.8660 C.3   446  ASN446      0.1785
     74  C         14.5450   12.6420   25.0480 C.2   446  ASN446      0.2597
     75  O         15.2230   13.0160   26.0010 O.2   446  ASN446     -0.2718
     76  CB        13.3070   14.6960   24.2360 C.3   446  ASN446      0.1169
     77  CG        12.9500   15.5890   23.0440 C.2   446  ASN446      0.2627
     78  OD1       12.0010   15.3100   22.2930 O.2   446  ASN446     -0.2716
     79  ND2       13.6880   16.6800   22.8840 N.am  446  ASN446     -0.0877
     80  N         14.0490   11.4050   24.9590 N.am  447  GLY447     -0.1957
     81  CA        14.1840   10.4640   26.0650 C.3   447  GLY447      0.1869
     82  C         13.2580   10.9000   27.1860 C.2   447  GLY447      0.2309
     83  O         13.5090   10.6000   28.3490 O.2   447  GLY447     -0.2863
@<TRIPOS>BOND
     1    78    77    2
     2    19    20    1
     3    72    73    1
     4    38    36   am
     5    21    22    2
     6    21    20    1
     7    79    77   am
     8    77    76    1
     9    37    36    2
    10    12    13    2
    11    12    11    1
    12    20    23    1
    13    36    35    1
    14    73    76    1
    15    73    74    1
    16    35    32    1
    17    11    10    1
    18    11    14    1
    19    23    24    1
    20    80    74   am
    21    80    81    1
    22    74    75    2
    23    14    15    1
    24    24    25   ar
    25    24    26   ar
    26    25    27   ar
    27    34    33    2
    28    32    33    1
    29    32    31    1
    30    15    16    1
    31    26    28   ar
    32    27    29   ar
    33    33    39   am
    34    81    82    1
    35    28    29   ar
    36    29    30    1
    37    16    18   am
    38    16    17    2
    39    82    83    2
    40    39    40    1
    41     4     3    2
    42     3     2    1
    43    40    41    1
    44    40    43    1
    45    50    41   am
    46    50    51    1
    47    41    42    2
    48    51    52    1
    49    44    43    1
    50    44    45    1
    51     2     5    1
    52     2     1    1
    53     5     6    1
    54     8     7   ar
    55    52    53    2
    56    52    54   am
    57    48    47    1
    58    45    46    1
    59     6     7    1
    60     7     9   ar
    61    54    55    1
    62    47    46    2
    63    47    49    1
    64    55    56    1
    65    55    58    1
    66    56    57    2
    67    66    65    2
    68    59    58    1
    69    59    60    1
    70    63    64    1
    71    61    60    1
    72    61    62    1
    73    65    64    1
    74    64    67    1
    75    70    69   ar
    76    67    68    1
    77    68    69    1
    78    69    71   ar
