@<TRIPOS>MOLECULE
tmp/3vgfA00.pdb
 217 211 0 0 0
SMALL
GASTEIGER

@<TRIPOS>ATOM
      1  N          0.3710   23.7690   26.7490 N.3   147  ASP147     -0.1225
      2  CA         1.2310   23.7500   25.5860 C.3   147  ASP147      0.1805
      3  C          2.2430   24.8750   25.7750 C.2   147  ASP147      0.2597
      4  O          1.8840   25.9650   26.2840 O.2   147  ASP147     -0.2718
      5  CB         0.3860   24.0100   24.3290 C.3   147  ASP147      0.1424
      6  CG         1.0620   23.5580   23.0370 C.2   147  ASP147      0.3668
      7  OD1        1.7800   24.3940   22.4280 O.co2 147  ASP147     -0.2456
      8  OD2        0.8270   22.3970   22.6060 O.co2 147  ASP147     -0.2456
      9  N          3.4880   24.6110   25.3670 N.am  148  TRP148     -0.1976
     10  CA         4.5260   25.6320   25.3290 C.3   148  TRP148      0.1640
     11  C          4.0750   26.8170   24.4850 C.2   148  TRP148      0.2290
     12  O          4.4560   27.9690   24.7840 O.2   148  TRP148     -0.2864
     13  CB         5.8340   25.0830   24.7530 C.3   148  TRP148      0.0576
     14  CG         6.6050   24.1780   25.6260 C.ar  148  TRP148      0.0006
     15  CD1        6.2260   23.6680   26.8440 C.ar  148  TRP148      0.0946
     16  CD2        7.9060   23.6160   25.3440 C.ar  148  TRP148      0.0152
     17  NE1        7.2310   22.8610   27.3430 N.ar  148  TRP148     -0.2442
     18  CE2        8.2670   22.8150   26.4490 C.ar  148  TRP148      0.0810
     19  CE3        8.8070   23.7450   24.2880 C.ar  148  TRP148      0.0012
     20  CZ2        9.4900   22.1320   26.5130 C.ar  148  TRP148      0.0191
     21  CZ3       10.0210   23.0690   24.3500 C.ar  148  TRP148      0.0001
     22  CH2       10.3450   22.2600   25.4430 C.ar  148  TRP148      0.0015
     23  N          4.0680   26.3680   20.7320 N.3   150  TYR150     -0.1227
     24  CA         4.5870   26.2080   19.3620 C.3   150  TYR150      0.1736
     25  C          3.6100   25.3680   18.5510 C.2   150  TYR150      0.2595
     26  O          3.7430   25.2420   17.3370 O.2   150  TYR150     -0.2718
     27  CB         6.0430   25.7010   19.3510 C.3   150  TYR150      0.0548
     28  CG         6.8950   26.6360   20.2050 C.ar  150  TYR150     -0.0200
     29  CD1        7.3300   27.8670   19.6910 C.ar  150  TYR150     -0.0009
     30  CD2        7.1670   26.3450   21.5470 C.ar  150  TYR150     -0.0009
     31  CE1        8.0180   28.7640   20.4560 C.ar  150  TYR150      0.0417
     32  CE2        7.8910   27.2430   22.3510 C.ar  150  TYR150      0.0417
     33  CZ         8.2760   28.4580   21.8000 C.ar  150  TYR150      0.1957
     34  OH         8.9740   29.3550   22.5390 O.3   150  TYR150     -0.2866
     35  N          2.5900   24.8350   19.2200 N.am  151  ASP151     -0.1974
     36  CA         1.4810   24.2030   18.5070 C.3   151  ASP151      0.1709
     37  C          0.3390   25.1590   18.2320 C.2   151  ASP151      0.2293
     38  O         -0.7690   24.7400   17.9060 O.2   151  ASP151     -0.2864
     39  CB         0.9690   23.0100   19.2980 C.3   151  ASP151      0.1436
     40  CG         2.0470   21.9800   19.5390 C.2   151  ASP151      0.3671
     41  OD1        2.7350   21.6300   18.5660 O.co2 151  ASP151     -0.2456
     42  OD2        2.2100   21.5150   20.6880 O.co2 151  ASP151     -0.2456
     43  N          5.4510   32.4840   15.7290 N.3   187  VAL187     -0.1245
     44  CA         5.8080   31.3170   14.9750 C.3   187  VAL187      0.1561
     45  C          5.3790   31.4280   13.5220 C.2   187  VAL187      0.2260
     46  O          4.2210   31.2500   13.2010 O.2   187  VAL187     -0.2867
     47  CB         5.1850   30.0540   15.5900 C.3   187  VAL187      0.0252
     48  CG1        5.5910   28.8210   14.7980 C.3   187  VAL187      0.0019
     49  CG2        5.5370   29.9310   17.1180 C.3   187  VAL187      0.0019
     50  N          5.8210   27.3260   10.7070 N.3   190  HIS190     -0.1241
     51  CA         4.9320   26.1900   10.5920 C.3   190  HIS190      0.1621
     52  C          3.6860   26.5070   11.3750 C.2   190  HIS190      0.2264
     53  O          3.5980   27.5520   12.0140 O.2   190  HIS190     -0.2867
     54  CB         5.5550   24.8990   11.1380 C.3   190  HIS190      0.0745
     55  CG         5.6040   24.8450   12.6320 C.ar  190  HIS190      0.0817
     56  ND1        4.6580   24.1790   13.3860 N.ar  190  HIS190     -0.2268
     57  CD2        6.4840   25.3860   13.5180 C.ar  190  HIS190      0.1154
     58  CE1        4.9650   24.3000   14.6700 C.ar  190  HIS190      0.1986
     59  NE2        6.0660   25.0270   14.7740 N.ar  190  HIS190     -0.2212
     60  N         -0.2540   20.8360   14.5580 N.3   193  PRO193     -0.2116
     61  CA        -0.8920   19.6980   13.8690 C.3   193  PRO193      0.1372
     62  C         -2.3940   19.4840   14.1400 C.2   193  PRO193      0.2244
     63  O         -3.0310   18.7220   13.4230 O.2   193  PRO193     -0.2868
     64  CB        -0.0890   18.4910   14.3590 C.3   193  PRO193      0.0268
     65  CG         0.4840   18.9220   15.6760 C.3   193  PRO193      0.0207
     66  CD         0.6180   20.4140   15.6710 C.3   193  PRO193      0.0892
     67  N         10.8260   20.0440   11.1100 N.3   212  PRO212     -0.2102
     68  CA        10.5950   18.8860   12.0030 C.3   212  PRO212      0.1504
     69  C          9.2240   18.9040   12.6780 C.2   212  PRO212      0.2575
     70  O          8.8460   17.9000   13.2600 O.2   212  PRO212     -0.2718
     71  CB        11.7110   19.0150   13.0500 C.3   212  PRO212      0.0282
     72  CG        12.8290   19.8200   12.3180 C.3   212  PRO212      0.0208
     73  CD        12.0240   20.8210   11.5050 C.3   212  PRO212      0.0893
     74  N          8.4880   20.0220   12.5700 N.am  213  TRP213     -0.1977
     75  CA         7.1990   20.2610   13.2640 C.3   213  TRP213      0.1640
     76  C          5.9880   20.3480   12.3110 C.2   213  TRP213      0.2290
     77  O          4.8650   20.6150   12.7230 O.2   213  TRP213     -0.2864
     78  CB         7.3110   21.5640   14.0790 C.3   213  TRP213      0.0576
     79  CG         8.7220   21.7130   14.6490 C.ar  213  TRP213      0.0006
     80  CD1        9.3030   20.9240   15.6150 C.ar  213  TRP213      0.0946
     81  CD2        9.7280   22.6530   14.2500 C.ar  213  TRP213      0.0152
     82  NE1       10.5920   21.3220   15.8530 N.ar  213  TRP213     -0.2442
     83  CE2       10.8880   22.3840   15.0380 C.ar  213  TRP213      0.0810
     84  CE3        9.7670   23.6940   13.3190 C.ar  213  TRP213      0.0012
     85  CZ2       12.0770   23.1380   14.9300 C.ar  213  TRP213      0.0191
     86  CZ3       10.9590   24.4510   13.1990 C.ar  213  TRP213      0.0001
     87  CH2       12.0970   24.1630   14.0090 C.ar  213  TRP213      0.0015
     88  N         10.0040   37.9470   19.1650 N.3   248  ARG248     -0.1245
     89  CA        11.0510   36.9480   19.0650 C.3   248  ARG248      0.1563
     90  C         10.5220   35.9420   18.0430 C.2   248  ARG248      0.2260
     91  O          9.4730   35.3290   18.2350 O.2   248  ARG248     -0.2867
     92  CB        11.3640   36.3250   20.4350 C.3   248  ARG248      0.0307
     93  CG        12.3120   35.0850   20.4230 C.3   248  ARG248      0.0489
     94  CD        11.5010   33.7840   20.3560 C.3   248  ARG248      0.2205
     95  NE        12.3350   32.6120   20.5710 N.pl3 248  ARG248     -0.0865
     96  CZ        12.0320   31.3590   20.2240 C.cat 248  ARG248      0.5346
     97  NH1       10.8940   31.0920   19.6290 N.pl3 248  ARG248      0.1354
     98  NH2       12.8920   30.3600   20.4740 N.pl3 248  ARG248      0.1354
     99  N         10.4710   32.6880   16.1570 N.3   250  SER250     -0.1202
    100  CA        10.8040   31.2900   16.2230 C.3   250  SER250      0.2020
    101  C         11.4840   30.7830   14.9720 C.2   250  SER250      0.2618
    102  O         10.9860   31.0090   13.8330 O.2   250  SER250     -0.2717
    103  CB         9.5300   30.4730   16.4190 C.3   250  SER250      0.2103
    104  OG         9.8100   29.0990   16.2020 O.3   250  SER250     -0.2182
    105  N         12.6000   30.0880   15.2170 N.am  251  ALA251     -0.1979
    106  CA        13.4080   29.3250   14.2600 C.3   251  ALA251      0.1597
    107  C         13.4460   29.9150   12.8450 C.2   251  ALA251      0.2287
    108  O         12.8220   29.3840   11.9290 O.2   251  ALA251     -0.2864
    109  CB        12.8740   27.9030   14.2010 C.3   251  ALA251      0.0319
    110  N         15.4430   33.8820   16.7110 N.3   281  GLU281     -0.1245
    111  CA        16.1180   32.6490   17.1250 C.3   281  GLU281      0.1567
    112  C         16.6430   32.0370   15.8380 C.2   281  GLU281      0.2260
    113  O         15.8390   31.6070   14.9890 O.2   281  GLU281     -0.2867
    114  CB        15.1850   31.6570   17.8080 C.3   281  GLU281      0.0388
    115  CG        15.8770   30.3130   18.1170 C.3   281  GLU281      0.1160
    116  CD        14.9110   29.1240   18.1240 C.2   281  GLU281      0.3649
    117  OE1       13.8450   29.1880   17.4850 O.co2 281  GLU281     -0.2457
    118  OE2       15.2010   28.1090   18.7810 O.co2 281  GLU281     -0.2457
    119  N         13.4610   27.9940   27.8280 N.3   374  HIS374     -0.1226
    120  CA        12.5120   26.8880   27.7740 C.3   374  HIS374      0.1752
    121  C         13.0140   25.6740   26.9690 C.2   374  HIS374      0.2596
    122  O         12.6160   24.5350   27.2670 O.2   374  HIS374     -0.2718
    123  CB        11.1650   27.3630   27.2010 C.3   374  HIS374      0.0759
    124  CG        11.1870   27.5750   25.7200 C.ar  374  HIS374      0.0818
    125  ND1       11.4640   28.7950   25.1490 N.ar  374  HIS374     -0.2268
    126  CD2       10.9980   26.7120   24.6920 C.ar  374  HIS374      0.1154
    127  CE1       11.4410   28.6770   23.8320 C.ar  374  HIS374      0.1986
    128  NE2       11.1560   27.4230   23.5290 N.ar  374  HIS374     -0.2212
    129  N         13.8760   25.9020   25.9630 N.am  375  ASP375     -0.1974
    130  CA        14.4550   24.7950   25.1890 C.3   375  ASP375      0.1709
    131  C         15.5910   24.0750   25.8920 C.2   375  ASP375      0.2293
    132  O         15.6260   22.8250   25.9420 O.2   375  ASP375     -0.2864
    133  CB        14.9310   25.2590   23.7950 C.3   375  ASP375      0.1436
    134  CG        13.7790   25.3190   22.7930 C.2   375  ASP375      0.3671
    135  OD1       13.8180   26.1060   21.8250 O.co2 375  ASP375     -0.2456
    136  OD2       12.8250   24.5500   22.9810 O.co2 375  ASP375     -0.2456
    137  N         13.7980   20.6930   26.3810 N.3   379  ASN379     -0.1240
    138  CA        14.1420   19.6300   25.4180 C.3   379  ASN379      0.1653
    139  C         14.9890   18.5090   26.0410 C.2   379  ASN379      0.2266
    140  O         15.2450   17.4670   25.4090 O.2   379  ASN379     -0.2867
    141  CB        14.7840   20.1840   24.1590 C.3   379  ASN379      0.1155
    142  CG        13.8060   20.9660   23.3390 C.2   379  ASN379      0.2627
    143  OD1       12.6290   20.6020   23.2640 O.2   379  ASN379     -0.2716
    144  ND2       14.2720   22.0600   22.7140 N.am  379  ASN379     -0.0877
    145  N          8.3480   19.2840   28.4070 N.3   425  PHE425     -0.1241
    146  CA         7.4480   19.4420   27.2800 C.3   425  PHE425      0.1605
    147  C          6.0580   18.8710   27.5980 C.2   425  PHE425      0.2264
    148  O          5.9260   17.6910   27.9650 O.2   425  PHE425     -0.2867
    149  CB         8.0070   18.7580   26.0160 C.3   425  PHE425      0.0534
    150  CG         7.2120   19.0690   24.7740 C.ar  425  PHE425     -0.0203
    151  CD1        7.4470   20.2570   24.0610 C.ar  425  PHE425     -0.0042
    152  CD2        6.1740   18.2310   24.3630 C.ar  425  PHE425     -0.0042
    153  CE1        6.6950   20.5900   22.9450 C.ar  425  PHE425     -0.0003
    154  CE2        5.4120   18.5460   23.2210 C.ar  425  PHE425     -0.0003
    155  CZ         5.6750   19.7160   22.5040 C.ar  425  PHE425     -0.0000
    156  N         -3.3310   17.8490   23.1430 N.3   429  PHE429     -0.1241
    157  CA        -4.0700   17.4670   21.9350 C.3   429  PHE429      0.1605
    158  C         -5.2490   16.5720   22.2950 C.2   429  PHE429      0.2264
    159  O         -5.2340   15.9170   23.3320 O.2   429  PHE429     -0.2867
    160  CB        -3.1860   16.6860   20.9560 C.3   429  PHE429      0.0534
    161  CG        -2.0060   17.4520   20.4500 C.ar  429  PHE429     -0.0203
    162  CD1       -2.1740   18.5800   19.6690 C.ar  429  PHE429     -0.0042
    163  CD2       -0.7190   17.0360   20.7500 C.ar  429  PHE429     -0.0042
    164  CE1       -1.0820   19.2930   19.1940 C.ar  429  PHE429     -0.0003
    165  CE2        0.3760   17.7520   20.2850 C.ar  429  PHE429     -0.0003
    166  CZ         0.1770   18.8880   19.4880 C.ar  429  PHE429     -0.0000
    167  N         -2.2500   12.1860   17.3250 N.3   434  LEU434     -0.1245
    168  CA        -1.2650   13.1400   17.8230 C.3   434  LEU434      0.1561
    169  C         -0.9320   12.8390   19.2750 C.2   434  LEU434      0.2260
    170  O          0.2050   12.9950   19.6910 O.2   434  LEU434     -0.2867
    171  CB        -1.7360   14.5870   17.6330 C.3   434  LEU434      0.0270
    172  CG        -2.2040   15.0390   16.2400 C.3   434  LEU434      0.0019
    173  CD1       -2.8050   16.4340   16.3000 C.3   434  LEU434      0.0001
    174  CD2       -1.0940   14.9610   15.1890 C.3   434  LEU434      0.0001
    175  N          1.4510   10.1220   18.9340 N.3   437  GLY437     -0.1210
    176  CA         2.6420   10.6410   18.2550 C.3   437  GLY437      0.1956
    177  C          3.5630   11.4390   19.1650 C.2   437  GLY437      0.2611
    178  O          4.7820   11.2260   19.1770 O.2   437  GLY437     -0.2717
    179  N          2.9820   12.3480   19.9500 N.am  438  VAL438     -0.1979
    180  CA         3.7500   13.1740   20.8690 C.3   438  VAL438      0.1595
    181  C          4.4900   12.3530   21.9220 C.2   438  VAL438      0.2287
    182  O          5.6670   12.5990   22.1610 O.2   438  VAL438     -0.2864
    183  CB         2.8970   14.3320   21.4980 C.3   438  VAL438      0.0276
    184  CG1        1.9100   13.8310   22.5580 C.3   438  VAL438      0.0022
    185  CG2        3.8050   15.4100   22.0870 C.3   438  VAL438      0.0022
    186  N          7.2480   10.3470   19.9190 N.3   441  GLY441     -0.1210
    187  CA         8.2840   11.2340   19.3810 C.3   441  GLY441      0.1956
    188  C          9.1650   11.8120   20.4790 C.2   441  GLY441      0.2611
    189  O         10.4010   11.8040   20.4020 O.2   441  GLY441     -0.2717
    190  N          8.5140   12.2930   21.5270 N.am  442  ARG442     -0.1979
    191  CA         9.2050   12.9040   22.6210 C.3   442  ARG442      0.1597
    192  C         10.0520   11.9150   23.4220 C.2   442  ARG442      0.2287
    193  O         11.1450   12.2560   23.8510 O.2   442  ARG442     -0.2864
    194  CB         8.1970   13.6600   23.4860 C.3   442  ARG442      0.0334
    195  CG         8.0930   15.1180   23.0620 C.3   442  ARG442      0.0492
    196  CD         8.8750   15.8540   24.1170 C.3   442  ARG442      0.2205
    197  NE         9.6530   16.8960   23.5320 N.pl3 442  ARG442     -0.0865
    198  CZ        10.5700   17.6160   24.1410 C.cat 442  ARG442      0.5346
    199  NH1       10.9000   17.4380   25.4240 N.pl3 442  ARG442      0.1354
    200  NH2       11.1760   18.5360   23.3930 N.pl3 442  ARG442      0.1354
    201  N         12.9570   11.1950   20.5910 N.3   445  GLU445     -0.1231
    202  CA        13.8620   12.3310   20.2900 C.3   445  GLU445      0.1699
    203  C         14.5660   12.8390   21.5670 C.2   445  GLU445      0.2592
    204  O         15.7710   13.1480   21.5490 O.2   445  GLU445     -0.2718
    205  CB        13.1280   13.4960   19.5850 C.3   445  GLU445      0.0402
    206  CG        12.5100   13.2030   18.1860 C.3   445  GLU445      0.1161
    207  CD        13.4010   12.3340   17.3000 C.2   445  GLU445      0.3649
    208  OE1       12.8960   11.3090   16.7840 O.co2 445  GLU445     -0.2457
    209  OE2       14.6060   12.6580   17.1320 O.co2 445  GLU445     -0.2457
    210  N         13.8210   12.8870   22.6750 N.am  446  ASN446     -0.1974
    211  CA        14.2840   13.5740   23.8660 C.3   446  ASN446      0.1688
    212  C         14.5450   12.6420   25.0480 C.2   446  ASN446      0.2292
    213  O         15.2230   13.0160   26.0010 O.2   446  ASN446     -0.2864
    214  CB        13.3070   14.6960   24.2360 C.3   446  ASN446      0.1181
    215  CG        12.9500   15.5890   23.0440 C.2   446  ASN446      0.2629
    216  OD1       12.0010   15.3100   22.2930 O.2   446  ASN446     -0.2716
    217  ND2       13.6880   16.6800   22.8840 N.am  446  ASN446     -0.0877
@<TRIPOS>BOND
     1    51    50    1
     2    51    54    1
     3    51    52    1
     4    67    73    1
     5    67    68    1
     6    54    55    1
     7    52    53    2
     8    73    72    1
     9   108   107    2
    10    68    69    1
    11    68    71    1
    12    76    77    2
    13    76    75    1
    14    72    71    1
    15    74    69   am
    16    74    75    1
    17    55    56   ar
    18    55    57   ar
    19    69    70    2
    20   107   106    1
    21    86    84   ar
    22    86    87   ar
    23    46    45    2
    24    75    78    1
    25    84    81   ar
    26    56    58   ar
    27    63    62    2
    28    57    59   ar
    29    45    44    1
    30   102   101    2
    31    61    62    1
    32    61    64    1
    33    61    60    1
    34    87    85   ar
    35    78    79    1
    36   109   106    1
    37    81    79   ar
    38    81    83   ar
    39   106   105    1
    40    64    65    1
    41    60    66    1
    42    79    80   ar
    43    58    59   ar
    44    48    47    1
    45    85    83   ar
    46   101   105   am
    47   101   100    1
    48    44    47    1
    49    44    43    1
    50   113   112    2
    51    83    82   ar
    52   174   172    1
    53    47    49    1
    54    80    82   ar
    55    66    65    1
    56   112   111    1
    57    99   100    1
    58   104   103    1
    59   100   103    1
    60   172   173    1
    61   172   171    1
    62   110   111    1
    63   208   207   ar
    64   111   114    1
    65   209   207   ar
    66   207   206    1
    67   167   168    1
    68    26    25    2
    69   117   116   ar
    70   171   168    1
    71   114   115    1
    72   168   169    1
    73    38    37    2
    74    90    91    2
    75    90    89    1
    76   115   116    1
    77   116   118   ar
    78   206   205    1
    79    37    36    1
    80   176   175    1
    81   176   177    1
    82    36    35    1
    83    36    39    1
    84    25    35   am
    85    25    24    1
    86    41    40   ar
    87    89    88    1
    88    89    92    1
    89   177   178    2
    90   177   179   am
    91   164   166   ar
    92   164   162   ar
    93   169   170    2
    94    39    40    1
    95    27    24    1
    96    27    28    1
    97    24    23    1
    98   187   186    1
    99   187   188    1
   100   166   165   ar
   101    40    42   ar
   102   205   202    1
   103    97    96    1
   104   162   161   ar
   105    29    28   ar
   106    29    31   ar
   107   179   180    1
   108    28    30   ar
   109    96    98    1
   110    96    95    2
   111   165   163   ar
   112   202   201    1
   113   202   203    1
   114    94    93    1
   115    94    95    1
   116   189   188    2
   117    93    92    1
   118   161   163   ar
   119   161   160    1
   120    31    33   ar
   121   188   190   am
   122   180   183    1
   123   180   181    1
   124   160   157    1
   125   183   185    1
   126   183   184    1
   127   190   191    1
   128    30    32   ar
   129   204   203    2
   130   203   210   am
   131    33    32   ar
   132    33    34    1
   133   135   134   ar
   134   181   182    2
   135   157   158    1
   136   157   156    1
   137   216   215    2
   138   158   159    2
   139     7     6   ar
   140   155   153   ar
   141   155   154   ar
   142     8     6   ar
   143   191   192    1
   144   191   194    1
   145   210   211    1
   146   144   142   am
   147   134   136   ar
   148   134   133    1
   149   217   215   am
   150   153   151   ar
   151     6     5    1
   152   215   214    1
   153   195   194    1
   154   195   196    1
   155   154   152   ar
   156   143   142    2
   157   142   141    1
   158   200   198    1
   159   192   193    2
   160   128   127   ar
   161   128   126   ar
   162   197   196    1
   163   197   198    2
   164   133   130    1
   165   127   125   ar
   166   211   214    1
   167   211   212    1
   168   151   150   ar
   169   198   199    1
   170   141   138    1
   171    19    21   ar
   172    19    16   ar
   173     5     2    1
   174    21    22   ar
   175   152   150   ar
   176    11    12    2
   177    11    10    1
   178   126   124   ar
   179    13    10    1
   180    13    14    1
   181   150   149    1
   182   212   213    2
   183   125   124   ar
   184   130   131    1
   185   130   129    1
   186    10     9    1
   187    16    14   ar
   188    16    18   ar
   189     9     3   am
   190   140   139    2
   191   138   139    1
   192   138   137    1
   193    22    20   ar
   194     2     3    1
   195     2     1    1
   196    14    15   ar
   197   124   123    1
   198     3     4    2
   199   131   132    2
   200   129   121   am
   201   149   146    1
   202    18    20   ar
   203    18    17   ar
   204    15    17   ar
   205   121   122    2
   206   121   120    1
   207   123   120    1
   208   146   147    1
   209   146   145    1
   210   147   148    2
   211   120   119    1
