@<TRIPOS>MOLECULE
tmp/3vgjB00.pdb
 136 131 0 0 0
SMALL
GASTEIGER

@<TRIPOS>ATOM
      1  N        -19.3600   10.1900   26.5370 N.3    43  TYR43      -0.1241
      2  CA       -18.1520    9.6810   25.9100 C.3    43  TYR43       0.1605
      3  C        -18.2460    8.2210   25.4700 C.2    43  TYR43       0.2264
      4  O        -19.0780    7.4460   25.9530 O.2    43  TYR43      -0.2867
      5  CB       -16.9240    9.9060   26.8080 C.3    43  TYR43       0.0534
      6  CG       -16.4440    8.6980   27.6020 C.ar   43  TYR43      -0.0201
      7  CD1      -17.2560    8.0980   28.5610 C.ar   43  TYR43      -0.0009
      8  CD2      -15.1650    8.1950   27.4260 C.ar   43  TYR43      -0.0009
      9  CE1      -16.8140    7.0190   29.3050 C.ar   43  TYR43       0.0417
     10  CE2      -14.7030    7.1120   28.1740 C.ar   43  TYR43       0.0417
     11  CZ       -15.5310    6.5270   29.1150 C.ar   43  TYR43       0.1957
     12  OH       -15.0840    5.4430   29.8580 O.3    43  TYR43      -0.2866
     13  N        -15.1120    5.2180   24.1350 N.3    45  GLY45      -0.1210
     14  CA       -13.6730    5.0540   24.0460 C.3    45  GLY45       0.1956
     15  C        -13.2710    3.9800   23.0620 C.2    45  GLY45       0.2612
     16  O        -13.9770    2.9890   22.9180 O.2    45  GLY45      -0.2717
     17  N        -12.1390    4.1700   22.3850 N.am   46  PHE46      -0.1962
     18  CA       -11.7320    3.2540   21.3170 C.3    46  PHE46       0.1771
     19  C        -10.2730    2.8710   21.4030 C.2    46  PHE46       0.2619
     20  O         -9.4070    3.7360   21.4780 O.2    46  PHE46      -0.2715
     21  CB       -11.9800    3.8860   19.9400 C.3    46  PHE46       0.0574
     22  CG       -13.3800    4.3340   19.7390 C.ar   46  PHE46      -0.0200
     23  CD1      -13.8280    5.5130   20.3230 C.ar   46  PHE46      -0.0042
     24  CD2      -14.2590    3.5850   18.9710 C.ar   46  PHE46      -0.0042
     25  CE1      -15.1350    5.9340   20.1530 C.ar   46  PHE46      -0.0003
     26  CE2      -15.5910    4.0100   18.7940 C.ar   46  PHE46      -0.0003
     27  CZ       -16.0180    5.1780   19.3850 C.ar   46  PHE46      -0.0000
     28  N        -10.0110    1.5710   21.3780 N.am   47  GLU47      -0.1977
     29  CA        -8.6570    1.0780   21.1970 C.3    47  GLU47       0.1602
     30  C         -8.2210    1.2510   19.7380 C.2    47  GLU47       0.2287
     31  O         -8.8380    0.6930   18.8430 O.2    47  GLU47      -0.2864
     32  CB        -8.5800   -0.3970   21.5820 C.3    47  GLU47       0.0415
     33  CG        -8.6030   -0.6580   23.0940 C.3    47  GLU47       0.1163
     34  CD        -8.1680   -2.0790   23.4230 C.2    47  GLU47       0.3649
     35  OE1       -7.6150   -2.7520   22.5260 O.co2  47  GLU47      -0.2457
     36  OE2       -8.3710   -2.5330   24.5610 O.co2  47  GLU47      -0.2457
     37  N        -12.7270    9.2310   23.1850 N.3    77  TRP77      -0.1241
     38  CA       -11.5170    8.9680   23.9660 C.3    77  TRP77       0.1605
     39  C        -10.6380    8.0090   23.1650 C.2    77  TRP77       0.2264
     40  O        -10.9810    6.8450   22.9900 O.2    77  TRP77      -0.2867
     41  CB       -11.9500    8.3360   25.2840 C.3    77  TRP77       0.0550
     42  CG       -10.9290    8.0400   26.3800 C.ar   77  TRP77       0.0003
     43  CD1      -10.6480    6.8060   26.9160 C.ar   77  TRP77       0.0946
     44  CD2      -10.1520    8.9860   27.1370 C.ar   77  TRP77       0.0152
     45  NE1       -9.7330    6.9280   27.9340 N.ar   77  TRP77      -0.2442
     46  CE2       -9.4190    8.2530   28.0960 C.ar   77  TRP77       0.0810
     47  CE3      -10.0060   10.3780   27.0980 C.ar   77  TRP77       0.0012
     48  CZ2       -8.5490    8.8620   28.9930 C.ar   77  TRP77       0.0191
     49  CZ3       -9.1350   10.9840   27.9990 C.ar   77  TRP77       0.0001
     50  CH2       -8.4210   10.2260   28.9330 C.ar   77  TRP77       0.0015
     51  N         -8.1250    5.7320   23.1360 N.3    79  ALA79      -0.1245
     52  CA        -7.5570    4.9880   24.2420 C.3    79  ALA79       0.1562
     53  C         -6.2410    4.3370   23.8260 C.2    79  ALA79       0.2260
     54  O         -6.1430    3.1150   23.7970 O.2    79  ALA79      -0.2867
     55  CB        -8.5560    3.9390   24.7270 C.3    79  ALA79       0.0290
     56  N         -4.4110    2.2790   26.4720 N.3    82  PHE82      -0.1241
     57  CA        -5.2270    1.0880   26.7030 C.3    82  PHE82       0.1605
     58  C         -4.9300    0.0170   25.6730 C.2    82  PHE82       0.2264
     59  O         -4.7560   -1.1550   26.0110 O.2    82  PHE82      -0.2867
     60  CB        -6.7150    1.4590   26.6950 C.3    82  PHE82       0.0534
     61  CG        -7.1510    2.2170   27.9240 C.ar   82  PHE82      -0.0203
     62  CD1       -7.0670    3.5960   27.9680 C.ar   82  PHE82      -0.0042
     63  CD2       -7.6140    1.5420   29.0440 C.ar   82  PHE82      -0.0042
     64  CE1       -7.4500    4.2900   29.0940 C.ar   82  PHE82      -0.0003
     65  CE2       -8.0020    2.2290   30.1760 C.ar   82  PHE82      -0.0003
     66  CZ        -7.9160    3.6030   30.2010 C.ar   82  PHE82      -0.0000
     67  N        -14.6970   -6.2790   28.5620 N.3   155  ILE155     -0.1231
     68  CA       -14.4740   -4.9110   28.0530 C.3   155  ILE155      0.1692
     69  C        -13.1720   -4.7950   27.2440 C.2   155  ILE155      0.2591
     70  O        -12.9650   -3.8270   26.5110 O.2   155  ILE155     -0.2718
     71  CB       -14.4590   -3.8380   29.1860 C.3   155  ILE155      0.0266
     72  CG1      -13.0970   -3.8310   29.8910 C.3   155  ILE155      0.0019
     73  CG2      -15.6370   -4.0460   30.1880 C.3   155  ILE155      0.0020
     74  CD1      -12.9410   -2.7530   30.9650 C.3   155  ILE155      0.0001
     75  N        -12.2830   -5.7730   27.3910 N.am  156  MET156     -0.1979
     76  CA       -11.0450   -5.7730   26.6150 C.3   156  MET156      0.1605
     77  C        -10.9570   -6.9570   25.6540 C.2   156  MET156      0.2287
     78  O         -9.8790   -7.3120   25.1920 O.2   156  MET156     -0.2864
     79  CB        -9.7940   -5.6800   27.5130 C.3   156  MET156      0.0413
     80  CG        -9.8360   -6.4860   28.7860 C.3   156  MET156      0.0598
     81  SD        -8.5840   -5.9540   29.9890 S.3   156  MET156     -0.1393
     82  CE        -9.3810   -6.4710   31.5000 C.3   156  MET156      0.0692
     83  N         -6.3080   -2.5010   33.6020 N.3   171  TYR171     -0.1241
     84  CA        -7.0480   -1.9010   32.5040 C.3   171  TYR171      0.1605
     85  C         -8.4570   -1.4650   32.9570 C.2   171  TYR171      0.2264
     86  O         -8.8120   -0.2940   32.8400 O.2   171  TYR171     -0.2867
     87  CB        -7.0640   -2.8860   31.3230 C.3   171  TYR171      0.0534
     88  CG        -7.7310   -2.4200   30.0390 C.ar  171  TYR171     -0.0201
     89  CD1       -7.0290   -2.4060   28.8370 C.ar  171  TYR171     -0.0009
     90  CD2       -9.0690   -2.0450   30.0180 C.ar  171  TYR171     -0.0009
     91  CE1       -7.6350   -2.0080   27.6600 C.ar  171  TYR171      0.0417
     92  CE2       -9.6880   -1.6570   28.8410 C.ar  171  TYR171      0.0417
     93  CZ        -8.9590   -1.6420   27.6630 C.ar  171  TYR171      0.1957
     94  OH        -9.5560   -1.2400   26.4920 O.3   171  TYR171     -0.2866
     95  N        -10.1460    2.1680   33.0980 N.3   175  GLN175     -0.1245
     96  CA       -11.3150    2.5580   32.3380 C.3   175  GLN175      0.1566
     97  C        -12.3540    3.1760   33.2830 C.2   175  GLN175      0.2260
     98  O        -12.9390    4.2020   32.9660 O.2   175  GLN175     -0.2867
     99  CB       -11.9010    1.3890   31.5310 C.3   175  GLN175      0.0367
    100  CG       -13.2080    1.7360   30.8070 C.3   175  GLN175      0.0905
    101  CD       -13.4720    0.8660   29.5610 C.2   175  GLN175      0.2608
    102  OE1      -12.5900    0.1490   29.0820 O.2   175  GLN175     -0.2717
    103  NE2      -14.6920    0.9420   29.0330 N.am  175  GLN175     -0.0878
    104  N        -11.4300    6.6680   34.1260 N.3   178  ASP178     -0.1239
    105  CA       -11.7180    7.5830   33.0170 C.3   178  ASP178      0.1674
    106  C        -13.0620    8.2770   33.1810 C.2   178  ASP178      0.2266
    107  O        -13.1990    9.4750   32.9180 O.2   178  ASP178     -0.2867
    108  CB       -11.7640    6.8250   31.6900 C.3   178  ASP178      0.1410
    109  CG       -10.4180    6.3220   31.2570 C.2   178  ASP178      0.3668
    110  OD1       -9.3950    6.8030   31.7940 O.co2 178  ASP178     -0.2456
    111  OD2      -10.3860    5.4450   30.3640 O.co2 178  ASP178     -0.2456
    112  N        -21.2690    3.7420   25.4890 N.3   189  LEU189     -0.1245
    113  CA       -20.4190    2.7480   24.8750 C.3   189  LEU189      0.1561
    114  C        -21.3080    1.5830   24.4390 C.2   189  LEU189      0.2260
    115  O        -22.4770    1.5390   24.7730 O.2   189  LEU189     -0.2867
    116  CB       -19.3950    2.2160   25.8900 C.3   189  LEU189      0.0270
    117  CG       -18.3380    3.0000   26.6930 C.3   189  LEU189      0.0019
    118  CD1      -16.9870    3.1190   25.9920 C.3   189  LEU189      0.0001
    119  CD2      -18.8000    4.3180   27.2740 C.3   189  LEU189      0.0001
    120  N        -21.1880   -4.4030   25.3090 N.3   192  ASP192     -0.1225
    121  CA       -20.0400   -5.2100   25.7390 C.3   192  ASP192      0.1805
    122  C        -19.1770   -4.5140   26.8070 C.2   192  ASP192      0.2597
    123  O        -18.4260   -5.1630   27.5360 O.2   192  ASP192     -0.2718
    124  CB       -19.1650   -5.6060   24.5250 C.3   192  ASP192      0.1424
    125  CG       -18.5490   -4.3950   23.8130 C.2   192  ASP192      0.3668
    126  OD1      -17.3050   -4.3310   23.6700 O.co2 192  ASP192     -0.2456
    127  OD2      -19.3040   -3.5060   23.3760 O.co2 192  ASP192     -0.2456
    128  N        -19.2810   -3.1950   26.8980 N.am  193  GLN193     -0.1979
    129  CA       -18.5130   -2.4320   27.8840 C.3   193  GLN193      0.1601
    130  C        -19.2460   -2.2470   29.2130 C.2   193  GLN193      0.2287
    131  O        -18.6890   -1.6790   30.1620 O.2   193  GLN193     -0.2864
    132  CB       -18.1650   -1.0510   27.3140 C.3   193  GLN193      0.0394
    133  CG       -17.3950   -1.1150   25.9980 C.3   193  GLN193      0.0908
    134  CD       -16.0200   -1.7170   26.1840 C.2   193  GLN193      0.2608
    135  OE1      -15.2020   -1.1920   26.9450 O.2   193  GLN193     -0.2717
    136  NE2      -15.7610   -2.8350   25.5080 N.am  193  GLN193     -0.0878
@<TRIPOS>BOND
     1    26    24   ar
     2    26    27   ar
     3    31    30    2
     4    24    22   ar
     5    27    25   ar
     6    30    29    1
     7    22    21    1
     8    22    23   ar
     9    21    18    1
    10    25    23   ar
    11    29    28    1
    12    29    32    1
    13    18    19    1
    14    18    17    1
    15    28    19   am
    16    19    20    2
    17    32    33    1
    18    17    15   am
    19    35    34   ar
    20    16    15    2
    21    40    39    2
    22    15    14    1
    23    33    34    1
    24    51    52    1
    25    39    38    1
    26    37    38    1
    27   127   125   ar
    28    34    36   ar
    29   126   125   ar
    30    54    53    2
    31   125   124    1
    32    53    52    1
    33    38    41    1
    34    14    13    1
    35    52    55    1
    36   114   115    2
    37   114   113    1
    38   124   121    1
    39   113   112    1
    40   113   116    1
    41    78    77    2
    42    41    42    1
    43   120   121    1
    44     3     2    1
    45     3     4    2
    46   136   134   am
    47    77    76    1
    48    58    59    2
    49    58    57    1
    50   121   122    1
    51   116   117    1
    52     2     1    1
    53     2     5    1
    54   118   117    1
    55   133   134    1
    56   133   132    1
    57   134   135    2
    58    42    43   ar
    59    42    44   ar
    60    56    57    1
    61    94    93    1
    62    70    69    2
    63    76    75    1
    64    76    79    1
    65   117   119    1
    66    60    57    1
    67    60    61    1
    68   122   128   am
    69   122   123    2
    70     5     6    1
    71   128   129    1
    72    43    45   ar
    73    47    44   ar
    74    47    49   ar
    75    44    46   ar
    76    69    75   am
    77    69    68    1
    78   132   129    1
    79     8     6   ar
    80     8    10   ar
    81    79    80    1
    82     6     7   ar
    83    91    93   ar
    84    91    89   ar
    85    93    92   ar
    86   129   130    1
    87    61    62   ar
    88    61    63   ar
    89    45    46   ar
    90    62    64   ar
    91    49    50   ar
    92    68    67    1
    93    68    71    1
    94    46    48   ar
    95    10    11   ar
    96     7     9   ar
    97    80    81    1
    98    89    88   ar
    99    92    90   ar
   100    50    48   ar
   101   103   101   am
   102    63    65   ar
   103   102   101    2
   104    64    66   ar
   105    11     9   ar
   106    11    12    1
   107    71    72    1
   108    71    73    1
   109   130   131    2
   110   101   100    1
   111    72    74    1
   112    81    82    1
   113    90    88   ar
   114    88    87    1
   115    65    66   ar
   116   111   109   ar
   117   100    99    1
   118   109   108    1
   119   109   110   ar
   120    87    84    1
   121    99    96    1
   122   108   105    1
   123    96    95    1
   124    96    97    1
   125    84    85    1
   126    84    83    1
   127    86    85    2
   128   107   106    2
   129    98    97    2
   130   105   106    1
   131   105   104    1
