@<TRIPOS>MOLECULE
tmp/3vgjB01.pdb
 175 167 0 0 0
SMALL
GASTEIGER

@<TRIPOS>ATOM
      1  N        -17.3830    7.8800   24.5270 N.3    44  ASP44      -0.1225
      2  CA       -17.1720    6.5120   24.0990 C.3    44  ASP44       0.1805
      3  C        -15.6720    6.4080   23.9270 C.2    44  ASP44       0.2598
      4  O        -15.0230    7.4080   23.6130 O.2    44  ASP44      -0.2718
      5  CB       -17.8760    6.2420   22.7680 C.3    44  ASP44       0.1424
      6  CG       -17.9760    4.7400   22.4450 C.2    44  ASP44       0.3668
      7  OD1      -17.3230    3.9360   23.1390 O.co2  44  ASP44      -0.2456
      8  OD2      -18.7010    4.3550   21.4960 O.co2  44  ASP44      -0.2456
      9  N        -15.1120    5.2180   24.1350 N.am   45  GLY45      -0.1942
     10  CA       -13.6730    5.0540   24.0460 C.3    45  GLY45       0.2014
     11  C        -13.2710    3.9800   23.0620 C.2    45  GLY45       0.2639
     12  O        -13.9770    2.9890   22.9180 O.2    45  GLY45      -0.2714
     13  N        -12.1390    4.1700   22.3850 N.am   46  PHE46      -0.1959
     14  CA       -11.7320    3.2540   21.3170 C.3    46  PHE46       0.1771
     15  C        -10.2730    2.8710   21.4030 C.2    46  PHE46       0.2619
     16  O         -9.4070    3.7360   21.4780 O.2    46  PHE46      -0.2715
     17  CB       -11.9800    3.8860   19.9400 C.3    46  PHE46       0.0574
     18  CG       -13.3800    4.3340   19.7390 C.ar   46  PHE46      -0.0200
     19  CD1      -13.8280    5.5130   20.3230 C.ar   46  PHE46      -0.0042
     20  CD2      -14.2590    3.5850   18.9710 C.ar   46  PHE46      -0.0042
     21  CE1      -15.1350    5.9340   20.1530 C.ar   46  PHE46      -0.0003
     22  CE2      -15.5910    4.0100   18.7940 C.ar   46  PHE46      -0.0003
     23  CZ       -16.0180    5.1780   19.3850 C.ar   46  PHE46      -0.0000
     24  N        -10.0110    1.5710   21.3780 N.am   47  GLU47      -0.1977
     25  CA        -8.6570    1.0780   21.1970 C.3    47  GLU47       0.1602
     26  C         -8.2210    1.2510   19.7380 C.2    47  GLU47       0.2287
     27  O         -8.8380    0.6930   18.8430 O.2    47  GLU47      -0.2864
     28  CB        -8.5800   -0.3970   21.5820 C.3    47  GLU47       0.0415
     29  CG        -8.6030   -0.6580   23.0940 C.3    47  GLU47       0.1163
     30  CD        -8.1680   -2.0790   23.4230 C.2    47  GLU47       0.3649
     31  OE1       -7.6150   -2.7520   22.5260 O.co2  47  GLU47      -0.2457
     32  OE2       -8.3710   -2.5330   24.5610 O.co2  47  GLU47      -0.2457
     33  N         -6.6190   -0.0990   17.2340 N.3    49  SER49      -0.1217
     34  CA        -6.0550   -1.4420   17.1100 C.3    49  SER49       0.1889
     35  C         -6.2120   -2.0790   15.7340 C.2    49  SER49       0.2288
     36  O         -6.0380   -3.2850   15.5950 O.2    49  SER49      -0.2866
     37  CB        -6.6970   -2.3630   18.1510 C.3    49  SER49       0.2089
     38  OG        -8.1130   -2.2720   18.1050 O.3    49  SER49      -0.2183
     39  N        -14.3370   -0.3950   11.5620 N.3    53  HIS53      -0.1241
     40  CA       -15.4920   -0.9930   10.8950 C.3    53  HIS53       0.1621
     41  C        -16.7230   -0.1070   11.1020 C.2    53  HIS53       0.2264
     42  O        -16.6910    0.8380   11.9030 O.2    53  HIS53      -0.2867
     43  CB       -15.7320   -2.4410   11.3470 C.3    53  HIS53       0.0745
     44  CG       -15.9310   -2.6000   12.8220 C.ar   53  HIS53       0.0817
     45  ND1      -17.0680   -2.1730   13.4710 N.ar   53  HIS53      -0.2268
     46  CD2      -15.1520   -3.1760   13.7720 C.ar   53  HIS53       0.1154
     47  CE1      -16.9760   -2.4600   14.7590 C.ar   53  HIS53       0.1986
     48  NE2      -15.8260   -3.0760   14.9660 N.ar   53  HIS53      -0.2212
     49  N        -19.5500   -0.0600   12.5350 N.3    55  ALA55      -0.1231
     50  CA       -20.2050    0.1990   13.8240 C.3    55  ALA55       0.1694
     51  C        -19.5630    1.4170   14.4970 C.2    55  ALA55       0.2591
     52  O        -20.2530    2.2560   15.0800 O.2    55  ALA55      -0.2718
     53  CB       -20.1260   -1.0130   14.7370 C.3    55  ALA55       0.0304
     54  N        -18.2400    1.5110   14.3860 N.am   56  GLN56      -0.1979
     55  CA       -17.4640    2.5630   15.0410 C.3    56  GLN56       0.1601
     56  C        -17.4610    3.8740   14.2560 C.2    56  GLN56       0.2287
     57  O        -17.1310    4.9360   14.7960 O.2    56  GLN56      -0.2864
     58  CB       -16.0330    2.0740   15.2500 C.3    56  GLN56       0.0394
     59  CG       -15.9850    0.7040   15.9140 C.3    56  GLN56       0.0908
     60  CD       -14.5770    0.1880   16.1040 C.2    56  GLN56       0.2608
     61  OE1      -13.7500    0.2060   15.1780 O.2    56  GLN56      -0.2717
     62  NE2      -14.2940   -0.2910   17.3100 N.am   56  GLN56      -0.0878
     63  N        -22.4160    3.9370   12.5440 N.3    59  LEU59      -0.1245
     64  CA       -23.4010    3.7760   13.6070 C.3    59  LEU59       0.1561
     65  C        -23.1400    4.7890   14.7270 C.2    59  LEU59       0.2260
     66  O        -24.0620    5.4600   15.1940 O.2    59  LEU59      -0.2867
     67  CB       -23.3820    2.3330   14.1160 C.3    59  LEU59       0.0270
     68  CG       -24.3530    1.7900   15.1740 C.3    59  LEU59       0.0019
     69  CD1      -23.7950    2.0000   16.5260 C.3    59  LEU59       0.0001
     70  CD2      -25.7610    2.3440   15.0820 C.3    59  LEU59       0.0001
     71  N        -14.6970   -6.2790   28.5620 N.3   155  ILE155     -0.1245
     72  CA       -14.4740   -4.9110   28.0530 C.3   155  ILE155      0.1561
     73  C        -13.1720   -4.7950   27.2440 C.2   155  ILE155      0.2260
     74  O        -12.9650   -3.8270   26.5110 O.2   155  ILE155     -0.2867
     75  CB       -14.4590   -3.8380   29.1860 C.3   155  ILE155      0.0252
     76  CG1      -13.0970   -3.8310   29.8910 C.3   155  ILE155      0.0019
     77  CG2      -15.6370   -4.0460   30.1880 C.3   155  ILE155      0.0019
     78  CD1      -12.9410   -2.7530   30.9650 C.3   155  ILE155      0.0001
     79  N         -6.3080   -2.5010   33.6020 N.3   171  TYR171     -0.1241
     80  CA        -7.0480   -1.9010   32.5040 C.3   171  TYR171      0.1605
     81  C         -8.4570   -1.4650   32.9570 C.2   171  TYR171      0.2264
     82  O         -8.8120   -0.2940   32.8400 O.2   171  TYR171     -0.2867
     83  CB        -7.0640   -2.8860   31.3230 C.3   171  TYR171      0.0534
     84  CG        -7.7310   -2.4200   30.0390 C.ar  171  TYR171     -0.0201
     85  CD1       -7.0290   -2.4060   28.8370 C.ar  171  TYR171     -0.0009
     86  CD2       -9.0690   -2.0450   30.0180 C.ar  171  TYR171     -0.0009
     87  CE1       -7.6350   -2.0080   27.6600 C.ar  171  TYR171      0.0417
     88  CE2       -9.6880   -1.6570   28.8410 C.ar  171  TYR171      0.0417
     89  CZ        -8.9590   -1.6420   27.6630 C.ar  171  TYR171      0.1957
     90  OH        -9.5560   -1.2400   26.4920 O.3   171  TYR171     -0.2866
     91  N        -21.2690    3.7420   25.4890 N.3   189  LEU189     -0.1231
     92  CA       -20.4190    2.7480   24.8750 C.3   189  LEU189      0.1693
     93  C        -21.3080    1.5830   24.4390 C.2   189  LEU189      0.2592
     94  O        -22.4770    1.5390   24.7730 O.2   189  LEU189     -0.2718
     95  CB       -19.3950    2.2160   25.8900 C.3   189  LEU189      0.0284
     96  CG       -18.3380    3.0000   26.6930 C.3   189  LEU189      0.0019
     97  CD1      -16.9870    3.1190   25.9920 C.3   189  LEU189      0.0001
     98  CD2      -18.8000    4.3180   27.2740 C.3   189  LEU189      0.0001
     99  N        -20.7350    0.6270   23.7200 N.am  190  GLY190     -0.1957
    100  CA       -21.4580   -0.5770   23.3650 C.3   190  GLY190      0.1869
    101  C        -21.7850   -1.4140   24.5940 C.2   190  GLY190      0.2309
    102  O        -21.1660   -1.2640   25.6510 O.2   190  GLY190     -0.2863
    103  N        -21.1880   -4.4030   25.3090 N.3   192  ASP192     -0.1225
    104  CA       -20.0400   -5.2100   25.7390 C.3   192  ASP192      0.1805
    105  C        -19.1770   -4.5140   26.8070 C.2   192  ASP192      0.2597
    106  O        -18.4260   -5.1630   27.5360 O.2   192  ASP192     -0.2718
    107  CB       -19.1650   -5.6060   24.5250 C.3   192  ASP192      0.1424
    108  CG       -18.5490   -4.3950   23.8130 C.2   192  ASP192      0.3668
    109  OD1      -17.3050   -4.3310   23.6700 O.co2 192  ASP192     -0.2456
    110  OD2      -19.3040   -3.5060   23.3760 O.co2 192  ASP192     -0.2456
    111  N        -19.2810   -3.1950   26.8980 N.am  193  GLN193     -0.1979
    112  CA       -18.5130   -2.4320   27.8840 C.3   193  GLN193      0.1601
    113  C        -19.2460   -2.2470   29.2130 C.2   193  GLN193      0.2287
    114  O        -18.6890   -1.6790   30.1620 O.2   193  GLN193     -0.2864
    115  CB       -18.1650   -1.0510   27.3140 C.3   193  GLN193      0.0394
    116  CG       -17.3950   -1.1150   25.9980 C.3   193  GLN193      0.0908
    117  CD       -16.0200   -1.7170   26.1840 C.2   193  GLN193      0.2608
    118  OE1      -15.2020   -1.1920   26.9450 O.2   193  GLN193     -0.2717
    119  NE2      -15.7610   -2.8350   25.5080 N.am  193  GLN193     -0.0878
    120  N        -25.4260    1.2500   23.6090 N.3   218  HIS218     -0.1226
    121  CA       -26.0290    0.9090   22.3240 C.3   218  HIS218      0.1752
    122  C        -25.8110   -0.5830   22.0560 C.2   218  HIS218      0.2597
    123  O        -24.9100   -1.2070   22.6360 O.2   218  HIS218     -0.2718
    124  CB       -25.4530    1.7720   21.1880 C.3   218  HIS218      0.0759
    125  CG       -23.9740    1.6210   21.0010 C.ar  218  HIS218      0.0818
    126  ND1      -23.0600    2.5200   21.5100 N.ar  218  HIS218     -0.2268
    127  CD2      -23.2500    0.6680   20.3700 C.ar  218  HIS218      0.1154
    128  CE1      -21.8400    2.1290   21.1930 C.ar  218  HIS218      0.1986
    129  NE2      -21.9280    1.0030   20.5050 N.ar  218  HIS218     -0.2212
    130  N        -26.6450   -1.1550   21.1940 N.am  219  GLY219     -0.1942
    131  CA       -26.5430   -2.5680   20.8630 C.3   219  GLY219      0.2014
    132  C        -25.3810   -2.8760   19.9320 C.2   219  GLY219      0.2639
    133  O        -24.8550   -1.9820   19.2670 O.2   219  GLY219     -0.2714
    134  N        -24.9730   -4.1420   19.8870 N.am  220  MET220     -0.1963
    135  CA       -23.9010   -4.5580   18.9930 C.3   220  MET220      0.1736
    136  C        -24.4410   -4.6410   17.5620 C.2   220  MET220      0.2616
    137  O        -25.4720   -5.2540   17.3170 O.2   220  MET220     -0.2715
    138  CB       -23.3220   -5.9140   19.4220 C.3   220  MET220      0.0427
    139  CG       -22.6480   -5.9480   20.7990 C.3   220  MET220      0.0599
    140  SD       -21.5180   -4.5910   21.1790 S.3   220  MET220     -0.1393
    141  CE       -20.2690   -4.8570   19.9520 C.3   220  MET220      0.0692
    142  N        -23.7760   -3.9780   16.6260 N.am  221  LEU221     -0.1977
    143  CA       -24.0570   -4.2080   15.2260 C.3   221  LEU221      0.1596
    144  C        -23.5000   -5.6010   14.9550 C.2   221  LEU221      0.2287
    145  O        -22.3490   -5.8730   15.2880 O.2   221  LEU221     -0.2864
    146  CB       -23.3570   -3.1620   14.3630 C.3   221  LEU221      0.0297
    147  CG       -23.8460   -3.0140   12.9180 C.3   221  LEU221      0.0022
    148  CD1      -25.1810   -2.2400   12.8490 C.3   221  LEU221      0.0001
    149  CD2      -22.7910   -2.3370   12.0800 C.3   221  LEU221      0.0001
    150  N        -21.4950   -9.9690   16.8810 N.3   230  LYS230     -0.1231
    151  CA       -20.7300   -8.7350   17.0210 C.3   230  LYS230      0.1693
    152  C        -19.7940   -8.5380   15.8460 C.2   230  LYS230      0.2591
    153  O        -18.8150   -9.2660   15.7020 O.2   230  LYS230     -0.2718
    154  CB       -19.9290   -8.7850   18.3250 C.3   230  LYS230      0.0285
    155  CG       -19.0420   -7.5750   18.6160 C.3   230  LYS230      0.0035
    156  CD       -18.4580   -7.6990   20.0360 C.3   230  LYS230      0.0206
    157  CE       -17.7370   -6.4310   20.4920 C.3   230  LYS230      0.1093
    158  NZ       -16.7910   -5.9180   19.4430 N.3   230  LYS230     -0.1314
    159  N        -20.1010   -7.5680   14.9930 N.am  231  MET231     -0.1979
    160  CA       -19.1470   -7.1740   13.9710 C.3   231  MET231      0.1605
    161  C        -17.8520   -6.7720   14.6620 C.2   231  MET231      0.2287
    162  O        -17.8650   -5.9840   15.6150 O.2   231  MET231     -0.2864
    163  CB       -19.6710   -6.0010   13.1330 C.3   231  MET231      0.0413
    164  CG       -18.6930   -5.5690   12.0230 C.3   231  MET231      0.0598
    165  SD       -19.2290   -4.1480   11.0170 S.3   231  MET231     -0.1393
    166  CE       -20.6020   -4.8980   10.1190 C.3   231  MET231      0.0692
    167  N        -13.1040   -6.9360   14.2000 N.3   233  LYS233     -0.1245
    168  CA       -11.8560   -7.3850   13.5930 C.3   233  LYS233      0.1561
    169  C        -11.4470   -8.7990   14.0300 C.2   233  LYS233      0.2260
    170  O        -10.7270   -9.4850   13.3120 O.2   233  LYS233     -0.2867
    171  CB       -10.7330   -6.3980   13.9440 C.3   233  LYS233      0.0271
    172  CG       -11.0750   -4.9400   13.6850 C.3   233  LYS233      0.0035
    173  CD        -9.8990   -4.0370   14.0250 C.3   233  LYS233      0.0206
    174  CE        -9.5200   -4.1430   15.5010 C.3   233  LYS233      0.1093
    175  NZ       -10.5580   -3.5720   16.4250 N.3   233  LYS233     -0.1314
@<TRIPOS>BOND
     1   166   165    1
     2    40    41    1
     3    40    43    1
     4    40    39    1
     5   165   164    1
     6    41    42    2
     7    43    44    1
     8   164   163    1
     9   149   147    1
    10    49    50    1
    11    63    64    1
    12    44    45   ar
    13    44    46   ar
    14   148   147    1
    15   147   146    1
    16   163   160    1
    17   170   169    2
    18    45    47   ar
    19   168   171    1
    20   168   169    1
    21   168   167    1
    22    64    67    1
    23    64    65    1
    24   172   171    1
    25   172   173    1
    26    46    48   ar
    27    50    51    1
    28    50    53    1
    29   160   161    1
    30   160   159    1
    31   173   174    1
    32    67    68    1
    33    56    57    2
    34    56    55    1
    35   146   143    1
    36    54    51   am
    37    54    55    1
    38    51    52    2
    39   161   162    2
    40    65    66    2
    41    47    48   ar
    42   144   143    1
    43   144   145    2
    44   159   152   am
    45    55    58    1
    46    70    68    1
    47    68    69    1
    48    61    60    2
    49   143   142    1
    50    58    59    1
    51   174   175    1
    52    36    35    2
    53   153   152    2
    54    35    34    1
    55   152   151    1
    56    59    60    1
    57    60    62   am
    58   142   136   am
    59   150   151    1
    60   151   154    1
    61    34    33    1
    62    34    37    1
    63   137   136    2
    64   136   135    1
    65    38    37    1
    66   154   155    1
    67   155   156    1
    68    22    20   ar
    69    22    23   ar
    70    27    26    2
    71    20    18   ar
    72   135   138    1
    73   135   134    1
    74   133   132    2
    75    23    21   ar
    76   138   139    1
    77   158   157    1
    78    26    25    1
    79    18    17    1
    80    18    19   ar
    81   134   132   am
    82   132   131    1
    83    17    14    1
    84   141   140    1
    85   156   157    1
    86    21    19   ar
    87   127   129   ar
    88   127   125   ar
    89   129   128   ar
    90   139   140    1
    91   131   130    1
    92   125   124    1
    93   125   126   ar
    94   124   121    1
    95   128   126   ar
    96   130   122   am
    97    25    24    1
    98    25    28    1
    99    14    15    1
   100    14    13    1
   101    24    15   am
   102    15    16    2
   103     8     6   ar
   104    28    29    1
   105   122   121    1
   106   122   123    2
   107   121   120    1
   108    13    11   am
   109     6     5    1
   110     6     7   ar
   111    31    30   ar
   112     5     2    1
   113    12    11    2
   114    11    10    1
   115    29    30    1
   116   100    99    1
   117   100   101    1
   118   110   108   ar
   119    30    32   ar
   120     4     3    2
   121   109   108   ar
   122    99    93   am
   123   108   107    1
   124     3     2    1
   125     3     9   am
   126    10     9    1
   127     2     1    1
   128    93    94    2
   129    93    92    1
   130   107   104    1
   131   101   102    2
   132    92    91    1
   133    92    95    1
   134   103   104    1
   135   119   117   am
   136   104   105    1
   137    95    96    1
   138    97    96    1
   139   116   117    1
   140   116   115    1
   141   117   118    2
   142    90    89    1
   143    74    73    2
   144    96    98    1
   145   105   111   am
   146   105   106    2
   147   111   112    1
   148    73    72    1
   149   115   112    1
   150    87    89   ar
   151    87    85   ar
   152    89    88   ar
   153   112   113    1
   154    72    71    1
   155    72    75    1
   156    85    84   ar
   157    88    86   ar
   158    75    76    1
   159    75    77    1
   160   113   114    2
   161    76    78    1
   162    86    84   ar
   163    84    83    1
   164    83    80    1
   165    80    81    1
   166    80    79    1
   167    82    81    2
