@<TRIPOS>MOLECULE
tmp/3vglA01.pdb
 144 134 0 0 0
SMALL
GASTEIGER

@<TRIPOS>ATOM
      1  N          8.5900   20.4290   26.0760 N.3     7  ASP7       -0.1239
      2  CA         8.2260   21.4020   25.0360 C.3     7  ASP7        0.1674
      3  C          7.7690   20.5960   23.8400 C.2     7  ASP7        0.2266
      4  O          8.5410   19.8060   23.2850 O.2     7  ASP7       -0.2867
      5  CB         9.4570   22.2700   24.6970 C.3     7  ASP7        0.1410
      6  CG         9.1450   23.3740   23.6840 C.2     7  ASP7        0.3668
      7  OD1        8.5270   23.0920   22.6270 O.co2   7  ASP7       -0.2456
      8  OD2        9.5280   24.5350   23.9510 O.co2   7  ASP7       -0.2456
      9  N          6.6130   20.9160   20.1850 N.3     9  GLY9       -0.1210
     10  CA         6.5350   21.8080   19.0140 C.3     9  GLY9        0.1956
     11  C          6.0200   21.0660   17.7950 C.2     9  GLY9        0.2612
     12  O          5.7860   19.8630   17.8350 O.2     9  GLY9       -0.2717
     13  N          5.8270   21.8020   16.6990 N.am   10  GLY10      -0.1942
     14  CA         5.3810   21.1960   15.4380 C.3    10  GLY10       0.2014
     15  C          6.3150   20.1120   14.9120 C.2    10  GLY10       0.2640
     16  O          5.8690   19.2000   14.2150 O.2    10  GLY10      -0.2714
     17  N          7.6060   20.2060   15.2450 N.am   11  THR11      -0.1936
     18  CA         8.6160   19.3010   14.7020 C.3    11  THR11       0.2028
     19  C          9.1720   18.3860   15.7910 C.2    11  THR11       0.2642
     20  O          9.3230   17.1840   15.5700 O.2    11  THR11      -0.2714
     21  CB         9.7700   20.1090   14.0130 C.3    11  THR11       0.1808
     22  OG1        9.2050   20.9270   12.9770 O.3    11  THR11      -0.2208
     23  CG2       10.8020   19.2010   13.3650 C.3    11  THR11       0.0379
     24  N          9.4640   18.9620   16.9590 N.am   12  LYS12      -0.1977
     25  CA        10.2190   18.2700   18.0090 C.3    12  LYS12       0.1596
     26  C          9.5320   18.3020   19.3590 C.2    12  LYS12       0.2287
     27  O          8.8980   19.2870   19.7320 O.2    12  LYS12      -0.2864
     28  CB        11.5870   18.9410   18.2040 C.3    12  LYS12       0.0298
     29  CG        12.4150   19.1390   16.9570 C.3    12  LYS12       0.0038
     30  CD        13.3510   20.3180   17.1720 C.3    12  LYS12       0.0206
     31  CE        14.1670   20.5990   15.9330 C.3    12  LYS12       0.1093
     32  NZ        15.1680   21.6680   16.1820 N.3    12  LYS12      -0.1314
     33  N          3.6610   27.0840   24.5300 N.3   104  ASP104     -0.1239
     34  CA         5.1200   26.9220   24.4640 C.3   104  ASP104      0.1674
     35  C          5.8990   28.2140   24.4890 C.2   104  ASP104      0.2266
     36  O          6.9550   28.2740   25.0990 O.2   104  ASP104     -0.2867
     37  CB         5.5460   26.0700   23.2490 C.3   104  ASP104      0.1410
     38  CG         5.1860   26.6980   21.9060 C.2   104  ASP104      0.3668
     39  OD1        4.1920   27.4280   21.8260 O.co2 104  ASP104     -0.2456
     40  OD2        5.8920   26.4340   20.9120 O.co2 104  ASP104     -0.2456
     41  N         10.9820   31.5520   16.9770 N.3   129  LEU129     -0.1231
     42  CA        11.0250   31.2320   15.5510 C.3   129  LEU129      0.1693
     43  C         11.3530   29.7640   15.3960 C.2   129  LEU129      0.2593
     44  O         12.4560   29.3370   15.7070 O.2   129  LEU129     -0.2718
     45  CB        12.1090   32.0840   14.8690 C.3   129  LEU129      0.0284
     46  CG        11.9200   33.6000   14.9280 C.3   129  LEU129      0.0019
     47  CD1       13.1350   34.2960   14.3360 C.3   129  LEU129      0.0001
     48  CD2       10.6290   34.0160   14.1830 C.3   129  LEU129      0.0001
     49  N         10.3930   29.0010   14.8900 N.am  130  GLY130     -0.1942
     50  CA        10.5250   27.5320   14.8060 C.3   130  GLY130      0.2014
     51  C          9.6320   27.0210   13.7060 C.2   130  GLY130      0.2640
     52  O          9.5870   27.6010   12.6140 O.2   130  GLY130     -0.2714
     53  N          8.9040   25.9400   13.9810 N.am  131  THR131     -0.1936
     54  CA         7.9070   25.4610   13.0180 C.3   131  THR131      0.2028
     55  C          6.9210   26.5700   12.6900 C.2   131  THR131      0.2642
     56  O          6.5170   26.7430   11.5290 O.2   131  THR131     -0.2714
     57  CB         7.1520   24.2680   13.5930 C.3   131  THR131      0.1808
     58  OG1        8.1090   23.2520   13.8780 O.3   131  THR131     -0.2208
     59  CG2        6.1600   23.6970   12.5900 C.3   131  THR131      0.0379
     60  N          6.5400   27.2890   13.7430 N.am  132  GLY132     -0.1954
     61  CA         5.6990   28.4710   13.6230 C.3   132  GLY132      0.1869
     62  C          6.3580   29.6460   14.3270 C.2   132  GLY132      0.2309
     63  O          7.5360   29.6160   14.6490 O.2   132  GLY132     -0.2863
     64  N         11.2300   29.3590   11.3370 N.3   180  GLY180     -0.1210
     65  CA        12.2450   28.4290   10.7710 C.3   180  GLY180      0.1956
     66  C         11.7680   27.8580    9.4390 C.2   180  GLY180      0.2611
     67  O         12.5510   27.7060    8.5010 O.2   180  GLY180     -0.2717
     68  N         10.4720   27.5630    9.3410 N.am  181  ARG181     -0.1979
     69  CA         9.9300   27.0530    8.0800 C.3   181  ARG181      0.1597
     70  C         10.0520   28.0670    6.9600 C.2   181  ARG181      0.2287
     71  O         10.3530   27.6730    5.8350 O.2   181  ARG181     -0.2864
     72  CB         8.4800   26.5590    8.2060 C.3   181  ARG181      0.0334
     73  CG         8.3630   25.2270    8.8390 C.3   181  ARG181      0.0492
     74  CD         6.9600   24.6710    8.6660 C.3   181  ARG181      0.2205
     75  NE         6.9400   23.3000    9.1720 N.pl3 181  ARG181     -0.0865
     76  CZ         5.8310   22.6120    9.4050 C.cat 181  ARG181      0.5346
     77  NH1        5.9080   21.3730    9.8690 N.pl3 181  ARG181      0.1354
     78  NH2        4.6500   23.1730    9.1810 N.pl3 181  ARG181      0.1354
     79  N         12.3460   30.4790    6.8270 N.3   183  LEU183     -0.1231
     80  CA        13.7770   30.4600    6.4870 C.3   183  LEU183      0.1693
     81  C         14.1150   29.3680    5.4610 C.2   183  LEU183      0.2591
     82  O         14.8030   29.6390    4.4650 O.2   183  LEU183     -0.2718
     83  CB        14.6210   30.2890    7.7550 C.3   183  LEU183      0.0284
     84  CG        16.1470   30.2650    7.5210 C.3   183  LEU183      0.0019
     85  CD1       16.6420   31.6620    7.1050 C.3   183  LEU183      0.0001
     86  CD2       16.7770   29.8130    8.8140 C.3   183  LEU183      0.0001
     87  N         13.6510   28.1430    5.7260 N.am  184  VAL184     -0.1980
     88  CA        13.8820   27.0280    4.8140 C.3   184  VAL184      0.1595
     89  C         13.2750   27.3230    3.4500 C.2   184  VAL184      0.2287
     90  O         13.9040   27.0740    2.4140 O.2   184  VAL184     -0.2864
     91  CB        13.3550   25.7210    5.4130 C.3   184  VAL184      0.0276
     92  CG1       13.3990   24.5890    4.3860 C.3   184  VAL184      0.0022
     93  CG2       14.1720   25.3780    6.6430 C.3   184  VAL184      0.0022
     94  N         17.0830   23.4300    7.8860 N.3   214  GLY214     -0.1210
     95  CA        17.3480   24.6760    8.6140 C.3   214  GLY214      0.1956
     96  C         18.7810   24.7920    9.1140 C.2   214  GLY214      0.2611
     97  O         19.4500   25.7890    8.8660 O.2   214  GLY214     -0.2717
     98  N         19.2640   23.7660    9.8140 N.am  215  LYS215     -0.1979
     99  CA        20.6070   23.8150   10.3750 C.3   215  LYS215      0.1596
    100  C         21.6960   23.9670    9.3060 C.2   215  LYS215      0.2287
    101  O         22.7190   24.6120    9.5520 O.2   215  LYS215     -0.2864
    102  CB        20.8560   22.6110   11.2940 C.3   215  LYS215      0.0298
    103  CG        20.1130   22.7650   12.6320 C.3   215  LYS215      0.0038
    104  CD        20.1280   21.5210   13.5180 C.3   215  LYS215      0.0206
    105  CE        19.1740   21.7230   14.7050 C.3   215  LYS215      0.1093
    106  NZ        19.3420   20.6750   15.7580 N.3   215  LYS215     -0.1314
    107  N         22.0390   27.7200    8.4920 N.3   218  SER218     -0.1217
    108  CA        22.7980   28.4090    9.5310 C.3   218  SER218      0.1889
    109  C         24.3040   28.1900    9.3540 C.2   218  SER218      0.2288
    110  O         25.0660   29.1600    9.2720 O.2   218  SER218     -0.2866
    111  CB        22.3570   27.9310   10.9120 C.3   218  SER218      0.2089
    112  OG        21.0410   28.4110   11.1970 O.3   218  SER218     -0.2183
    113  N         13.1970   30.0520   20.0590 N.3   259  GLY259     -0.1210
    114  CA        12.9980   29.0440   19.0200 C.3   259  GLY259      0.1956
    115  C         14.3030   28.3590   18.6860 C.2   259  GLY259      0.2612
    116  O         15.3680   28.8280   19.0760 O.2   259  GLY259     -0.2717
    117  N         14.2320   27.2360   17.9720 N.am  260  GLY260     -0.1942
    118  CA        15.4480   26.5440   17.5530 C.3   260  GLY260      0.2014
    119  C         16.4850   27.4030   16.8720 C.2   260  GLY260      0.2638
    120  O         17.6650   27.2640   17.1570 O.2   260  GLY260     -0.2714
    121  N         16.0730   28.3020   15.9820 N.am  261  VAL261     -0.1977
    122  CA        17.1320   29.0530   15.2790 C.3   261  VAL261      0.1596
    123  C         17.8520   30.0560   16.1820 C.2   261  VAL261      0.2287
    124  O         18.9750   30.4550   15.8760 O.2   261  VAL261     -0.2864
    125  CB        16.6460   29.6990   13.9910 C.3   261  VAL261      0.0276
    126  CG1       15.6150   30.7480   14.3000 C.3   261  VAL261      0.0022
    127  CG2       17.8230   30.2570   13.1630 C.3   261  VAL261      0.0022
    128  N         19.3300   29.3560   18.6930 N.3   263  ASP263     -0.1225
    129  CA        20.5710   28.6760   19.0550 C.3   263  ASP263      0.1805
    130  C         21.7730   29.2420   18.3130 C.2   263  ASP263      0.2597
    131  O         22.9340   29.0720   18.7530 O.2   263  ASP263     -0.2718
    132  CB        20.4550   27.1810   18.7530 C.3   263  ASP263      0.1424
    133  CG        19.5420   26.4560   19.7210 C.2   263  ASP263      0.3668
    134  OD1       19.3800   26.9140   20.8710 O.co2 263  ASP263     -0.2456
    135  OD2       19.0080   25.3970   19.3370 O.co2 263  ASP263     -0.2456
    136  N         21.5020   29.9140   17.1920 N.am  264  GLU264     -0.1979
    137  CA        22.5840   30.4580   16.3700 C.3   264  GLU264      0.1602
    138  C         23.1060   31.8160   16.8350 C.2   264  GLU264      0.2287
    139  O         24.1010   32.2990   16.2910 O.2   264  GLU264     -0.2864
    140  CB        22.1950   30.5120   14.8900 C.3   264  GLU264      0.0415
    141  CG        21.7220   29.1750   14.3230 C.3   264  GLU264      0.1163
    142  CD        22.7730   28.0710   14.3110 C.2   264  GLU264      0.3649
    143  OE1       23.9930   28.3590   14.4130 O.co2 264  GLU264     -0.2457
    144  OE2       22.3800   26.8930   14.1880 O.co2 264  GLU264     -0.2457
@<TRIPOS>BOND
     1    90    89    2
     2    89    88    1
     3    92    91    1
     4    82    81    2
     5    88    91    1
     6    88    87    1
     7    91    93    1
     8    81    87   am
     9    81    80    1
    10    71    70    2
    11    80    79    1
    12    80    83    1
    13    70    69    1
    14    85    84    1
    15    84    83    1
    16    84    86    1
    17    94    95    1
    18    69    72    1
    19    69    68    1
    20    72    73    1
    21   107   108    1
    22    67    66    2
    23    95    96    1
    24    74    73    1
    25    74    75    1
    26    97    96    2
    27    96    98   am
    28    75    76    2
    29    78    76    1
    30   110   109    2
    31   100   101    2
    32   100    99    1
    33    68    66   am
    34   109   108    1
    35    76    77    1
    36    66    65    1
    37   108   111    1
    38    98    99    1
    39    99   102    1
    40    65    64    1
    41   111   112    1
    42   102   103    1
    43    56    55    2
    44    59    57    1
    45    52    51    2
    46   103   104    1
    47    55    54    1
    48    55    60   am
    49    22    21    1
    50    54    57    1
    51    54    53    1
    52   127   125    1
    53    23    21    1
    54   104   105    1
    55    57    58    1
    56    61    60    1
    57    61    62    1
    58    51    53   am
    59    51    50    1
    60   125   126    1
    61   125   122    1
    62    21    18    1
    63    48    46    1
    64   144   142   ar
    65    16    15    2
    66   142   141    1
    67   142   143   ar
    68   141   140    1
    69    62    63    2
    70    47    46    1
    71    18    17    1
    72    18    19    1
    73   105   106    1
    74    50    49    1
    75    45    46    1
    76    45    42    1
    77    49    43   am
    78   140   137    1
    79    15    17   am
    80    15    14    1
    81   122   121    1
    82   122   123    1
    83    43    42    1
    84    43    44    2
    85    14    13    1
    86    42    41    1
    87    20    19    2
    88    19    24   am
    89   124   123    2
    90    31    32    1
    91    31    30    1
    92   121   119   am
    93   139   138    2
    94   137   138    1
    95   137   136    1
    96    13    11   am
    97   119   120    2
    98   119   118    1
    99    29    30    1
   100    29    28    1
   101    24    25    1
   102   136   130   am
   103   118   117    1
   104    11    12    2
   105    11    10    1
   106   117   115   am
   107    25    28    1
   108    25    26    1
   109   130   131    2
   110   130   129    1
   111   115   114    1
   112   115   116    2
   113   128   129    1
   114   132   129    1
   115   132   133    1
   116    10     9    1
   117   114   113    1
   118   135   133   ar
   119    26    27    2
   120   133   134   ar
   121    40    38   ar
   122    39    38   ar
   123    38    37    1
   124     7     6   ar
   125    37    34    1
   126     4     3    2
   127     6     8   ar
   128     6     5    1
   129     3     2    1
   130    34    35    1
   131    34    33    1
   132    35    36    2
   133     5     2    1
   134     2     1    1
