@<TRIPOS>MOLECULE
tmp/3vgmA00.pdb
 122 116 0 0 0
SMALL
GASTEIGER

@<TRIPOS>ATOM
      1  N        107.0370   37.9960   19.2580 N.3    64  ALA64      -0.1231
      2  CA       108.3700   38.4810   19.6830 C.3    64  ALA64       0.1694
      3  C        108.3770   38.6210   21.2100 C.2    64  ALA64       0.2593
      4  O        107.3890   39.0630   21.8000 O.2    64  ALA64      -0.2718
      5  CB       108.7160   39.8420   19.0170 C.3    64  ALA64       0.0304
      6  N        109.4630   38.2290   21.8560 N.am   65  GLY65      -0.1942
      7  CA       109.5680   38.3870   23.3110 C.3    65  GLY65       0.2014
      8  C        109.7190   37.0510   24.0000 C.2    65  GLY65       0.2638
      9  O        109.8990   36.0170   23.3410 O.2    65  GLY65      -0.2714
     10  N        109.6620   37.0690   25.3240 N.am   66  TYR66      -0.1973
     11  CA       110.0220   35.8910   26.1050 C.3    66  TYR66       0.1639
     12  C        108.7230   35.1680   26.3960 C.2    66  TYR66       0.2290
     13  O        107.8110   35.7350   27.0180 O.2    66  TYR66      -0.2864
     14  CB       110.7560   36.2760   27.4140 C.3    66  TYR66       0.0560
     15  CG       111.6910   37.4520   27.2740 C.ar   66  TYR66      -0.0198
     16  CD1      112.5330   37.5740   26.1630 C.ar   66  TYR66      -0.0009
     17  CD2      111.7320   38.4500   28.2580 C.ar   66  TYR66      -0.0009
     18  CE1      113.3770   38.6780   26.0150 C.ar   66  TYR66       0.0417
     19  CE2      112.5830   39.5530   28.1310 C.ar   66  TYR66       0.0417
     20  CZ       113.3930   39.6600   26.9980 C.ar   66  TYR66       0.1957
     21  OH       114.1950   40.7640   26.8300 O.3    66  TYR66      -0.2866
     22  N        107.2390   38.9320   28.4830 N.3    76  PHE76      -0.1241
     23  CA       107.6310   40.2790   28.1020 C.3    76  PHE76       0.1605
     24  C        107.6530   40.3410   26.5840 C.2    76  PHE76       0.2264
     25  O        108.2160   39.4660   25.9470 O.2    76  PHE76      -0.2867
     26  CB       109.0370   40.5920   28.6380 C.3    76  PHE76       0.0534
     27  CG       109.6510   41.8810   28.1050 C.ar   76  PHE76      -0.0203
     28  CD1      109.4710   43.0840   28.7800 C.ar   76  PHE76      -0.0042
     29  CD2      110.4410   41.8720   26.9550 C.ar   76  PHE76      -0.0042
     30  CE1      110.0370   44.2800   28.2990 C.ar   76  PHE76      -0.0003
     31  CE2      111.0210   43.0480   26.4650 C.ar   76  PHE76      -0.0003
     32  CZ       110.8230   44.2570   27.1360 C.ar   76  PHE76      -0.0000
     33  N        108.8240   43.0590   23.3790 N.3    78  PRO78      -0.2116
     34  CA       109.5800   44.3050   23.1840 C.3    78  PRO78       0.1372
     35  C        108.7710   45.4450   22.5380 C.2    78  PRO78       0.2244
     36  O        109.1300   46.6060   22.7200 O.2    78  PRO78      -0.2868
     37  CB       110.7400   43.8810   22.2770 C.3    78  PRO78       0.0268
     38  CG       110.2340   42.6740   21.5430 C.3    78  PRO78       0.0207
     39  CD       109.3120   41.9650   22.5190 C.3    78  PRO78       0.0892
     40  N        107.6310   31.6620   21.0860 N.3   103  ASN103     -0.1225
     41  CA       108.4600   32.7730   20.6200 C.3   103  ASN103      0.1785
     42  C        108.5260   32.7890   19.0700 C.2   103  ASN103      0.2597
     43  O        108.5680   31.7340   18.4430 O.2   103  ASN103     -0.2718
     44  CB       109.8640   32.6790   21.2340 C.3   103  ASN103      0.1169
     45  CG       110.8580   33.5870   20.5450 C.2   103  ASN103      0.2627
     46  OD1      111.5740   33.1510   19.6400 O.2   103  ASN103     -0.2716
     47  ND2      110.9290   34.8450   20.9800 N.am  103  ASN103     -0.0877
     48  N        108.5170   33.9770   18.4750 N.am  104  ASP104     -0.1960
     49  CA       108.4200   34.1160   17.0040 C.3   104  ASP104      0.1840
     50  C        109.5730   33.4580   16.2720 C.2   104  ASP104      0.2621
     51  O        109.3640   32.7920   15.2610 O.2   104  ASP104     -0.2715
     52  CB       108.2710   35.5930   16.5890 C.3   104  ASP104      0.1450
     53  CG       109.4890   36.4560   16.9740 C.2   104  ASP104      0.3671
     54  OD1      110.2050   36.1500   17.9440 O.co2 104  ASP104     -0.2456
     55  OD2      109.7320   37.4660   16.2810 O.co2 104  ASP104     -0.2456
     56  N        110.7920   33.6180   16.8040 N.am  105  ALA105     -0.1977
     57  CA       111.9640   33.0680   16.1190 C.3   105  ALA105      0.1597
     58  C        112.1130   31.5690   16.3840 C.2   105  ALA105      0.2287
     59  O        112.6490   30.8420   15.5400 O.2   105  ALA105     -0.2864
     60  CB       113.2350   33.8440   16.4980 C.3   105  ALA105      0.0319
     61  N        117.5230   34.7760   12.8830 N.3   128  THR128     -0.1218
     62  CA       116.7200   35.7130   12.1050 C.3   128  THR128      0.1862
     63  C        117.3010   37.1050   12.2830 C.2   128  THR128      0.2287
     64  O        117.3050   37.6390   13.3900 O.2   128  THR128     -0.2866
     65  CB       115.2450   35.7110   12.5690 C.3   128  THR128      0.1770
     66  OG1      114.7350   34.3680   12.5420 O.3   128  THR128     -0.2211
     67  CG2      114.3970   36.5650   11.6220 C.3   128  THR128      0.0375
     68  N        114.5090   43.0880   14.7610 N.3   132  GLY132     -0.1210
     69  CA       115.1620   42.5540   15.9450 C.3   132  GLY132      0.1956
     70  C        115.9910   41.3570   15.5240 C.2   132  GLY132      0.2612
     71  O        115.9500   40.9330   14.3540 O.2   132  GLY132     -0.2717
     72  N        116.7520   40.7920   16.4560 N.am  133  LEU133     -0.1965
     73  CA       117.5650   39.6450   16.1050 C.3   133  LEU133      0.1728
     74  C        117.0670   38.4970   16.9840 C.2   133  LEU133      0.2616
     75  O        116.9990   38.6420   18.1930 O.2   133  LEU133     -0.2715
     76  CB       119.0550   39.9410   16.3830 C.3   133  LEU133      0.0311
     77  CG       120.0350   38.9740   15.7270 C.3   133  LEU133      0.0022
     78  CD1      121.4480   39.6270   15.7200 C.3   133  LEU133      0.0001
     79  CD2      120.0750   37.6320   16.4650 C.3   133  LEU133      0.0001
     80  N        116.6820   37.3870   16.3720 N.am  134  GLY134     -0.1955
     81  CA       116.2340   36.2420   17.1520 C.3   134  GLY134      0.1869
     82  C        116.8240   34.9640   16.6140 C.2   134  GLY134      0.2309
     83  O        117.6240   34.9600   15.6530 O.2   134  GLY134     -0.2863
     84  N        117.4370   33.4910   23.1450 N.3   153  GLU153     -0.1245
     85  CA       117.4040   34.9560   23.0050 C.3   153  GLU153      0.1567
     86  C        118.7600   35.4550   22.4700 C.2   153  GLU153      0.2260
     87  O        119.4810   36.2270   23.1330 O.2   153  GLU153     -0.2867
     88  CB       117.0190   35.6500   24.3220 C.3   153  GLU153      0.0388
     89  CG       115.4630   35.5840   24.5460 C.3   153  GLU153      0.1160
     90  CD       114.6880   36.3490   23.4600 C.2   153  GLU153      0.3649
     91  OE1      115.1740   37.4120   22.9970 O.co2 153  GLU153     -0.2457
     92  OE2      113.5810   35.9100   23.0700 O.co2 153  GLU153     -0.2457
     93  N        120.1540   39.1030   22.4740 N.3   156  HIS156     -0.1241
     94  CA       120.5540   39.7830   23.7020 C.3   156  HIS156      0.1621
     95  C        121.7620   39.1840   24.4000 C.2   156  HIS156      0.2264
     96  O        122.0000   39.4510   25.5900 O.2   156  HIS156     -0.2867
     97  CB       119.3170   39.9580   24.6100 C.3   156  HIS156      0.0745
     98  CG       118.1750   40.5960   23.8690 C.ar  156  HIS156      0.0817
     99  ND1      118.1990   41.9260   23.5030 N.ar  156  HIS156     -0.2268
    100  CD2      117.0530   40.0680   23.3130 C.ar  156  HIS156      0.1154
    101  CE1      117.1040   42.2160   22.8140 C.ar  156  HIS156      0.1986
    102  NE2      116.4030   41.0980   22.6610 N.ar  156  HIS156     -0.2212
    103  N        121.8810   42.2240   18.9040 N.3   175  GLU175     -0.1245
    104  CA       120.8260   42.8760   18.1300 C.3   175  GLU175      0.1567
    105  C        121.1480   44.3440   17.8130 C.2   175  GLU175      0.2260
    106  O        120.7260   44.8470   16.7830 O.2   175  GLU175     -0.2867
    107  CB       119.5140   42.8040   18.9430 C.3   175  GLU175      0.0388
    108  CG       118.3670   43.6340   18.4020 C.3   175  GLU175      0.1160
    109  CD       117.0640   43.2770   19.1110 C.2   175  GLU175      0.3649
    110  OE1      116.5940   42.1430   18.9070 O.co2 175  GLU175     -0.2457
    111  OE2      116.5590   44.1100   19.8790 O.co2 175  GLU175     -0.2457
    112  N        118.1240   47.4540   12.3180 N.3   181  ARG181     -0.1245
    113  CA       118.3490   48.7720   12.9330 C.3   181  ARG181      0.1563
    114  C        119.8410   49.1570   12.9710 C.2   181  ARG181      0.2260
    115  O        120.1920   50.3350   12.7790 O.2   181  ARG181     -0.2867
    116  CB       117.7560   48.8350   14.3380 C.3   181  ARG181      0.0307
    117  CG       116.1810   48.6920   14.3580 C.3   181  ARG181      0.0489
    118  CD       115.6200   49.1510   15.7390 C.3   181  ARG181      0.2205
    119  NE       114.5090   48.3320   16.2590 N.pl3 181  ARG181     -0.0865
    120  CZ       114.6310   47.1470   16.8870 C.cat 181  ARG181      0.5346
    121  NH1      115.8260   46.5650   17.0810 N.pl3 181  ARG181      0.1354
    122  NH2      113.5330   46.5150   17.3110 N.pl3 181  ARG181      0.1354
@<TRIPOS>BOND
     1    67    65    1
     2    62    63    1
     3    62    65    1
     4    62    61    1
     5    63    64    2
     6   112   113    1
     7    66    65    1
     8   115   114    2
     9   113   114    1
    10   113   116    1
    11   116   117    1
    12    71    70    2
    13   117   118    1
    14    68    69    1
    15    51    50    2
    16    70    69    1
    17    70    72   am
    18    59    58    2
    19    83    82    2
    20    78    77    1
    21    77    76    1
    22    77    79    1
    23   118   119    1
    24    73    76    1
    25    73    72    1
    26    73    74    1
    27    57    58    1
    28    57    60    1
    29    57    56    1
    30   119   120    2
    31    50    56   am
    32    50    49    1
    33    55    53   ar
    34    80    74   am
    35    80    81    1
    36    52    53    1
    37    52    49    1
    38    82    81    1
    39   106   105    2
    40   120   121    1
    41   120   122    1
    42    53    54   ar
    43    74    75    2
    44    49    48    1
    45   105   104    1
    46   104   103    1
    47   104   107    1
    48   108   107    1
    49   108   109    1
    50    43    42    2
    51    48    42   am
    52   110   109   ar
    53     5     2    1
    54    42    41    1
    55   109   111   ar
    56     1     2    1
    57    46    45    2
    58     2     3    1
    59    45    47   am
    60    45    44    1
    61    41    40    1
    62    41    44    1
    63     3     4    2
    64     3     6   am
    65    38    37    1
    66    38    39    1
    67     6     7    1
    68    37    34    1
    69    86    85    1
    70    86    87    2
    71    93    94    1
    72    39    33    1
    73    35    36    2
    74    35    34    1
    75   102   101   ar
    76   102   100   ar
    77   101    99   ar
    78    91    90   ar
    79    85    84    1
    80    85    88    1
    81    92    90   ar
    82    34    33    1
    83     7     8    1
    84   100    98   ar
    85     9     8    2
    86    90    89    1
    87    99    98   ar
    88    94    95    1
    89    94    97    1
    90    98    97    1
    91     8    10   am
    92    88    89    1
    93    95    96    2
    94    10    11    1
    95    25    24    2
    96    18    16   ar
    97    18    20   ar
    98    11    12    1
    99    11    14    1
   100    16    15   ar
   101    12    13    2
   102    31    29   ar
   103    31    32   ar
   104    24    23    1
   105    21    20    1
   106    29    27   ar
   107    20    19   ar
   108    32    30   ar
   109    15    14    1
   110    15    17   ar
   111    23    22    1
   112    23    26    1
   113    27    26    1
   114    27    28   ar
   115    19    17   ar
   116    30    28   ar
