@<TRIPOS>MOLECULE
tmp/3vgnB00.pdb
 134 126 0 0 0
SMALL
GASTEIGER

@<TRIPOS>ATOM
      1  N          1.8850  -12.9920  -38.3070 N.3    16  TYR16      -0.1241
      2  CA         2.4380  -14.3270  -38.4610 C.3    16  TYR16       0.1605
      3  C          1.3400  -15.4140  -38.3520 C.2    16  TYR16       0.2264
      4  O          1.2290  -16.3050  -39.1840 O.2    16  TYR16      -0.2867
      5  CB         3.6010  -14.5500  -37.4680 C.3    16  TYR16       0.0534
      6  CG         4.0150  -16.0080  -37.3660 C.ar   16  TYR16      -0.0201
      7  CD1        4.9600  -16.5150  -38.2320 C.ar   16  TYR16      -0.0009
      8  CD2        3.4010  -16.8730  -36.4660 C.ar   16  TYR16      -0.0009
      9  CE1        5.3300  -17.8360  -38.1790 C.ar   16  TYR16       0.0417
     10  CE2        3.7980  -18.1920  -36.3570 C.ar   16  TYR16       0.0417
     11  CZ         4.7480  -18.6840  -37.2270 C.ar   16  TYR16       0.1957
     12  OH         5.0950  -20.0100  -37.1530 O.3    16  TYR16      -0.2866
     13  N          0.0890  -18.1600  -41.0770 N.3    20  VAL20      -0.1245
     14  CA         0.0320  -19.5900  -40.8500 C.3    20  VAL20       0.1561
     15  C         -1.3810  -20.0790  -41.1710 C.2    20  VAL20       0.2260
     16  O         -1.5350  -21.0910  -41.8710 O.2    20  VAL20      -0.2867
     17  CB         0.4660  -19.9650  -39.4200 C.3    20  VAL20       0.0252
     18  CG1        0.1320  -21.4160  -39.1180 C.3    20  VAL20       0.0019
     19  CG2        1.9590  -19.6580  -39.1960 C.3    20  VAL20       0.0019
     20  N         11.4830  -26.1390  -32.8950 N.3    40  ASN40      -0.1240
     21  CA        10.1320  -26.6900  -32.8630 C.3    40  ASN40       0.1653
     22  C         10.1320  -28.2050  -32.7090 C.2    40  ASN40       0.2266
     23  O         10.6320  -28.9000  -33.5780 O.2    40  ASN40      -0.2867
     24  CB         9.3880  -26.3660  -34.1620 C.3    40  ASN40       0.1155
     25  CG         8.0010  -26.9770  -34.1690 C.2    40  ASN40       0.2627
     26  OD1        7.1560  -26.5670  -33.3990 O.2    40  ASN40      -0.2716
     27  ND2        7.7960  -28.0280  -34.9670 N.am   40  ASN40      -0.0877
     28  N         10.4090  -26.5150  -43.4170 N.3    56  PHE56      -0.1227
     29  CA         9.6080  -26.7540  -42.2260 C.3    56  PHE56       0.1736
     30  C          8.1440  -26.3760  -42.4380 C.2    56  PHE56       0.2595
     31  O          7.2290  -27.1820  -42.1650 O.2    56  PHE56      -0.2718
     32  CB        10.2370  -25.9690  -41.0310 C.3    56  PHE56       0.0547
     33  CG         9.3450  -25.8190  -39.8230 C.ar   56  PHE56      -0.0202
     34  CD1        9.0030  -26.9040  -39.0420 C.ar   56  PHE56      -0.0042
     35  CD2        8.8990  -24.5570  -39.4380 C.ar   56  PHE56      -0.0042
     36  CE1        8.2010  -26.7380  -37.9170 C.ar   56  PHE56      -0.0003
     37  CE2        8.0880  -24.3860  -38.3210 C.ar   56  PHE56      -0.0003
     38  CZ         7.7490  -25.4850  -37.5590 C.ar   56  PHE56      -0.0000
     39  N          7.9080  -25.1450  -42.9130 N.am   57  TYR57      -0.1976
     40  CA         6.5550  -24.7000  -43.1390 C.3    57  TYR57       0.1639
     41  C          5.8460  -25.4850  -44.2630 C.2    57  TYR57       0.2290
     42  O          4.6600  -25.7200  -44.1620 O.2    57  TYR57      -0.2864
     43  CB         6.5020  -23.1800  -43.3740 C.3    57  TYR57       0.0560
     44  CG         6.7150  -22.4550  -42.0610 C.ar   57  TYR57      -0.0198
     45  CD1        5.6950  -22.4380  -41.1050 C.ar   57  TYR57      -0.0009
     46  CD2        7.9060  -21.8210  -41.7630 C.ar   57  TYR57      -0.0009
     47  CE1        5.8680  -21.8240  -39.8780 C.ar   57  TYR57       0.0417
     48  CE2        8.0780  -21.1970  -40.5390 C.ar   57  TYR57       0.0417
     49  CZ         7.0530  -21.1950  -39.6070 C.ar   57  TYR57       0.1957
     50  OH         7.2480  -20.6010  -38.3900 O.3    57  TYR57      -0.2866
     51  N          2.3670  -27.1170  -43.6640 N.3    61  LEU61      -0.1245
     52  CA         1.2750  -26.3090  -44.2360 C.3    61  LEU61       0.1561
     53  C          1.0460  -26.5310  -45.7180 C.2    61  LEU61       0.2260
     54  O          0.1780  -25.8830  -46.3340 O.2    61  LEU61      -0.2867
     55  CB         1.5560  -24.8140  -44.0710 C.3    61  LEU61       0.0270
     56  CG         1.8250  -24.3120  -42.6590 C.3    61  LEU61       0.0019
     57  CD1        2.0640  -22.7990  -42.6710 C.3    61  LEU61       0.0001
     58  CD2        0.6560  -24.7170  -41.7520 C.3    61  LEU61       0.0001
     59  N         -1.5620  -19.9070  -29.0960 N.3    86  PHE86      -0.1241
     60  CA        -2.4310  -20.1380  -30.2350 C.3    86  PHE86       0.1605
     61  C         -2.7760  -21.6020  -30.3400 C.2    86  PHE86       0.2264
     62  O         -2.1730  -22.4490  -29.6590 O.2    86  PHE86      -0.2867
     63  CB        -1.8080  -19.5900  -31.5780 C.3    86  PHE86       0.0534
     64  CG        -0.4870  -20.1580  -31.9370 C.ar   86  PHE86      -0.0203
     65  CD1        0.6610  -19.7630  -31.2680 C.ar   86  PHE86      -0.0042
     66  CD2       -0.3740  -21.0780  -32.9650 C.ar   86  PHE86      -0.0042
     67  CE1        1.9080  -20.2920  -31.6020 C.ar   86  PHE86      -0.0003
     68  CE2        0.8620  -21.6090  -33.3120 C.ar   86  PHE86      -0.0003
     69  CZ         2.0140  -21.1890  -32.6580 C.ar   86  PHE86      -0.0000
     70  N         -3.4450  -24.6600  -33.3490 N.3    88  VAL88      -0.1245
     71  CA        -3.3630  -25.0920  -34.7550 C.3    88  VAL88       0.1561
     72  C         -4.3200  -26.2730  -34.9400 C.2    88  VAL88       0.2260
     73  O         -4.3250  -27.1930  -34.1360 O.2    88  VAL88      -0.2867
     74  CB        -1.9180  -25.4620  -35.1830 C.3    88  VAL88       0.0252
     75  CG1       -1.8500  -25.7930  -36.6730 C.3    88  VAL88       0.0019
     76  CG2       -0.9660  -24.3070  -34.8810 C.3    88  VAL88       0.0019
     77  N         -5.5230  -29.2860  -37.5390 N.3    90  MET90      -0.1245
     78  CA        -5.0640  -29.9740  -38.7390 C.3    90  MET90       0.1570
     79  C         -5.7160  -31.3210  -38.8730 C.2    90  MET90       0.2261
     80  O         -6.2940  -31.8490  -37.9240 O.2    90  MET90      -0.2867
     81  CB        -3.5330  -30.1340  -38.7540 C.3    90  MET90       0.0387
     82  CG        -2.9810  -31.0570  -37.6740 C.3    90  MET90       0.0595
     83  SD        -2.9100  -30.2170  -36.0810 S.3    90  MET90      -0.1393
     84  CE        -1.6780  -31.1770  -35.1920 C.3    90  MET90       0.0692
     85  N         -3.5330  -28.6240  -31.8740 N.3    99  LEU99      -0.1245
     86  CA        -2.3070  -28.5300  -31.0840 C.3    99  LEU99       0.1561
     87  C         -2.2780  -27.1510  -30.4570 C.2    99  LEU99       0.2260
     88  O         -2.3820  -26.1660  -31.1740 O.2    99  LEU99      -0.2867
     89  CB        -1.0700  -28.7070  -31.9830 C.3    99  LEU99       0.0270
     90  CG         0.3260  -28.6850  -31.3300 C.3    99  LEU99       0.0019
     91  CD1        0.4560  -29.8850  -30.3820 C.3    99  LEU99       0.0001
     92  CD2        1.4860  -28.6480  -32.3320 C.3    99  LEU99       0.0001
     93  N         -0.0890  -24.2810  -28.6700 N.3   101  VAL101     -0.1245
     94  CA         1.3360  -23.9030  -28.7730 C.3   101  VAL101      0.1561
     95  C          1.5090  -22.5110  -28.1660 C.2   101  VAL101      0.2260
     96  O          0.5930  -21.6740  -28.2190 O.2   101  VAL101     -0.2867
     97  CB         1.7790  -23.8200  -30.2560 C.3   101  VAL101      0.0252
     98  CG1        3.2490  -23.5130  -30.3490 C.3   101  VAL101      0.0019
     99  CG2        1.5450  -25.1290  -30.9810 C.3   101  VAL101      0.0019
    100  N          4.3870  -19.5970  -28.9750 N.3   103  ASP103     -0.1239
    101  CA         5.6460  -19.2200  -29.6140 C.3   103  ASP103      0.1674
    102  C          6.3040  -18.0650  -28.8890 C.2   103  ASP103      0.2266
    103  O          5.5830  -17.1060  -28.5280 O.2   103  ASP103     -0.2867
    104  CB         5.4630  -18.7770  -31.0710 C.3   103  ASP103      0.1410
    105  CG         5.2510  -19.9170  -32.0450 C.2   103  ASP103      0.3668
    106  OD1        5.2710  -21.0880  -31.6540 O.co2 103  ASP103     -0.2456
    107  OD2        5.0620  -19.5930  -33.2540 O.co2 103  ASP103     -0.2456
    108  N         12.6800  -18.1180  -33.3470 N.3   116  MET116     -0.1245
    109  CA        11.3640  -18.5560  -32.9470 C.3   116  MET116      0.1570
    110  C         11.5440  -19.8380  -32.1450 C.2   116  MET116      0.2261
    111  O         12.3530  -20.7070  -32.5160 O.2   116  MET116     -0.2867
    112  CB        10.4080  -18.7420  -34.1280 C.3   116  MET116      0.0387
    113  CG         8.9970  -19.1780  -33.7570 C.3   116  MET116      0.0595
    114  SD         8.7780  -20.9300  -33.4060 S.3   116  MET116     -0.1393
    115  CE         8.1210  -21.5160  -35.0020 C.3   116  MET116      0.0692
    116  N          9.0070  -22.7120  -30.3240 N.3   118  ALA118     -0.1245
    117  CA         7.6160  -23.1620  -30.2100 C.3   118  ALA118      0.1562
    118  C          7.4620  -24.1260  -29.0370 C.2   118  ALA118      0.2260
    119  O          7.9680  -25.2370  -29.0970 O.2   118  ALA118     -0.2867
    120  CB         7.2070  -23.8630  -31.4940 C.3   118  ALA118      0.0290
    121  N          5.5860  -26.6980  -26.9330 N.3   120  TRP120     -0.1241
    122  CA         4.4430  -27.6180  -26.9030 C.3   120  TRP120      0.1605
    123  C          5.0360  -28.9950  -26.7660 C.2   120  TRP120      0.2264
    124  O          6.2000  -29.1840  -27.0530 O.2   120  TRP120     -0.2867
    125  CB         3.6000  -27.5770  -28.2090 C.3   120  TRP120      0.0550
    126  CG         4.3510  -27.9200  -29.4730 C.ar  120  TRP120      0.0003
    127  CD1        5.0570  -27.0430  -30.3090 C.ar  120  TRP120      0.0946
    128  CD2        4.5220  -29.2560  -30.0970 C.ar  120  TRP120      0.0152
    129  NE1        5.6050  -27.7160  -31.3810 N.ar  120  TRP120     -0.2442
    130  CE2        5.3370  -29.0500  -31.2950 C.ar  120  TRP120      0.0810
    131  CE3        4.1240  -30.5380  -29.7730 C.ar  120  TRP120      0.0012
    132  CZ2        5.6780  -30.0980  -32.1330 C.ar  120  TRP120      0.0191
    133  CZ3        4.4700  -31.5870  -30.6310 C.ar  120  TRP120      0.0001
    134  CH2        5.2390  -31.3650  -31.7670 C.ar  120  TRP120      0.0015
@<TRIPOS>BOND
     1    54    53    2
     2    53    52    1
     3    41    42    2
     4    41    40    1
     5    52    55    1
     6    52    51    1
     7    55    56    1
     8    28    29    1
     9    43    40    1
    10    43    44    1
    11    40    39    1
    12    39    30   am
    13    57    56    1
    14    56    58    1
    15    30    29    1
    16    30    31    2
    17    29    32    1
    18    44    46   ar
    19    44    45   ar
    20    16    15    2
    21    46    48   ar
    22    15    14    1
    23    45    47   ar
    24    13    14    1
    25    32    33    1
    26    14    17    1
    27    48    49   ar
    28    47    49   ar
    29    33    35   ar
    30    33    34   ar
    31    49    50    1
    32    35    37   ar
    33    17    19    1
    34    17    18    1
    35     4     3    2
    36    34    36   ar
    37    79    78    1
    38    79    80    2
    39    81    78    1
    40    81    82    1
    41    78    77    1
    42     2     3    1
    43     2     1    1
    44     2     5    1
    45    37    38   ar
    46     7     9   ar
    47     7     6   ar
    48     9    11   ar
    49    36    38   ar
    50    82    83    1
    51     5     6    1
    52     6     8   ar
    53    11    12    1
    54    11    10   ar
    55    75    74    1
    56     8    10   ar
    57    83    84    1
    58    74    76    1
    59    74    71    1
    60   115   114    1
    61    27    25   am
    62    72    71    1
    63    72    73    2
    64    71    70    1
    65    25    24    1
    66    25    26    2
    67    24    21    1
    68   112   113    1
    69   112   109    1
    70   113   114    1
    71    23    22    2
    72   108   109    1
    73    68    66   ar
    74    68    69   ar
    75   107   105   ar
    76    66    64   ar
    77   109   110    1
    78    20    21    1
    79    21    22    1
    80    69    67   ar
    81   111   110    2
    82    92    90    1
    83   132   134   ar
    84   132   130   ar
    85   105   106   ar
    86   105   104    1
    87    89    90    1
    88    89    86    1
    89    64    63    1
    90    64    65   ar
    91    85    86    1
    92   134   133   ar
    93    67    65   ar
    94    63    60    1
    95   120   117    1
    96   129   130   ar
    97   129   127   ar
    98    90    91    1
    99   130   128   ar
   100    88    87    2
   101    86    87    1
   102   104   101    1
   103    99    97    1
   104   133   131   ar
   105    98    97    1
   106    61    60    1
   107    61    62    2
   108   116   117    1
   109   127   126   ar
   110    97    94    1
   111    60    59    1
   112   117   118    1
   113   128   131   ar
   114   128   126   ar
   115   101   100    1
   116   101   102    1
   117   126   125    1
   118   119   118    2
   119   102   103    2
   120    94    93    1
   121    94    95    1
   122    96    95    2
   123   125   122    1
   124   124   123    2
   125   121   122    1
   126   122   123    1
