@<TRIPOS>MOLECULE
tmp/3vgwH00.pdb
 160 153 0 0 0
SMALL
GASTEIGER

@<TRIPOS>ATOM
      1  N        110.7590   52.7710   54.4000 N.3    10  ASN10      -0.1240
      2  CA       110.2050   51.7160   55.2370 C.3    10  ASN10       0.1653
      3  C        110.7650   51.8150   56.5400 C.2    10  ASN10       0.2266
      4  O        111.6040   52.6460   56.9400 O.2    10  ASN10      -0.2867
      5  CB       110.3690   50.2290   54.7150 C.3    10  ASN10       0.1155
      6  CG       111.8290   49.7540   54.6230 C.2    10  ASN10       0.2627
      7  OD1      112.7060   50.1520   55.3310 O.2    10  ASN10      -0.2716
      8  ND2      112.0320   48.7140   53.7670 N.am   10  ASN10      -0.0877
      9  N        112.9200   50.1170   58.2170 N.3    12  LEU12      -0.1245
     10  CA       114.3370   50.0130   58.3570 C.3    12  LEU12       0.1561
     11  C        115.2140   51.1010   57.6260 C.2    12  LEU12       0.2260
     12  O        116.4520   51.0710   57.6850 O.2    12  LEU12      -0.2867
     13  CB       114.8060   48.6090   57.8290 C.3    12  LEU12       0.0270
     14  CG       114.5820   47.4850   58.8840 C.3    12  LEU12       0.0019
     15  CD1      113.3280   47.5590   59.6380 C.3    12  LEU12       0.0001
     16  CD2      114.8860   46.1410   58.4450 C.3    12  LEU12       0.0001
     17  N        115.1150   51.8790   54.3630 N.3    14  SER14      -0.1217
     18  CA       115.2700   51.7350   52.8880 C.3    14  SER14       0.1889
     19  C        114.3380   52.6020   52.1960 C.2    14  SER14       0.2288
     20  O        113.1990   52.8090   52.6290 O.2    14  SER14      -0.2866
     21  CB       114.9210   50.2660   52.4750 C.3    14  SER14       0.2089
     22  OG       115.8630   49.4100   53.1270 O.3    14  SER14      -0.2183
     23  N        114.7910   50.6050   44.1570 N.3    31  TYR31      -0.1241
     24  CA       114.8640   50.2720   45.5920 C.3    31  TYR31       0.1605
     25  C        116.2840   50.4130   46.0320 C.2    31  TYR31       0.2264
     26  O        117.1920   49.9260   45.4350 O.2    31  TYR31      -0.2867
     27  CB       114.4540   48.7820   45.7490 C.3    31  TYR31       0.0534
     28  CG       114.0370   48.4450   47.1600 C.ar   31  TYR31      -0.0201
     29  CD1      112.6260   48.2850   47.4180 C.ar   31  TYR31      -0.0009
     30  CD2      114.9310   48.2940   48.1860 C.ar   31  TYR31      -0.0009
     31  CE1      112.2260   48.0220   48.7550 C.ar   31  TYR31       0.0417
     32  CE2      114.5120   47.9800   49.4830 C.ar   31  TYR31       0.0417
     33  CZ       113.1520   47.8620   49.7110 C.ar   31  TYR31       0.1957
     34  OH       112.6340   47.5290   50.9610 O.3    31  TYR31      -0.2866
     35  N        118.2380   49.8010   49.3360 N.3    33  THR33      -0.1218
     36  CA       118.0850   49.1500   50.6450 C.3    33  THR33       0.1862
     37  C        119.1240   49.7550   51.6540 C.2    33  THR33       0.2287
     38  O        120.2350   50.1040   51.2630 O.2    33  THR33      -0.2866
     39  CB       118.2260   47.6360   50.5490 C.3    33  THR33       0.1770
     40  OG1      118.0560   47.0770   51.8400 O.3    33  THR33      -0.2211
     41  CG2      119.6690   47.2030   50.0120 C.3    33  THR33       0.0375
     42  N        119.8160   47.9530   54.3620 N.3    35  VAL35      -0.1231
     43  CA       120.3790   46.7910   55.0460 C.3    35  VAL35       0.1692
     44  C        120.6980   45.6840   54.0060 C.2    35  VAL35       0.2593
     45  O        120.0470   45.6070   52.9260 O.2    35  VAL35      -0.2718
     46  CB       119.3880   46.2880   56.1640 C.3    35  VAL35       0.0266
     47  CG1      119.1380   47.3460   57.3020 C.3    35  VAL35       0.0020
     48  CG2      117.9900   46.0270   55.5150 C.3    35  VAL35       0.0020
     49  N        121.5350   44.7060   54.3100 N.am   36  THR36      -0.1939
     50  CA       121.8000   43.7400   53.2930 C.3    36  THR36       0.2028
     51  C        122.1170   42.4310   53.9750 C.2    36  THR36       0.2642
     52  O        122.5280   42.4790   55.1920 O.2    36  THR36      -0.2714
     53  CB       123.0720   44.1800   52.4610 C.3    36  THR36       0.1808
     54  OG1      123.3060   43.1700   51.5180 O.3    36  THR36      -0.2208
     55  CG2      124.2580   44.3770   53.4100 C.3    36  THR36       0.0379
     56  N        122.0070   41.2970   53.2380 N.am   37  ALA37      -0.1963
     57  CA       122.4630   40.0250   53.7680 C.3    37  ALA37       0.1728
     58  C        123.8320   39.6870   53.1260 C.2    37  ALA37       0.2616
     59  O        124.5060   38.7760   53.5750 O.2    37  ALA37      -0.2715
     60  CB       121.4670   38.8970   53.4750 C.3    37  ALA37       0.0334
     61  N        124.2100   40.3460   52.0730 N.am   38  THR38      -0.1951
     62  CA       125.5750   40.1850   51.4620 C.3    38  THR38       0.1897
     63  C        126.6360   41.1350   52.0140 C.2    38  THR38       0.2313
     64  O        126.3000   42.2790   52.4520 O.2    38  THR38      -0.2863
     65  CB       125.4170   40.4120   49.9390 C.3    38  THR38       0.1794
     66  OG1      126.6690   40.2720   49.2650 O.3    38  THR38      -0.2208
     67  CG2      124.8980   41.8020   49.6120 C.3    38  THR38       0.0378
     68  N        117.9630   42.5470   42.4560 N.3    68  TRP68      -0.1241
     69  CA       119.1620   43.1300   43.1390 C.3    68  TRP68       0.1605
     70  C        120.3600   43.1720   42.1750 C.2    68  TRP68       0.2264
     71  O        120.6200   42.1630   41.4750 O.2    68  TRP68      -0.2867
     72  CB       119.5270   42.3240   44.3500 C.3    68  TRP68       0.0550
     73  CG       118.3870   42.3390   45.3370 C.ar   68  TRP68       0.0003
     74  CD1      117.7150   41.2090   45.7550 C.ar   68  TRP68       0.0946
     75  CD2      117.9100   43.4600   46.1210 C.ar   68  TRP68       0.0152
     76  NE1      116.7500   41.6090   46.6900 N.ar   68  TRP68      -0.2442
     77  CE2      116.8430   42.9600   46.9320 C.ar   68  TRP68       0.0810
     78  CE3      118.1990   44.8240   46.1600 C.ar   68  TRP68       0.0012
     79  CZ2      116.1240   43.7540   47.8140 C.ar   68  TRP68       0.0191
     80  CZ3      117.5390   45.6300   47.0570 C.ar   68  TRP68       0.0001
     81  CH2      116.4710   45.0980   47.8590 C.ar   68  TRP68       0.0015
     82  N        123.4910   43.8610   43.1120 N.3    70  PHE70      -0.1227
     83  CA       124.7310   43.6730   43.8780 C.3    70  PHE70       0.1736
     84  C        124.8430   42.3100   44.5550 C.2    70  PHE70       0.2596
     85  O        125.7320   42.0530   45.3830 O.2    70  PHE70      -0.2718
     86  CB       124.9610   44.7920   44.8920 C.3    70  PHE70       0.0547
     87  CG       123.8740   44.9120   45.9360 C.ar   70  PHE70      -0.0202
     88  CD1      122.7160   45.6450   45.6030 C.ar   70  PHE70      -0.0042
     89  CD2      124.0520   44.3320   47.1720 C.ar   70  PHE70      -0.0042
     90  CE1      121.6720   45.7010   46.5070 C.ar   70  PHE70      -0.0003
     91  CE2      123.0160   44.4500   48.1860 C.ar   70  PHE70      -0.0003
     92  CZ       121.8320   45.1310   47.7960 C.ar   70  PHE70      -0.0000
     93  N        123.8860   41.4430   44.2370 N.am   71  SER71      -0.1952
     94  CA       123.9080   40.0460   44.6970 C.3    71  SER71       0.1924
     95  C        123.1480   39.1900   43.7000 C.2    71  SER71       0.2314
     96  O        122.5250   39.7280   42.8210 O.2    71  SER71      -0.2863
     97  CB       123.4180   39.8940   46.0720 C.3    71  SER71       0.2116
     98  OG       122.0220   39.8580   46.0280 O.3    71  SER71      -0.2180
     99  N        120.7260   37.3570   44.5790 N.3    73  SER73      -0.1217
    100  CA       119.3480   37.0920   45.1800 C.3    73  SER73       0.1889
    101  C        118.2510   37.8550   44.4740 C.2    73  SER73       0.2288
    102  O        118.4600   38.7670   43.6500 O.2    73  SER73      -0.2866
    103  CB       119.4150   37.6150   46.6450 C.3    73  SER73       0.2089
    104  OG       120.4380   36.9820   47.3420 O.3    73  SER73      -0.2183
    105  N        114.2090   39.5310   45.6980 N.3    75  THR75      -0.1218
    106  CA       113.1780   39.5910   46.7330 C.3    75  THR75       0.1862
    107  C        111.8910   39.9300   46.0880 C.2    75  THR75       0.2287
    108  O        111.8140   40.6470   45.0690 O.2    75  THR75      -0.2866
    109  CB       113.4890   40.7930   47.7030 C.3    75  THR75       0.1770
    110  OG1      114.7330   40.5050   48.3470 O.3    75  THR75      -0.2211
    111  CG2      112.3420   40.8910   48.8200 C.3    75  THR75       0.0375
    112  N        107.8600   41.3100   47.0910 N.3    77  PHE77      -0.1241
    113  CA       107.0120   41.9270   48.1480 C.3    77  PHE77       0.1605
    114  C        105.5840   41.8470   47.6760 C.2    77  PHE77       0.2264
    115  O        105.2840   42.0040   46.5020 O.2    77  PHE77      -0.2867
    116  CB       107.3470   43.4490   48.2870 C.3    77  PHE77       0.0534
    117  CG       108.6320   43.7270   48.9220 C.ar   77  PHE77      -0.0203
    118  CD1      109.8380   43.6750   48.1790 C.ar   77  PHE77      -0.0042
    119  CD2      108.6560   44.2330   50.2890 C.ar   77  PHE77      -0.0042
    120  CE1      111.0400   43.9930   48.8090 C.ar   77  PHE77      -0.0003
    121  CE2      109.8870   44.5760   50.9310 C.ar   77  PHE77      -0.0003
    122  CZ       111.0720   44.4480   50.1710 C.ar   77  PHE77      -0.0000
    123  N        107.4390   39.9860   52.5740 N.3    95  TRP95      -0.1241
    124  CA       108.4190   39.7240   51.4840 C.3    95  TRP95       0.1605
    125  C        109.0460   38.3440   51.6870 C.2    95  TRP95       0.2264
    126  O        109.0630   37.7610   52.8110 O.2    95  TRP95      -0.2867
    127  CB       109.5660   40.8180   51.4710 C.3    95  TRP95       0.0550
    128  CG       110.1780   41.0790   52.8150 C.ar   95  TRP95       0.0003
    129  CD1      109.8290   42.0600   53.6630 C.ar   95  TRP95       0.0946
    130  CD2      111.2200   40.3220   53.4810 C.ar   95  TRP95       0.0152
    131  NE1      110.5990   41.9970   54.8350 N.ar   95  TRP95      -0.2442
    132  CE2      111.4800   40.9570   54.7280 C.ar   95  TRP95       0.0810
    133  CE3      112.0110   39.2320   53.1030 C.ar   95  TRP95       0.0012
    134  CZ2      112.4450   40.5000   55.6290 C.ar   95  TRP95       0.0191
    135  CZ3      112.9710   38.7240   54.0170 C.ar   95  TRP95       0.0001
    136  CH2      113.2140   39.4060   55.2620 C.ar   95  TRP95       0.0015
    137  N        112.8220   36.8200   50.5870 N.3    97  LEU97      -0.1245
    138  CA       114.2220   37.0250   50.0820 C.3    97  LEU97       0.1561
    139  C        114.8020   35.6850   49.6710 C.2    97  LEU97       0.2260
    140  O        115.0240   34.8240   50.5860 O.2    97  LEU97      -0.2867
    141  CB       115.0620   37.7800   51.1380 C.3    97  LEU97       0.0270
    142  CG       116.6000   37.8340   50.8120 C.3    97  LEU97       0.0019
    143  CD1      116.9320   38.4160   49.4450 C.3    97  LEU97       0.0001
    144  CD2      117.2750   38.5780   51.9360 C.3    97  LEU97       0.0001
    145  N        108.3150   41.1640   57.1670 N.3   115  ILE115     -0.1231
    146  CA       107.3190   42.2100   56.8450 C.3   115  ILE115      0.1692
    147  C        108.0490   43.5140   56.5890 C.2   115  ILE115      0.2592
    148  O        109.2450   43.6820   56.8440 O.2   115  ILE115     -0.2718
    149  CB       106.3920   42.4620   58.0670 C.3   115  ILE115      0.0266
    150  CG1      107.1470   43.0130   59.2720 C.3   115  ILE115      0.0019
    151  CG2      105.6850   41.2230   58.3530 C.3   115  ILE115      0.0020
    152  CD1      106.7320   44.4410   59.7480 C.3   115  ILE115      0.0001
    153  N        107.2840   44.4500   55.9840 N.am  116  ASN116     -0.1974
    154  CA       107.7530   45.8410   55.9320 C.3   116  ASN116      0.1688
    155  C        106.5730   46.7340   55.8130 C.2   116  ASN116      0.2292
    156  O        105.5840   46.4100   55.1410 O.2   116  ASN116     -0.2864
    157  CB       108.5870   46.1000   54.7030 C.3   116  ASN116      0.1181
    158  CG       110.0680   46.1360   55.0100 C.2   116  ASN116      0.2629
    159  OD1      110.6040   46.7780   55.9890 O.2   116  ASN116     -0.2716
    160  ND2      110.7710   45.4200   54.1550 N.am  116  ASN116     -0.0877
@<TRIPOS>BOND
     1    71    70    2
     2    70    69    1
     3    68    69    1
     4    96    95    2
     5    82    83    1
     6    69    72    1
     7   102   101    2
     8    95    94    1
     9    83    84    1
    10    83    86    1
    11    23    24    1
    12    93    84   am
    13    93    94    1
    14    72    73    1
    15   101   100    1
    16    84    85    2
    17    99   100    1
    18    94    97    1
    19    86    87    1
    20   108   107    2
    21   100   103    1
    22    73    74   ar
    23    73    75   ar
    24    26    25    2
    25    24    27    1
    26    24    25    1
    27    88    87   ar
    28    88    90   ar
    29   105   106    1
    30    27    28    1
    31    74    76   ar
    32    87    89   ar
    33    98    97    1
    34   107   106    1
    35    75    78   ar
    36    75    77   ar
    37    78    80   ar
    38   115   114    2
    39    90    92   ar
    40   103   104    1
    41    76    77   ar
    42   106   109    1
    43    77    79   ar
    44    80    81   ar
    45   112   113    1
    46    28    29   ar
    47    28    30   ar
    48    89    91   ar
    49    29    31   ar
    50   114   113    1
    51   109   110    1
    52   109   111    1
    53    92    91   ar
    54    79    81   ar
    55   113   116    1
    56   118   120   ar
    57   118   117   ar
    58    30    32   ar
    59   116   117    1
    60    31    33   ar
    61   120   122   ar
    62   117   119   ar
    63    66    65    1
    64    35    36    1
    65   143   142    1
    66    32    33   ar
    67    67    65    1
    68   139   138    1
    69   139   140    2
    70    33    34    1
    71    65    62    1
    72    41    39    1
    73   138   137    1
    74   138   141    1
    75   122   121   ar
    76   119   121   ar
    77    39    36    1
    78    39    40    1
    79    36    37    1
    80   142   141    1
    81   142   144    1
    82    38    37    2
    83    62    63    1
    84    62    61    1
    85   127   124    1
    86   127   128    1
    87   124   125    1
    88   124   123    1
    89    54    53    1
    90   125   126    2
    91    63    64    2
    92    61    58   am
    93    19    20    2
    94    19    18    1
    95    53    50    1
    96    53    55    1
    97    21    18    1
    98    21    22    1
    99   128   130   ar
   100   128   129   ar
   101    18    17    1
   102    45    44    2
   103   133   130   ar
   104   133   135   ar
   105    58    59    2
   106    58    57    1
   107    56    57    1
   108    56    51   am
   109    50    51    1
   110    50    49    1
   111    60    57    1
   112   130   132   ar
   113   129   131   ar
   114     8     6   am
   115    51    52    2
   116    44    49   am
   117    44    43    1
   118   135   136   ar
   119   160   158   am
   120    42    43    1
   121     1     2    1
   122     6     5    1
   123     6     7    2
   124   157   158    1
   125   157   154    1
   126     5     2    1
   127   132   131   ar
   128   132   134   ar
   129   158   159    2
   130    43    46    1
   131   156   155    2
   132     2     3    1
   133   136   134   ar
   134    48    46    1
   135   155   154    1
   136   154   153    1
   137   153   147   am
   138    46    47    1
   139     3     4    2
   140   147   148    2
   141   147   146    1
   142   146   145    1
   143   146   149    1
   144    11    12    2
   145    11    10    1
   146    13    10    1
   147    13    14    1
   148   149   151    1
   149   149   150    1
   150     9    10    1
   151    16    14    1
   152    14    15    1
   153   150   152    1
