@<TRIPOS>MOLECULE
tmp/3vh4A00.pdb
 177 166 0 0 0
SMALL
GASTEIGER

@<TRIPOS>ATOM
      1  N        -39.3780   10.8030    9.4950 N.3    38  GLY38      -0.1210
      2  CA       -40.4040   11.7450    9.9120 C.3    38  GLY38       0.1956
      3  C        -41.5150   11.8180    8.8730 C.2    38  GLY38       0.2612
      4  O        -41.2640   12.0690    7.6930 O.2    38  GLY38      -0.2717
      5  N        -42.7470   11.5730    9.3070 N.am   39  ALA39      -0.1965
      6  CA       -43.9310   11.6110    8.4320 C.3    39  ALA39       0.1728
      7  C        -44.9320   12.6680    8.9400 C.2    39  ALA39       0.2617
      8  O        -46.1450   12.4630    8.9490 O.2    39  ALA39      -0.2715
      9  CB       -44.5940   10.2220    8.3790 C.3    39  ALA39       0.0334
     10  N        -44.4010   13.7950    9.3950 N.am   40  GLY40      -0.1940
     11  CA       -45.2370   14.8850    9.8550 C.3    40  GLY40       0.2014
     12  C        -45.2730   15.9820    8.7980 C.2    40  GLY40       0.2640
     13  O        -45.1030   15.7120    7.6070 O.2    40  GLY40      -0.2714
     14  N        -45.4610   17.2260    9.2250 N.am   41  THR41      -0.1936
     15  CA       -45.5310   18.3190    8.2790 C.3    41  THR41       0.2028
     16  C        -44.3940   18.3330    7.2530 C.2    41  THR41       0.2642
     17  O        -44.6570   18.3820    6.0520 O.2    41  THR41      -0.2714
     18  CB       -45.6170   19.6780    8.9950 C.3    41  THR41       0.1808
     19  OG1      -45.9630   20.6760    8.0360 O.3    41  THR41      -0.2208
     20  CG2      -44.2950   20.0690    9.6110 C.3    41  THR41       0.0379
     21  N        -43.1380   18.2630    7.6890 N.am   42  LEU42      -0.1977
     22  CA       -42.0370   18.2710    6.7140 C.3    42  LEU42       0.1596
     23  C        -42.1130   17.0310    5.8430 C.2    42  LEU42       0.2287
     24  O        -42.1220   17.1410    4.6160 O.2    42  LEU42      -0.2864
     25  CB       -40.6660   18.3610    7.4020 C.3    42  LEU42       0.0297
     26  CG       -40.3290   19.7280    8.0090 C.3    42  LEU42       0.0022
     27  CD1      -38.9710   19.7440    8.6930 C.3    42  LEU42       0.0001
     28  CD2      -40.3300   20.7280    6.8990 C.3    42  LEU42       0.0001
     29  N        -40.4190    6.7320    7.7530 N.3    61  VAL61      -0.1231
     30  CA       -40.0650    6.1220    9.0320 C.3    61  VAL61       0.1692
     31  C        -40.6750    7.0520   10.0760 C.2    61  VAL61       0.2592
     32  O        -40.2970    8.2210   10.1830 O.2    61  VAL61      -0.2718
     33  CB       -38.5300    6.0340    9.2630 C.3    61  VAL61       0.0266
     34  CG1      -38.2620    5.3150   10.5550 C.3    61  VAL61       0.0020
     35  CG2      -37.8620    5.2730    8.1390 C.3    61  VAL61       0.0020
     36  N        -41.6260    6.5370   10.8380 N.am   62  ASP62      -0.1960
     37  CA       -42.3050    7.3400   11.8330 C.3    62  ASP62       0.1840
     38  C        -43.0530    6.3740   12.7360 C.2    62  ASP62       0.2622
     39  O        -43.6780    5.4320   12.2620 O.2    62  ASP62      -0.2715
     40  CB       -43.2600    8.2900   11.1070 C.3    62  ASP62       0.1450
     41  CG       -43.9200    9.2960   12.0250 C.2    62  ASP62       0.3671
     42  OD1      -44.0770   10.4470   11.5930 O.co2  62  ASP62      -0.2456
     43  OD2      -44.3040    8.9550   13.1580 O.co2  62  ASP62      -0.2456
     44  N        -43.0000    6.6050   14.0380 N.am   63  ASN63      -0.1958
     45  CA       -43.6630    5.7110   14.9790 C.3    63  ASN63       0.1819
     46  C        -44.9100    6.2900   15.6430 C.2    63  ASN63       0.2622
     47  O        -45.4040    5.7350   16.6230 O.2    63  ASN63      -0.2715
     48  CB       -42.6850    5.3220   16.0770 C.3    63  ASN63       0.1195
     49  CG       -42.4740    6.4470   17.0800 C.2    63  ASN63       0.2630
     50  OD1      -42.1710    7.5890   16.7070 O.2    63  ASN63      -0.2716
     51  ND2      -42.6360    6.1320   18.3600 N.am   63  ASN63      -0.0877
     52  N        -45.4240    7.3940   15.1240 N.am   64  GLY64      -0.1940
     53  CA       -46.5980    7.9790   15.7440 C.3    64  GLY64       0.2014
     54  C        -47.8980    7.6870   15.0250 C.2    64  GLY64       0.2639
     55  O        -47.9180    6.9390   14.0500 O.2    64  GLY64      -0.2714
     56  N        -48.9850    8.2710   15.5180 N.am   65  THR65      -0.1950
     57  CA       -50.2990    8.0940   14.9020 C.3    65  THR65       0.1897
     58  C        -50.8930    9.4570   14.5500 C.2    65  THR65       0.2313
     59  O        -50.5230   10.4830   15.1210 O.2    65  THR65      -0.2863
     60  CB       -51.2930    7.3440   15.8370 C.3    65  THR65       0.1794
     61  OG1      -51.4830    8.0950   17.0390 O.3    65  THR65      -0.2208
     62  CG2      -50.7540    5.9690   16.1950 C.3    65  THR65       0.0378
     63  N        -52.8580   12.4940   14.7230 N.3    67  SER67      -0.1217
     64  CA       -53.5190   13.2670   15.7750 C.3    67  SER67       0.1889
     65  C        -54.6690   14.0870   15.1960 C.2    67  SER67       0.2288
     66  O        -54.7490   14.2630   13.9870 O.2    67  SER67      -0.2866
     67  CB       -52.5020   14.2020   16.4260 C.3    67  SER67       0.2089
     68  OG       -53.1330   15.1190   17.3020 O.3    67  SER67      -0.2183
     69  N        -55.2050   17.2880   15.2770 N.3    69  SER69      -0.1202
     70  CA       -54.7370   18.5280   14.6690 C.3    69  SER69       0.2020
     71  C        -53.7230   18.3150   13.5400 C.2    69  SER69       0.2618
     72  O        -53.2490   19.2840   12.9520 O.2    69  SER69      -0.2717
     73  CB       -54.1110   19.4230   15.7380 C.3    69  SER69       0.2103
     74  OG       -53.0330   18.7610   16.3630 O.3    69  SER69      -0.2182
     75  N        -53.3930   17.0670   13.2260 N.am   70  ASN70      -0.1974
     76  CA       -52.4270   16.8020   12.1680 C.3    70  ASN70       0.1688
     77  C        -52.8970   17.1280   10.7540 C.2    70  ASN70       0.2292
     78  O        -52.2120   17.8120   10.0030 O.2    70  ASN70      -0.2864
     79  CB       -51.9620   15.3410   12.2130 C.3    70  ASN70       0.1181
     80  CG       -50.8670   15.0950   13.2600 C.2    70  ASN70       0.2629
     81  OD1      -50.4590   13.9450   13.4950 O.2    70  ASN70      -0.2716
     82  ND2      -50.3800   16.1740   13.8870 N.am   70  ASN70      -0.0877
     83  N        -52.2390   20.5150    8.8910 N.3    73  ARG73      -0.1231
     84  CA       -50.8370   20.8710    8.6920 C.3    73  ARG73       0.1694
     85  C        -50.0010   19.7930    8.0170 C.2    73  ARG73       0.2591
     86  O        -48.9150   20.0750    7.5070 O.2    73  ARG73      -0.2718
     87  CB       -50.1890   21.2140   10.0360 C.3    73  ARG73       0.0321
     88  CG       -50.4420   22.6250   10.5290 C.3    73  ARG73       0.0489
     89  CD       -50.0240   22.7590   11.9870 C.3    73  ARG73       0.2205
     90  NE       -50.0620   24.1390   12.4800 N.pl3  73  ARG73      -0.0865
     91  CZ       -49.1550   25.0700   12.1930 C.cat  73  ARG73       0.5346
     92  NH1      -48.1280   24.7870   11.4090 N.pl3  73  ARG73       0.1354
     93  NH2      -49.2630   26.2830   12.7120 N.pl3  73  ARG73       0.1354
     94  N        -50.4980   18.5620    8.0110 N.am   74  GLN74      -0.1979
     95  CA       -49.7570   17.4490    7.4370 C.3    74  GLN74       0.1601
     96  C        -50.5290   16.9170    6.2490 C.2    74  GLN74       0.2287
     97  O        -51.3600   16.0300    6.3650 O.2    74  GLN74      -0.2864
     98  CB       -49.5240   16.4200    8.5450 C.3    74  GLN74       0.0394
     99  CG       -48.8980   17.1080    9.7930 C.3    74  GLN74       0.0908
    100  CD       -48.4450   16.1860   10.9390 C.2    74  GLN74       0.2608
    101  OE1      -48.3500   14.9680   10.8030 O.2    74  GLN74      -0.2717
    102  NE2      -48.1390   16.7900   12.0690 N.am   74  GLN74      -0.0878
    103  N        -49.1530    6.6420   11.2790 N.3    86  LYS86      -0.1245
    104  CA       -48.6530    7.5320   10.2310 C.3    86  LYS86       0.1561
    105  C        -47.8220    6.9610    9.0850 C.2    86  LYS86       0.2260
    106  O        -48.1950    7.0870    7.9200 O.2    86  LYS86      -0.2867
    107  CB       -47.8560    8.6790   10.8610 C.3    86  LYS86       0.0271
    108  CG       -48.6300    9.5040   11.8440 C.3    86  LYS86       0.0035
    109  CD       -47.7920   10.6300   12.4080 C.3    86  LYS86       0.0206
    110  CE       -48.0430   11.9320   11.6710 C.3    86  LYS86       0.1093
    111  NZ       -47.7070   13.1190   12.5260 N.3    86  LYS86      -0.1314
    112  N        -41.1100    2.5480   12.8250 N.3   108  LEU108     -0.1231
    113  CA       -39.9030    2.3650   13.6080 C.3   108  LEU108      0.1693
    114  C        -39.6970    3.5370   14.5580 C.2   108  LEU108      0.2593
    115  O        -39.9640    4.6880   14.2230 O.2   108  LEU108     -0.2718
    116  CB       -38.7060    2.2400   12.6680 C.3   108  LEU108      0.0284
    117  CG       -37.3060    2.3250   13.2600 C.3   108  LEU108      0.0019
    118  CD1      -37.1400    1.2440   14.3040 C.3   108  LEU108      0.0001
    119  CD2      -36.2740    2.1580   12.1510 C.3   108  LEU108      0.0001
    120  N        -39.2130    3.2280   15.7510 N.am  109  SER109     -0.1938
    121  CA       -38.9670    4.2410   16.7470 C.3   109  SER109      0.2055
    122  C        -37.4740    4.5110   16.7470 C.2   109  SER109      0.2642
    123  O        -36.6700    3.5990   16.8890 O.2   109  SER109     -0.2714
    124  CB       -39.4210    3.7420   18.1060 C.3   109  SER109      0.2130
    125  OG       -39.7770    4.8330   18.9200 O.3   109  SER109     -0.2179
    126  N        -37.1000    5.7670   16.5610 N.am  110  ILE110     -0.1977
    127  CA       -35.7010    6.1250   16.5300 C.3   110  ILE110      0.1596
    128  C        -35.2280    6.3490   17.9480 C.2   110  ILE110      0.2287
    129  O        -35.7250    7.2260   18.6520 O.2   110  ILE110     -0.2864
    130  CB       -35.4980    7.3920   15.6840 C.3   110  ILE110      0.0276
    131  CG1      -35.8220    7.0710   14.2220 C.3   110  ILE110      0.0022
    132  CG2      -34.0710    7.9210   15.8310 C.3   110  ILE110      0.0022
    133  CD1      -36.0670    8.2950   13.3580 C.3   110  ILE110      0.0001
    134  N        -33.6170    7.7730   20.9900 N.3   112  MET112     -0.1245
    135  CA       -33.1830    9.1410   21.2540 C.3   112  MET112      0.1570
    136  C        -32.1210    9.3120   22.3330 C.2   112  MET112      0.2261
    137  O        -32.3230    8.9610   23.4950 O.2   112  MET112     -0.2867
    138  CB       -34.4030   10.0020   21.5980 C.3   112  MET112      0.0387
    139  CG       -35.4140   10.1380   20.4670 C.3   112  MET112      0.0595
    140  SD       -36.8980   11.0410   20.9640 S.3   112  MET112     -0.1393
    141  CE       -37.9650    9.7250   21.5090 C.3   112  MET112      0.0692
    142  N        -36.2730   14.5000    8.9620 N.3   143  LEU143     -0.1231
    143  CA       -37.4310   15.3700    9.1870 C.3   143  LEU143      0.1693
    144  C        -38.1560   15.1590   10.4960 C.2   143  LEU143      0.2592
    145  O        -39.3900   15.1990   10.5620 O.2   143  LEU143     -0.2718
    146  CB       -38.4020   15.2040    8.0210 C.3   143  LEU143      0.0284
    147  CG       -37.7330   15.2650    6.6380 C.3   143  LEU143      0.0019
    148  CD1      -38.7520   14.8650    5.5930 C.3   143  LEU143      0.0001
    149  CD2      -37.1660   16.6670    6.3520 C.3   143  LEU143      0.0001
    150  N        -37.3710   14.9530   11.5450 N.am  144  VAL144     -0.1966
    151  CA       -37.8910   14.7330   12.8830 C.3   144  VAL144      0.1727
    152  C        -38.0470   16.0480   13.6300 C.2   144  VAL144      0.2616
    153  O        -37.5540   17.0840   13.1970 O.2   144  VAL144     -0.2715
    154  CB       -36.9560   13.8050   13.6400 C.3   144  VAL144      0.0290
    155  CG1      -37.0100   12.4260   12.9950 C.3   144  VAL144      0.0023
    156  CG2      -35.5310   14.3600   13.5960 C.3   144  VAL144      0.0023
    157  N        -38.7120   15.9910   14.7750 N.am  145  ASP145     -0.1971
    158  CA       -38.9960   17.1890   15.5470 C.3   145  ASP145      0.1709
    159  C        -38.3050   17.4040   16.8880 C.2   145  ASP145      0.2293
    160  O        -38.9040   17.9820   17.7980 O.2   145  ASP145     -0.2864
    161  CB       -40.5010   17.2840   15.7690 C.3   145  ASP145      0.1436
    162  CG       -41.0610   16.0220   16.3710 C.2   145  ASP145      0.3671
    163  OD1      -40.3000   15.3450   17.0850 O.co2 145  ASP145     -0.2456
    164  OD2      -42.2460   15.7000   16.1320 O.co2 145  ASP145     -0.2456
    165  N        -33.5290   13.3560   18.2640 N.3   149  SER149     -0.1217
    166  CA       -33.8670   12.4150   17.2130 C.3   149  SER149      0.1889
    167  C        -33.0010   12.5290   15.9830 C.2   149  SER149      0.2288
    168  O        -33.0610   11.6840   15.1110 O.2   149  SER149     -0.2866
    169  CB       -35.3330   12.5810   16.8260 C.3   149  SER149      0.2089
    170  OG       -36.1640   12.2830   17.9370 O.3   149  SER149     -0.2183
    171  N        -44.5610   24.2750   20.5040 N.3   215  THR215     -0.1218
    172  CA       -44.1080   23.6980   19.2370 C.3   215  THR215      0.1862
    173  C        -44.7520   24.2580   17.9670 C.2   215  THR215      0.2287
    174  O        -44.3840   23.8650   16.8600 O.2   215  THR215     -0.2866
    175  CB       -44.3320   22.1780   19.2130 C.3   215  THR215      0.1770
    176  OG1      -43.8940   21.6530   17.9500 O.3   215  THR215     -0.2211
    177  CG2      -45.8190   21.8560   19.4000 C.3   215  THR215      0.0375
@<TRIPOS>BOND
     1    24    23    2
     2   148   147    1
     3    23    22    1
     4    17    16    2
     5    96    97    2
     6    96    95    1
     7   149   147    1
     8   147   146    1
     9    22    25    1
    10    22    21    1
    11    28    26    1
    12    16    21   am
    13    16    15    1
    14    25    26    1
    15    95    94    1
    16    95    98    1
    17    86    85    2
    18    13    12    2
    19     4     3    2
    20    29    30    1
    21   106   105    2
    22    26    27    1
    23    94    85   am
    24    85    84    1
    25   146   143    1
    26    19    18    1
    27    35    33    1
    28    15    18    1
    29    15    14    1
    30     9     6    1
    31     6     7    1
    32     6     5    1
    33    98    99    1
    34    84    83    1
    35    84    87    1
    36    12    14   am
    37    12    11    1
    38     3     5   am
    39     3     2    1
    40     7     8    2
    41     7    10   am
    42   142   143    1
    43    18    20    1
    44    30    33    1
    45    30    31    1
    46   105   104    1
    47   143   144    1
    48    33    34    1
    49    10    11    1
    50     1     2    1
    51    99   100    1
    52    78    77    2
    53    87    88    1
    54    31    32    2
    55    31    36   am
    56   104   107    1
    57   104   103    1
    58   144   145    2
    59   144   150   am
    60    88    89    1
    61    77    76    1
    62   101   100    2
    63    36    37    1
    64   107   108    1
    65   100   102   am
    66    40    37    1
    67    40    41    1
    68    92    91    1
    69   150   151    1
    70    42    41   ar
    71   110   109    1
    72   110   111    1
    73    37    38    1
    74   108   109    1
    75    89    90    1
    76    41    43   ar
    77   119   117    1
    78    76    79    1
    79    76    75    1
    80    91    90    2
    81    91    93    1
    82    79    80    1
    83    39    38    2
    84   116   117    1
    85   116   113    1
    86    38    44   am
    87   112   113    1
    88   151   152    1
    89   151   154    1
    90    72    71    2
    91   155   154    1
    92   153   152    2
    93    75    71   am
    94   117   118    1
    95    80    81    2
    96    80    82   am
    97   133   131    1
    98    71    70    1
    99   156   154    1
   100   113   114    1
   101   152   157   am
   102    66    65    2
   103    44    45    1
   104    55    54    2
   105   131   130    1
   106   115   114    2
   107    58    57    1
   108    58    59    2
   109   114   120   am
   110    70    69    1
   111    70    73    1
   112    63    64    1
   113   157   158    1
   114    57    56    1
   115    57    60    1
   116    45    46    1
   117    45    48    1
   118    54    56   am
   119    54    53    1
   120   168   167    2
   121    52    46   am
   122    52    53    1
   123    65    64    1
   124   158   161    1
   125   158   159    1
   126    46    47    2
   127   130   132    1
   128   130   127    1
   129    73    74    1
   130   120   121    1
   131   161   162    1
   132    64    67    1
   133    60    62    1
   134    60    61    1
   135   167   166    1
   136    48    49    1
   137   164   162   ar
   138   162   163   ar
   139    67    68    1
   140   127   126    1
   141   127   128    1
   142   126   122   am
   143    50    49    2
   144   121   122    1
   145   121   124    1
   146   122   123    2
   147   169   166    1
   148   169   170    1
   149   174   173    2
   150   159   160    2
   151    49    51   am
   152   166   165    1
   153   128   129    2
   154   176   175    1
   155   173   172    1
   156   124   125    1
   157   175   172    1
   158   175   177    1
   159   172   171    1
   160   139   140    1
   161   139   138    1
   162   140   141    1
   163   134   135    1
   164   135   138    1
   165   135   136    1
   166   136   137    2
