@<TRIPOS>MOLECULE
tmp/3vhaA00.pdb
 163 151 0 0 0
SMALL
GASTEIGER

@<TRIPOS>ATOM
      1  N          2.3680    1.7600   18.3300 N.3    38  LEU38      -0.1245
      2  CA         2.7440    2.2550   17.0070 C.3    38  LEU38       0.1561
      3  C          2.8370    3.7810   16.9960 C.2    38  LEU38       0.2260
      4  O          3.7470    4.3230   16.3810 O.2    38  LEU38      -0.2867
      5  CB         1.7060    1.7690   15.9730 C.3    38  LEU38       0.0270
      6  CG         1.6660    0.2380   15.8030 C.3    38  LEU38       0.0019
      7  CD1        0.6010   -0.1330   14.7860 C.3    38  LEU38       0.0001
      8  CD2        3.0780   -0.3700   15.4430 C.3    38  LEU38       0.0001
      9  N          6.1570    4.6730   18.5060 N.3    41  ASN41      -0.1225
     10  CA         7.2790    4.5430   17.5850 C.3    41  ASN41       0.1785
     11  C          7.2630    5.7200   16.6000 C.2    41  ASN41       0.2597
     12  O          8.3390    6.2380   16.2570 O.2    41  ASN41      -0.2718
     13  CB         7.2080    3.2240   16.8030 C.3    41  ASN41       0.1169
     14  CG         7.4940    2.0130   17.6400 C.2    41  ASN41       0.2627
     15  OD1        8.0250    2.0980   18.7510 O.2    41  ASN41      -0.2716
     16  ND2        7.1840    0.8270   17.1160 N.am   41  ASN41      -0.0877
     17  N          6.0760    6.1480   16.1280 N.am   42  SER42      -0.1952
     18  CA         6.0300    7.2970   15.2030 C.3    42  SER42       0.1924
     19  C          6.5380    8.5710   15.9010 C.2    42  SER42       0.2314
     20  O          7.3120    9.3150   15.2990 O.2    42  SER42      -0.2863
     21  CB         4.6090    7.5410   14.7070 C.3    42  SER42       0.2116
     22  OG         4.1460    6.4850   13.8700 O.3    42  SER42      -0.2180
     23  N          8.6510    8.7850   18.3520 N.3    44  ASP44      -0.1225
     24  CA        10.1120    8.6840   18.4680 C.3    44  ASP44       0.1805
     25  C         10.8080    8.9750   17.1520 C.2    44  ASP44       0.2597
     26  O         11.8410    9.6540   17.1210 O.2    44  ASP44      -0.2718
     27  CB        10.5070    7.2860   18.9560 C.3    44  ASP44       0.1424
     28  CG        10.1580    6.9630   20.3990 C.2    44  ASP44       0.3668
     29  OD1        9.6980    7.8740   21.1230 O.co2  44  ASP44      -0.2456
     30  OD2       10.3120    5.7990   20.7920 O.co2  44  ASP44      -0.2456
     31  N         10.2330    8.4990   16.0290 N.am   45  ALA45      -0.1979
     32  CA        10.7970    8.7630   14.7100 C.3    45  ALA45       0.1597
     33  C         10.7220   10.2450   14.3400 C.2    45  ALA45       0.2287
     34  O         11.6190   10.7490   13.6600 O.2    45  ALA45      -0.2864
     35  CB        10.0490    7.9350   13.6620 C.3    45  ALA45       0.0319
     36  N         13.4200   12.0510   16.1260 N.3    48  LYS48      -0.1245
     37  CA        14.7090   11.8330   15.4900 C.3    48  LYS48       0.1561
     38  C         14.9260   12.7910   14.3480 C.2    48  LYS48       0.2260
     39  O         15.9630   13.4480   14.2940 O.2    48  LYS48      -0.2867
     40  CB        14.9230   10.3930   15.0400 C.3    48  LYS48       0.0271
     41  CG        15.0390    9.4200   16.1970 C.3    48  LYS48       0.0035
     42  CD        15.1180    7.9840   15.7280 C.3    48  LYS48       0.0206
     43  CE        15.7580    7.1640   16.8310 C.3    48  LYS48       0.1093
     44  NZ        14.9030    7.0300   18.0480 N.3    48  LYS48      -0.1314
     45  N          3.5690    8.2890    9.5160 N.3    83  ASP83      -0.1239
     46  CA         4.2700    9.4160   10.1050 C.3    83  ASP83       0.1674
     47  C          5.2300    9.9870    9.0830 C.2    83  ASP83       0.2266
     48  O          5.6000    9.3210    8.1070 O.2    83  ASP83      -0.2867
     49  CB         4.9950    9.0280   11.4080 C.3    83  ASP83       0.1410
     50  CG         6.0820    8.0060   11.2140 C.2    83  ASP83       0.3668
     51  OD1        7.1210    8.3440   10.5810 O.co2  83  ASP83      -0.2456
     52  OD2        5.9260    6.8730   11.7300 O.co2  83  ASP83      -0.2456
     53  N         11.7880   10.0130   10.7880 N.3    86  ILE86      -0.1231
     54  CA        13.0490    9.7840   10.1040 C.3    86  ILE86       0.1692
     55  C         13.0270    8.6740    9.0400 C.2    86  ILE86       0.2593
     56  O         13.8000    8.7120    8.0850 O.2    86  ILE86      -0.2718
     57  CB        14.1780    9.5990   11.1430 C.3    86  ILE86       0.0266
     58  CG1       15.5640    9.7550   10.5130 C.3    86  ILE86       0.0019
     59  CG2       14.0070    8.2610   11.9280 C.3    86  ILE86       0.0020
     60  CD1       16.6310   10.1500   11.5620 C.3    86  ILE86       0.0001
     61  N         12.1510    7.6790    9.2210 N.am   87  GLY87      -0.1942
     62  CA        12.1640    6.5550    8.3040 C.3    87  GLY87       0.2014
     63  C         13.3180    5.5930    8.5760 C.2    87  GLY87       0.2638
     64  O         14.2080    5.8770    9.3930 O.2    87  GLY87      -0.2714
     65  N         13.3490    4.4900    7.8270 N.am   88  MET88      -0.1976
     66  CA        14.3560    3.4530    8.0040 C.3    88  MET88       0.1605
     67  C         15.1100    3.1820    6.7560 C.2    88  MET88       0.2287
     68  O         14.5320    3.0390    5.6680 O.2    88  MET88      -0.2864
     69  CB        13.6860    2.1260    8.4510 C.3    88  MET88       0.0413
     70  CG        13.2790    2.1600    9.8960 C.3    88  MET88       0.0598
     71  SD        12.3620    0.6820   10.4300 S.3    88  MET88      -0.1393
     72  CE        10.6960    1.0350    9.7730 C.3    88  MET88       0.0692
     73  N         18.3210   -0.3580    9.0070 N.3    92  ASP92      -0.1239
     74  CA        17.4000   -0.1020   10.1040 C.3    92  ASP92       0.1674
     75  C         16.2210   -1.0600   10.0390 C.2    92  ASP92       0.2266
     76  O         15.8240   -1.6150   11.0560 O.2    92  ASP92      -0.2867
     77  CB        16.8510    1.3310   10.0730 C.3    92  ASP92       0.1410
     78  CG        17.8590    2.4450   10.2310 C.2    92  ASP92       0.3668
     79  OD1       18.9200    2.2030   10.8570 O.co2  92  ASP92      -0.2456
     80  OD2       17.5720    3.5760    9.7640 O.co2  92  ASP92      -0.2456
     81  N         15.7440   -3.7880   12.8790 N.3    96  ASN96      -0.1225
     82  CA        14.6690   -3.4950   13.8200 C.3    96  ASN96       0.1785
     83  C         13.3860   -4.3100   13.6480 C.2    96  ASN96       0.2597
     84  O         12.5450   -4.3640   14.5590 O.2    96  ASN96      -0.2718
     85  CB        14.3720   -2.0110   13.8900 C.3    96  ASN96       0.1169
     86  CG        15.4850   -1.1790   14.4960 C.2    96  ASN96       0.2627
     87  OD1       15.6870   -0.0330   14.1100 O.2    96  ASN96      -0.2716
     88  ND2       16.2420   -1.7310   15.4470 N.am   96  ASN96      -0.0877
     89  N         13.2340   -4.9370   12.4820 N.am   97  LEU97      -0.1980
     90  CA        12.0160   -5.7020   12.2020 C.3    97  LEU97       0.1596
     91  C         12.2210   -7.1690   12.0230 C.2    97  LEU97       0.2287
     92  O         11.5540   -7.8120   11.1890 O.2    97  LEU97      -0.2864
     93  CB        11.1900   -5.0900   11.0680 C.3    97  LEU97       0.0297
     94  CG        10.3990   -3.8120   11.4240 C.3    97  LEU97       0.0022
     95  CD1       11.3300   -2.6070   11.5870 C.3    97  LEU97       0.0001
     96  CD2        9.4490   -3.4510   10.3400 C.3    97  LEU97       0.0001
     97  N         16.3710   -9.0090   20.5850 N.3   102  LYS102     -0.1245
     98  CA        16.0380   -7.9120   21.4830 C.3   102  LYS102      0.1561
     99  C         16.2060   -8.4030   22.9040 C.2   102  LYS102      0.2260
    100  O         15.8160   -9.5370   23.2200 O.2   102  LYS102     -0.2867
    101  CB        14.6200   -7.3740   21.2080 C.3   102  LYS102      0.0271
    102  CG        14.4000   -6.9140   19.7470 C.3   102  LYS102      0.0035
    103  CD        15.1820   -5.6330   19.4020 C.3   102  LYS102      0.0206
    104  CE        14.3080   -4.4100   19.5080 C.3   102  LYS102      0.1093
    105  NZ        14.9680   -3.1990   18.9500 N.3   102  LYS102     -0.1314
    106  N         10.7500   -3.3140   24.9500 N.3   125  GLY125     -0.1225
    107  CA        11.3340   -2.9110   23.6800 C.3   125  GLY125      0.1811
    108  C         10.8790   -3.6730   22.4380 C.2   125  GLY125      0.2280
    109  O         11.5330   -3.6160   21.3960 O.2   125  GLY125     -0.2866
    110  N          6.2650   -3.0860   18.8010 N.3   128  PHE128     -0.1227
    111  CA         5.7450   -3.2270   17.4260 C.3   128  PHE128      0.1736
    112  C          4.9770   -4.5180   17.2610 C.2   128  PHE128      0.2595
    113  O          3.9570   -4.5360   16.5720 O.2   128  PHE128     -0.2718
    114  CB         6.9150   -3.2200   16.4420 C.3   128  PHE128      0.0547
    115  CG         6.5340   -3.6580   15.0480 C.ar  128  PHE128     -0.0202
    116  CD1        5.8360   -2.8010   14.2020 C.ar  128  PHE128     -0.0042
    117  CD2        6.8910   -4.9180   14.5770 C.ar  128  PHE128     -0.0042
    118  CE1        5.4690   -3.2200   12.9100 C.ar  128  PHE128     -0.0003
    119  CE2        6.5160   -5.3370   13.2830 C.ar  128  PHE128     -0.0003
    120  CZ         5.8070   -4.4770   12.4740 C.ar  128  PHE128     -0.0000
    121  N          5.4900   -5.6230   17.8420 N.am  129  TYR129     -0.1976
    122  CA         4.8360   -6.9200   17.6520 C.3   129  TYR129      0.1639
    123  C          3.4160   -7.0240   18.1990 C.2   129  TYR129      0.2290
    124  O          2.6760   -7.9550   17.8190 O.2   129  TYR129     -0.2864
    125  CB         5.7600   -8.0520   18.1080 C.3   129  TYR129      0.0560
    126  CG         7.0410   -8.0480   17.3060 C.ar  129  TYR129     -0.0198
    127  CD1        7.0680   -8.5240   15.9940 C.ar  129  TYR129     -0.0009
    128  CD2        8.2110   -7.5040   17.8300 C.ar  129  TYR129     -0.0009
    129  CE1        8.2390   -8.4910   15.2360 C.ar  129  TYR129      0.0417
    130  CE2        9.3850   -7.4590   17.0780 C.ar  129  TYR129      0.0417
    131  CZ         9.3870   -7.9520   15.7780 C.ar  129  TYR129      0.1957
    132  OH        10.5110   -7.9030   15.0030 O.3   129  TYR129     -0.2866
    133  N          4.9480   -2.7510    6.2190 N.3   140  VAL140     -0.1245
    134  CA         5.6040   -1.5150    6.6670 C.3   140  VAL140      0.1561
    135  C          6.2920   -0.8800    5.4490 C.2   140  VAL140      0.2260
    136  O          7.1850   -1.5080    4.8480 O.2   140  VAL140     -0.2867
    137  CB         6.5920   -1.7570    7.8420 C.3   140  VAL140      0.0252
    138  CG1        7.3470   -0.4690    8.2060 C.3   140  VAL140      0.0019
    139  CG2        5.8570   -2.3020    9.0740 C.3   140  VAL140      0.0019
    140  N         13.7010    6.7180    4.1060 N.3   144  HIS144     -0.1241
    141  CA        14.6790    7.5300    4.8250 C.3   144  HIS144      0.1621
    142  C         15.3780    8.4090    3.7900 C.2   144  HIS144      0.2264
    143  O         15.5530    8.0030    2.6430 O.2   144  HIS144     -0.2867
    144  CB        15.7280    6.5860    5.4440 C.3   144  HIS144      0.0745
    145  CG        16.6850    7.2160    6.3990 C.ar  144  HIS144      0.0817
    146  ND1       17.8000    7.9390    5.9490 N.ar  144  HIS144     -0.2268
    147  CD2       16.7030    7.1810    7.7500 C.ar  144  HIS144      0.1154
    148  CE1       18.4470    8.3040    7.0480 C.ar  144  HIS144      0.1986
    149  NE2       17.8260    7.9070    8.1500 N.ar  144  HIS144     -0.2212
    150  N          7.3610    6.6380    7.7760 N.3   174  THR174     -0.1218
    151  CA         6.9450    5.2320    7.8750 C.3   174  THR174      0.1862
    152  C          5.4420    5.1090    7.8590 C.2   174  THR174      0.2287
    153  O          4.7320    5.9380    8.4700 O.2   174  THR174     -0.2866
    154  CB         7.5750    4.5700    9.1210 C.3   174  THR174      0.1770
    155  OG1        9.0070    4.6530    8.9840 O.3   174  THR174     -0.2211
    156  CG2        7.1870    3.0900    9.2730 C.3   174  THR174      0.0375
    157  N          2.6120    2.0710    8.5130 N.3   176  VAL176     -0.1245
    158  CA         2.3380    0.7170    8.9830 C.3   176  VAL176      0.1561
    159  C          0.9100    0.4260    8.5840 C.2   176  VAL176      0.2260
    160  O         -0.0100    1.1290    9.0170 O.2   176  VAL176     -0.2867
    161  CB         2.5260    0.6000   10.5120 C.3   176  VAL176      0.0252
    162  CG1        2.1890   -0.8170   11.0070 C.3   176  VAL176      0.0019
    163  CG2        3.9500    0.9850   10.9300 C.3   176  VAL176      0.0019
@<TRIPOS>BOND
     1   143   142    2
     2   142   141    1
     3   140   141    1
     4   141   144    1
     5   136   135    2
     6   144   145    1
     7   135   134    1
     8    68    67    2
     9   146   145   ar
    10   146   148   ar
    11   133   134    1
    12   145   147   ar
    13   134   137    1
    14    67    66    1
    15   148   149   ar
    16   147   149   ar
    17   150   151    1
    18    65    66    1
    19    65    63   am
    20   137   138    1
    21   137   139    1
    22   152   151    1
    23   152   153    2
    24   151   154    1
    25    66    69    1
    26    56    55    2
    27    48    47    2
    28    62    63    1
    29    62    61    1
    30    69    70    1
    31   157   158    1
    32    63    64    2
    33   159   158    1
    34   159   160    2
    35   158   161    1
    36   155   154    1
    37    73    74    1
    38    55    61   am
    39    55    54    1
    40    47    46    1
    41   154   156    1
    42    45    46    1
    43    80    78   ar
    44    72    71    1
    45    70    71    1
    46    75    74    1
    47    75    76    2
    48    77    74    1
    49    77    78    1
    50    54    53    1
    51    54    57    1
    52    46    49    1
    53    78    79   ar
    54    96    94    1
    55   161   163    1
    56   161   162    1
    57    58    57    1
    58    58    60    1
    59    51    50   ar
    60    93    94    1
    61    93    90    1
    62    57    59    1
    63    92    91    2
    64    50    49    1
    65    50    52   ar
    66    94    95    1
    67    91    90    1
    68    90    89    1
    69   120   118   ar
    70   120   119   ar
    71    89    83   am
    72    81    82    1
    73   118   116   ar
    74   119   117   ar
    75    83    82    1
    76    83    84    2
    77    34    33    2
    78    35    32    1
    79    82    85    1
    80    22    21    1
    81    85    86    1
    82    87    86    2
    83   116   115   ar
    84    39    38    2
    85    33    32    1
    86    38    37    1
    87    86    88   am
    88   117   115   ar
    89    21    18    1
    90    32    31    1
    91     7     6    1
    92   132   131    1
    93    40    37    1
    94    40    41    1
    95   115   114    1
    96    18    19    1
    97    18    17    1
    98   129   131   ar
    99   129   127   ar
   100    20    19    2
   101     8     6    1
   102    37    36    1
   103    42    41    1
   104    42    43    1
   105   131   130   ar
   106     6     5    1
   107     5     2    1
   108   127   126   ar
   109    31    25   am
   110    17    11   am
   111    12    11    2
   112     4     3    2
   113   114   111    1
   114   113   112    2
   115    11    10    1
   116    13    10    1
   117    13    14    1
   118    43    44    1
   119     3     2    1
   120     2     1    1
   121   130   128   ar
   122    16    14   am
   123    26    25    2
   124    25    24    1
   125   112   111    1
   126   112   121   am
   127   126   128   ar
   128   126   125    1
   129   111   110    1
   130    10     9    1
   131    14    15    2
   132   122   121    1
   133   122   125    1
   134   122   123    1
   135   124   123    2
   136    23    24    1
   137    24    27    1
   138   105   104    1
   139    27    28    1
   140   103   104    1
   141   103   102    1
   142   102   101    1
   143    28    30   ar
   144    28    29   ar
   145    97    98    1
   146   101    98    1
   147   109   108    2
   148    98    99    1
   149   108   107    1
   150    99   100    2
   151   107   106    1
