@<TRIPOS>MOLECULE
tmp/3vhcA00.pdb
 164 153 0 0 0
SMALL
GASTEIGER

@<TRIPOS>ATOM
      1  N          2.7100    1.9310   18.4050 N.3    39  LEU39      -0.1245
      2  CA         3.0640    2.4960   17.1110 C.3    39  LEU39       0.1561
      3  C          3.1920    4.0240   17.1990 C.2    39  LEU39       0.2260
      4  O          4.1190    4.5850   16.6000 O.2    39  LEU39      -0.2867
      5  CB         2.0380    2.0710   16.0450 C.3    39  LEU39       0.0270
      6  CG         1.9220    0.5490   15.8110 C.3    39  LEU39       0.0019
      7  CD1        0.7610    0.2590   14.8570 C.3    39  LEU39       0.0001
      8  CD2        3.2230   -0.0610   15.2700 C.3    39  LEU39       0.0001
      9  N          6.5600    4.6980   18.7080 N.3    42  ASN42      -0.1225
     10  CA         7.6380    4.5780   17.7320 C.3    42  ASN42       0.1785
     11  C          7.6830    5.8200   16.8320 C.2    42  ASN42       0.2597
     12  O          8.7820    6.2850   16.4940 O.2    42  ASN42      -0.2718
     13  CB         7.4500    3.3200   16.8950 C.3    42  ASN42       0.1169
     14  CG         7.7710    2.0430   17.6420 C.2    42  ASN42       0.2627
     15  OD1        8.3650    2.0590   18.7500 O.2    42  ASN42      -0.2716
     16  ND2        7.4310    0.9210   17.0170 N.am   42  ASN42      -0.0877
     17  N          6.4860    6.3350   16.4260 N.am   43  SER43      -0.1952
     18  CA         6.4630    7.5330   15.5860 C.3    43  SER43       0.1924
     19  C          7.0470    8.7240   16.3440 C.2    43  SER43       0.2314
     20  O          7.8400    9.4780   15.7670 O.2    43  SER43      -0.2863
     21  CB         5.0230    7.8340   15.1730 C.3    43  SER43       0.2116
     22  OG         4.5680    6.8700   14.2350 O.3    43  SER43      -0.2180
     23  N          9.2510    8.6940   18.7600 N.3    45  ASP45      -0.1225
     24  CA        10.7000    8.5050   18.8740 C.3    45  ASP45       0.1805
     25  C         11.4020    8.9020   17.5740 C.2    45  ASP45       0.2597
     26  O         12.4540    9.5610   17.5930 O.2    45  ASP45      -0.2718
     27  CB        11.0070    7.0460   19.1910 C.3    45  ASP45       0.1424
     28  CG        10.6330    6.6350   20.6070 C.2    45  ASP45       0.3668
     29  OD1       10.3050    7.5510   21.4330 O.co2  45  ASP45      -0.2456
     30  OD2       10.6440    5.4060   20.8820 O.co2  45  ASP45      -0.2456
     31  N         10.7960    8.5630   16.4260 N.am   46  ALA46      -0.1979
     32  CA        11.3360    8.8700   15.0990 C.3    46  ALA46       0.1597
     33  C         11.2910   10.3720   14.8180 C.2    46  ALA46       0.2287
     34  O         12.1810   10.9220   14.1530 O.2    46  ALA46      -0.2864
     35  CB        10.5300    8.1400   14.0430 C.3    46  ALA46       0.0319
     36  N         14.0890   12.1240   16.6310 N.3    49  LYS49      -0.1245
     37  CA        15.3820   12.0240   15.9490 C.3    49  LYS49       0.1561
     38  C         15.5440   13.0910   14.8770 C.2    49  LYS49       0.2260
     39  O         16.5910   13.7440   14.8280 O.2    49  LYS49      -0.2867
     40  CB        15.5700   10.6500   15.3350 C.3    49  LYS49       0.0271
     41  CG        15.8240    9.5630   16.3560 C.3    49  LYS49       0.0035
     42  CD        15.9400    8.2610   15.5920 C.3    49  LYS49       0.0206
     43  CE        16.4590    7.1690   16.4570 C.3    49  LYS49       0.1093
     44  NZ        16.3240    5.8900   15.7290 N.3    49  LYS49      -0.1314
     45  N          3.9060    8.9860   10.0200 N.3    84  ASP84      -0.1239
     46  CA         4.6740   10.0370   10.6660 C.3    84  ASP84       0.1674
     47  C          5.6380   10.6730    9.7150 C.2    84  ASP84       0.2266
     48  O          6.0040   10.0550    8.7160 O.2    84  ASP84      -0.2867
     49  CB         5.3880    9.5400   11.9390 C.3    84  ASP84       0.1410
     50  CG         6.4740    8.5070   11.6600 C.2    84  ASP84       0.3668
     51  OD1        7.4950    8.8720   11.0020 O.co2  84  ASP84      -0.2456
     52  OD2        6.3130    7.3390   12.1150 O.co2  84  ASP84      -0.2456
     53  N         12.2380   10.4930   11.2220 N.3    87  ILE87      -0.1231
     54  CA        13.4980   10.2650   10.5080 C.3    87  ILE87       0.1692
     55  C         13.4090    9.2650    9.3350 C.2    87  ILE87       0.2593
     56  O         14.1520    9.3680    8.3500 O.2    87  ILE87      -0.2718
     57  CB        14.6110    9.8930   11.5450 C.3    87  ILE87       0.0266
     58  CG1       16.0290    9.9720   10.9600 C.3    87  ILE87       0.0019
     59  CG2       14.3970    8.5300   12.1970 C.3    87  ILE87       0.0020
     60  CD1       16.5530   11.3420   10.8530 C.3    87  ILE87       0.0001
     61  N         12.5450    8.2680    9.4600 N.am   88  GLY88      -0.1942
     62  CA        12.4460    7.2270    8.4450 C.3    88  GLY88       0.2014
     63  C         13.5890    6.2350    8.5410 C.2    88  GLY88       0.2638
     64  O         14.4940    6.3970    9.3670 O.2    88  GLY88      -0.2714
     65  N         13.5670    5.2450    7.6440 N.am   89  MET89      -0.1976
     66  CA        14.5770    4.2000    7.6170 C.3    89  MET89       0.1605
     67  C         15.1910    4.0380    6.2690 C.2    89  MET89       0.2287
     68  O         14.4870    3.9500    5.2650 O.2    89  MET89      -0.2864
     69  CB        13.9650    2.8410    8.0500 C.3    89  MET89       0.0413
     70  CG        13.7170    2.7400    9.5280 C.3    89  MET89       0.0598
     71  SD        12.7920    1.2630   10.0290 S.3    89  MET89      -0.1393
     72  CE        11.1610    1.7290    9.5090 C.3    89  MET89       0.0692
     73  N         18.5270    0.1860    7.5280 N.3    93  ASP93      -0.1239
     74  CA        17.8640    0.4060    8.8070 C.3    93  ASP93       0.1674
     75  C         16.6050   -0.4460    8.8530 C.2    93  ASP93       0.2266
     76  O         16.2970   -1.0200    9.8920 O.2    93  ASP93      -0.2867
     77  CB        17.4270    1.8860    8.9580 C.3    93  ASP93       0.1410
     78  CG        18.5070    2.9310    9.1730 C.2    93  ASP93       0.3668
     79  OD1       19.5800    2.5810    9.7290 O.co2  93  ASP93      -0.2456
     80  OD2       18.2530    4.1160    8.8580 O.co2  93  ASP93      -0.2456
     81  N         16.1240   -3.4060   11.5010 N.3    97  ASN97      -0.1225
     82  CA        15.1900   -3.1330   12.5770 C.3    97  ASN97       0.1785
     83  C         13.9200   -3.9530   12.5370 C.2    97  ASN97       0.2597
     84  O         13.2920   -4.0910   13.5810 O.2    97  ASN97      -0.2718
     85  CB        14.8470   -1.6290   12.6270 C.3    97  ASN97       0.1169
     86  CG        15.9440   -0.7860   13.2370 C.2    97  ASN97       0.2627
     87  OD1       16.7750   -0.1710   12.5500 O.2    97  ASN97      -0.2716
     88  ND2       15.9230   -0.6880   14.5350 N.am   97  ASN97      -0.0877
     89  N         13.5140   -4.4280   11.3470 N.am   98  LEU98      -0.1980
     90  CA        12.2500   -5.1470   11.1990 C.3    98  LEU98       0.1596
     91  C         12.3470   -6.6440   10.9730 C.2    98  LEU98       0.2287
     92  O         11.5710   -7.2200   10.2210 O.2    98  LEU98      -0.2864
     93  CB        11.3160   -4.4400   10.1860 C.3    98  LEU98       0.0297
     94  CG        10.5380   -3.2280   10.7070 C.3    98  LEU98       0.0022
     95  CD1       11.4620   -2.0000   10.9720 C.3    98  LEU98       0.0001
     96  CD2        9.5170   -2.8140    9.7320 C.3    98  LEU98       0.0001
     97  N         16.5420   -9.1350   18.7170 N.3   103  LYS103     -0.1245
     98  CA        16.1170   -8.0340   19.5800 C.3   103  LYS103      0.1561
     99  C         16.4770   -8.4290   20.9980 C.2   103  LYS103      0.2260
    100  O         16.2770   -9.5880   21.4120 O.2   103  LYS103     -0.2867
    101  CB        14.6060   -7.7390   19.4440 C.3   103  LYS103      0.0271
    102  CG        14.1990   -7.0910   18.1060 C.3   103  LYS103      0.0035
    103  CD        14.5320   -5.6050   18.0450 C.3   103  LYS103      0.0206
    104  CE        13.3270   -4.7330   18.2920 C.3   103  LYS103      0.1093
    105  NZ        13.7200   -3.3340   18.6400 N.3   103  LYS103     -0.1314
    106  N         11.1040   -3.4750   24.2480 N.3   126  GLY126     -0.1210
    107  CA        11.6460   -2.9630   22.9950 C.3   126  GLY126      0.1956
    108  C         11.1500   -3.6290   21.7350 C.2   126  GLY126      0.2612
    109  O         11.7410   -3.4150   20.6720 O.2   126  GLY126     -0.2717
    110  N         10.0610   -4.4260   21.8410 N.am  127  VAL127     -0.1965
    111  CA         9.4600   -5.1700   20.7260 C.3   127  VAL127      0.1727
    112  C          7.9940   -4.7400   20.4730 C.2   127  VAL127      0.2617
    113  O          7.2370   -5.4960   19.8670 O.2   127  VAL127     -0.2715
    114  CB         9.6230   -6.7080   20.8500 C.3   127  VAL127      0.0290
    115  CG1       11.0470   -7.1360   20.4760 C.3   127  VAL127      0.0023
    116  CG2        9.2540   -7.2070   22.2470 C.3   127  VAL127      0.0023
    117  N          7.6560   -3.5250   20.9030 N.am  128  GLY128     -0.1940
    118  CA         6.2960   -3.0010   20.8050 C.3   128  GLY128      0.2014
    119  C          5.6730   -3.0450   19.4230 C.2   128  GLY128      0.2639
    120  O          4.4660   -3.2850   19.2920 O.2   128  GLY128     -0.2714
    121  N          6.4600   -2.8400   18.3680 N.am  129  PHE129     -0.1959
    122  CA         5.9040   -2.9100   17.0120 C.3   129  PHE129      0.1771
    123  C          5.1360   -4.1980   16.7770 C.2   129  PHE129      0.2619
    124  O          4.1100   -4.1960   16.0880 O.2   129  PHE129     -0.2715
    125  CB         7.0560   -2.8670   15.9980 C.3   129  PHE129      0.0574
    126  CG         6.6590   -3.2140   14.5770 C.ar  129  PHE129     -0.0200
    127  CD1        5.9870   -2.2870   13.7810 C.ar  129  PHE129     -0.0042
    128  CD2        7.0160   -4.4380   14.0180 C.ar  129  PHE129     -0.0042
    129  CE1        5.6200   -2.6070   12.4760 C.ar  129  PHE129     -0.0003
    130  CE2        6.6610   -4.7510   12.7050 C.ar  129  PHE129     -0.0003
    131  CZ         5.9660   -3.8270   11.9380 C.ar  129  PHE129     -0.0000
    132  N          5.6690   -5.3450   17.2660 N.am  130  TYR130     -0.1974
    133  CA         5.0260   -6.6080   16.9920 C.3   130  TYR130      0.1639
    134  C          3.6300   -6.7570   17.5780 C.2   130  TYR130      0.2290
    135  O          2.8990   -7.6250   17.1210 O.2   130  TYR130     -0.2864
    136  CB         5.9780   -7.7920   17.3200 C.3   130  TYR130      0.0560
    137  CG         7.2220   -7.7620   16.4460 C.ar  130  TYR130     -0.0198
    138  CD1        7.1850   -8.2180   15.1360 C.ar  130  TYR130     -0.0009
    139  CD2        8.4060   -7.1850   16.9070 C.ar  130  TYR130     -0.0009
    140  CE1        8.3010   -8.1370   14.3030 C.ar  130  TYR130      0.0417
    141  CE2        9.5300   -7.0950   16.0840 C.ar  130  TYR130      0.0417
    142  CZ         9.4710   -7.5860   14.7910 C.ar  130  TYR130      0.1957
    143  OH        10.5510   -7.5130   13.9420 O.3   130  TYR130     -0.2866
    144  N          4.9670   -1.7580    5.9830 N.3   141  VAL141     -0.1245
    145  CA         5.6740   -0.5980    6.4940 C.3   141  VAL141      0.1561
    146  C          6.3310    0.1070    5.3050 C.2   141  VAL141      0.2260
    147  O          7.1860   -0.4910    4.6370 O.2   141  VAL141     -0.2867
    148  CB         6.7010   -0.9590    7.5890 C.3   141  VAL141      0.0252
    149  CG1        7.4820    0.2850    8.0440 C.3   141  VAL141      0.0019
    150  CG2        6.0250   -1.6490    8.7870 C.3   141  VAL141      0.0019
    151  N          7.6890    7.3520    8.0960 N.3   175  THR175     -0.1218
    152  CA         7.2670    5.9690    8.0920 C.3   175  THR175      0.1862
    153  C          5.7600    5.8820    8.1820 C.2   175  THR175      0.2287
    154  O          5.0950    6.6430    8.9100 O.2   175  THR175     -0.2866
    155  CB         7.9380    5.2060    9.2670 C.3   175  THR175      0.1770
    156  OG1        9.3560    5.3270    9.1220 O.3   175  THR175     -0.2211
    157  CG2        7.5740    3.7000    9.3290 C.3   175  THR175      0.0375
    158  N          2.8460    2.8990    8.7770 N.3   177  VAL177     -0.1245
    159  CA         2.5450    1.5230    9.1560 C.3   177  VAL177      0.1561
    160  C          1.0700    1.2910    8.7560 C.2   177  VAL177      0.2260
    161  O          0.1590    1.9790    9.2530 O.2   177  VAL177     -0.2867
    162  CB         2.7900    1.2580   10.6700 C.3   177  VAL177      0.0252
    163  CG1        2.3840   -0.1720   11.0340 C.3   177  VAL177      0.0019
    164  CG2        4.2520    1.5220   11.0530 C.3   177  VAL177      0.0019
@<TRIPOS>BOND
     1   147   146    2
     2    68    67    2
     3   146   145    1
     4   144   145    1
     5    67    66    1
     6   145   148    1
     7    73    74    1
     8   148   149    1
     9   148   150    1
    10    66    65    1
    11    66    69    1
    12    65    63   am
    13    69    70    1
    14   152   151    1
    15   152   153    1
    16   152   155    1
    17   153   154    2
    18    56    55    2
    19    62    63    1
    20    62    61    1
    21    63    64    2
    22    48    47    2
    23   160   159    1
    24   160   161    2
    25   158   159    1
    26    74    75    1
    27    74    77    1
    28    75    76    2
    29    80    78   ar
    30    77    78    1
    31   156   155    1
    32   159   162    1
    33    78    79   ar
    34   155   157    1
    35    55    61   am
    36    55    54    1
    37    72    71    1
    38    70    71    1
    39    47    46    1
    40    96    94    1
    41    45    46    1
    42    93    94    1
    43    93    90    1
    44    92    91    2
    45    54    53    1
    46    54    57    1
    47    46    49    1
    48   162   163    1
    49   162   164    1
    50    94    95    1
    51    60    58    1
    52    58    57    1
    53    91    90    1
    54    51    50   ar
    55    90    89    1
    56    89    83   am
    57    81    82    1
    58    57    59    1
    59    50    49    1
    60    50    52   ar
    61   131   129   ar
    62   131   130   ar
    63   129   127   ar
    64    83    82    1
    65    83    84    2
    66    87    86    2
    67    82    85    1
    68    85    86    1
    69   130   128   ar
    70    86    88   am
    71   127   126   ar
    72   143   142    1
    73   128   126   ar
    74    35    32    1
    75    34    33    2
    76    22    21    1
    77   140   142   ar
    78   140   138   ar
    79   126   125    1
    80   142   141   ar
    81    33    32    1
    82    39    38    2
    83     7     6    1
    84    38    37    1
    85    32    31    1
    86   138   137   ar
    87    21    18    1
    88     8     6    1
    89    40    37    1
    90    40    41    1
    91    18    19    1
    92    18    17    1
    93    42    41    1
    94    42    43    1
    95    44    43    1
    96    20    19    2
    97     6     5    1
    98    37    36    1
    99   125   122    1
   100     5     2    1
   101   141   139   ar
   102   124   123    2
   103    31    25   am
   104    17    11   am
   105   137   139   ar
   106   137   136    1
   107    12    11    2
   108     4     3    2
   109   123   122    1
   110   123   132   am
   111    11    10    1
   112    13    14    1
   113    13    10    1
   114   133   132    1
   115   133   136    1
   116   133   134    1
   117   122   121    1
   118    16    14   am
   119     2     3    1
   120     2     1    1
   121   135   134    2
   122    25    26    2
   123    25    24    1
   124    14    15    2
   125    10     9    1
   126   103   102    1
   127   103   104    1
   128   102   101    1
   129   104   105    1
   130   121   119   am
   131    97    98    1
   132    23    24    1
   133    24    27    1
   134    27    28    1
   135   120   119    2
   136   119   118    1
   137   101    98    1
   138    98    99    1
   139   113   112    2
   140   112   111    1
   141   112   117   am
   142   115   114    1
   143    28    30   ar
   144    28    29   ar
   145   109   108    2
   146   111   114    1
   147   111   110    1
   148   118   117    1
   149   114   116    1
   150    99   100    2
   151   108   110   am
   152   108   107    1
   153   107   106    1
