@<TRIPOS>MOLECULE
tmp/3vhdA00.pdb
 164 153 0 0 0
SMALL
GASTEIGER

@<TRIPOS>ATOM
      1  N        -12.6050  -12.7020   -6.3440 N.3    37  LEU37      -0.1245
      2  CA       -13.1510  -12.3360   -7.6410 C.3    37  LEU37       0.1561
      3  C        -14.6790  -12.2220   -7.6140 C.2    37  LEU37       0.2260
      4  O        -15.2290  -11.2750   -8.1890 O.2    37  LEU37      -0.2867
      5  CB       -12.6820  -13.3140   -8.7230 C.3    37  LEU37       0.0270
      6  CG       -11.1550  -13.3390   -8.8980 C.3    37  LEU37       0.0019
      7  CD1      -10.7560  -14.4100   -9.8840 C.3    37  LEU37       0.0001
      8  CD2      -10.6270  -11.9670   -9.3730 C.3    37  LEU37       0.0001
      9  N        -15.3980   -8.9380   -5.9440 N.3    40  ASN40      -0.1225
     10  CA       -15.2520   -7.8330   -6.9030 C.3    40  ASN40       0.1785
     11  C        -16.4420   -7.7330   -7.8320 C.2    40  ASN40       0.2597
     12  O        -16.9260   -6.6190   -8.1060 O.2    40  ASN40      -0.2718
     13  CB       -13.9860   -8.0000   -7.7150 C.3    40  ASN40       0.1169
     14  CG       -12.7410   -7.6870   -6.9300 C.2    40  ASN40       0.2627
     15  OD1      -12.7880   -7.1940   -5.7900 O.2    40  ASN40      -0.2716
     16  ND2      -11.5900   -7.9070   -7.5530 N.am   40  ASN40      -0.0877
     17  N        -16.9550   -8.8950   -8.3000 N.am   41  SER41      -0.1952
     18  CA       -18.1610   -8.8920   -9.1450 C.3    41  SER41       0.1924
     19  C        -19.3710   -8.3750   -8.3940 C.2    41  SER41       0.2314
     20  O        -20.1530   -7.5540   -8.9530 O.2    41  SER41      -0.2863
     21  CB       -18.4390  -10.2920   -9.6900 C.3    41  SER41       0.2116
     22  OG       -17.4660  -10.6810  -10.6480 O.3    41  SER41      -0.2180
     23  N        -19.3660   -6.3280   -5.8880 N.3    43  ASP43      -0.1225
     24  CA       -19.1950   -4.8930   -5.6980 C.3    43  ASP43       0.1805
     25  C        -19.5350   -4.1070   -6.9670 C.2    43  ASP43       0.2597
     26  O        -20.1610   -3.0460   -6.9030 O.2    43  ASP43      -0.2718
     27  CB       -17.7420   -4.6280   -5.3200 C.3    43  ASP43       0.1424
     28  CG       -17.3920   -5.0000   -3.8880 C.2    43  ASP43       0.3668
     29  OD1      -18.3050   -5.4170   -3.1360 O.co2  43  ASP43      -0.2456
     30  OD2      -16.1900   -4.9480   -3.5410 O.co2  43  ASP43      -0.2456
     31  N        -19.1830   -4.6800   -8.1160 N.am   44  ALA44      -0.1979
     32  CA       -19.4400   -4.0710   -9.4180 C.3    44  ALA44       0.1597
     33  C        -20.9420   -4.0530   -9.7050 C.2    44  ALA44       0.2287
     34  O        -21.4620   -3.0910  -10.2870 O.2    44  ALA44      -0.2864
     35  CB       -18.7110   -4.8630  -10.4890 C.3    44  ALA44       0.0319
     36  N        -22.5380   -1.3470   -7.6220 N.3    47  LYS47      -0.1245
     37  CA       -22.3620   -0.0150   -8.2210 C.3    47  LYS47       0.1561
     38  C        -23.3980    0.2880   -9.3030 C.2    47  LYS47       0.2260
     39  O        -24.0620    1.3250   -9.2480 O.2    47  LYS47      -0.2867
     40  CB       -20.9440    0.1760   -8.7500 C.3    47  LYS47       0.0271
     41  CG       -19.9480    0.2580   -7.6290 C.3    47  LYS47       0.0035
     42  CD       -18.5610    0.5740   -8.1430 C.3    47  LYS47       0.0206
     43  CE       -17.6530    0.8870   -6.9820 C.3    47  LYS47       0.1093
     44  NZ       -16.5860    1.8540   -7.3520 N.3    47  LYS47      -0.1314
     45  N        -19.5710  -11.1340  -14.8930 N.3    82  ASP82      -0.1239
     46  CA       -20.6630  -10.4590  -14.2250 C.3    82  ASP82       0.1674
     47  C        -21.2470   -9.4000  -15.1340 C.2    82  ASP82       0.2266
     48  O        -20.6230   -9.0230  -16.1420 O.2    82  ASP82      -0.2867
     49  CB       -20.2090   -9.8320  -12.8910 C.3    82  ASP82       0.1410
     50  CG       -19.1620   -8.7500  -13.0860 C.2    82  ASP82       0.3668
     51  OD1      -19.4960   -7.6940  -13.6980 O.co2  82  ASP82      -0.2456
     52  OD2      -17.9850   -8.9810  -12.6950 O.co2  82  ASP82      -0.2456
     53  N        -20.9450   -2.8650  -13.2210 N.3    85  ILE85      -0.1231
     54  CA       -20.7020   -1.5690  -13.8440 C.3    85  ILE85       0.1692
     55  C        -19.6280   -1.5470  -14.9500 C.2    85  ILE85       0.2593
     56  O        -19.6840   -0.6880  -15.8370 O.2    85  ILE85      -0.2718
     57  CB       -20.4740   -0.4930  -12.7580 C.3    85  ILE85       0.0266
     58  CG1      -20.7170    0.9200  -13.3230 C.3    85  ILE85       0.0019
     59  CG2      -19.0760   -0.6250  -12.1150 C.3    85  ILE85       0.0020
     60  CD1      -21.0190    1.9550  -12.2550 C.3    85  ILE85       0.0001
     61  N        -18.6640   -2.4750  -14.8920 N.am   86  GLY86      -0.1942
     62  CA       -17.5780   -2.4980  -15.8650 C.3    86  GLY86       0.2014
     63  C        -16.5840   -1.3800  -15.6400 C.2    86  GLY86       0.2638
     64  O        -16.7190   -0.5760  -14.7120 O.2    86  GLY86      -0.2714
     65  N        -15.5760   -1.3220  -16.5200 N.am   87  MET87      -0.1976
     66  CA       -14.5580   -0.2840  -16.4180 C.3    87  MET87       0.1605
     67  C        -14.3560    0.3880  -17.7560 C.2    87  MET87       0.2287
     68  O        -14.3310   -0.2840  -18.7790 O.2    87  MET87      -0.2864
     69  CB       -13.2210   -0.9260  -16.0100 C.3    87  MET87       0.0413
     70  CG       -13.1630   -1.2800  -14.5220 C.3    87  MET87       0.0598
     71  SD       -11.6430   -2.2110  -14.1330 S.3    87  MET87      -0.1393
     72  CE       -12.0660   -3.8780  -14.7800 C.3    87  MET87       0.0692
     73  N        -10.4540    3.7190  -16.2260 N.3    91  ASP91      -0.1239
     74  CA       -10.6110    2.9170  -15.0000 C.3    91  ASP91       0.1674
     75  C         -9.7140    1.6770  -15.0240 C.2    91  ASP91       0.2266
     76  O         -9.1330    1.3330  -14.0060 O.2    91  ASP91      -0.2867
     77  CB       -12.0620    2.4340  -14.8410 C.3    91  ASP91       0.1410
     78  CG       -13.1080    3.5030  -14.6670 C.2    91  ASP91       0.3668
     79  OD1      -12.7340    4.6520  -14.2780 O.co2  91  ASP91      -0.2456
     80  OD2      -14.3060    3.2150  -14.9590 O.co2  91  ASP91      -0.2456
     81  N         -6.7740    1.2880  -12.3500 N.3    95  ASN95      -0.1225
     82  CA        -7.0410    0.3440  -11.2670 C.3    95  ASN95       0.1785
     83  C         -6.3560   -0.9950  -11.3810 C.2    95  ASN95       0.2597
     84  O         -6.2990   -1.7130  -10.3800 O.2    95  ASN95      -0.2718
     85  CB        -8.5420    0.1170  -11.1060 C.3    95  ASN95       0.1169
     86  CG        -9.1920    1.2940  -10.4700 C.2    95  ASN95       0.2627
     87  OD1       -9.0750    1.5100   -9.2590 O.2    95  ASN95      -0.2716
     88  ND2       -9.8480    2.0890  -11.2850 N.am   95  ASN95      -0.0877
     89  N         -5.9470   -1.3750  -12.6090 N.am   96  LEU96      -0.1980
     90  CA        -5.3060   -2.6570  -12.8480 C.3    96  LEU96       0.1596
     91  C         -3.8170   -2.5790  -13.1200 C.2    96  LEU96       0.2287
     92  O         -3.2780   -3.3550  -13.9150 O.2    96  LEU96      -0.2864
     93  CB        -6.0560   -3.5280  -13.8630 C.3    96  LEU96       0.0297
     94  CG        -7.2640   -4.2980  -13.3040 C.3    96  LEU96       0.0022
     95  CD1       -8.4450   -3.3550  -13.0240 C.3    96  LEU96       0.0001
     96  CD2       -7.6800   -5.4170  -14.2850 C.3    96  LEU96       0.0001
     97  N         -2.7310    1.8120   -4.9600 N.3   101  LYS101     -0.1245
     98  CA        -3.6430    2.4770   -4.0360 C.3   101  LYS101      0.1561
     99  C         -3.1640    2.2100   -2.5930 C.2   101  LYS101      0.2260
    100  O         -2.2890    1.3590   -2.3850 O.2   101  LYS101     -0.2867
    101  CB        -5.0880    1.9840   -4.2430 C.3   101  LYS101      0.0271
    102  CG        -5.5870    1.9730   -5.6960 C.3   101  LYS101      0.0035
    103  CD        -5.7350    3.3630   -6.3190 C.3   101  LYS101      0.0206
    104  CE        -6.3960    3.2950   -7.6740 C.3   101  LYS101      0.1093
    105  NZ        -6.6590    4.6490   -8.2200 N.3   101  LYS101     -0.1314
    106  N         -7.7140   -4.0630   -0.3840 N.3   124  GLY124     -0.1210
    107  CA        -8.1490   -3.5790   -1.6810 C.3   124  GLY124      0.1956
    108  C         -7.3510   -4.0870   -2.8610 C.2   124  GLY124      0.2612
    109  O         -7.3710   -3.4700   -3.9300 O.2   124  GLY124     -0.2717
    110  N         -6.6040   -5.1980   -2.6690 N.am  125  VAL125     -0.1965
    111  CA        -5.7750   -5.7710   -3.7280 C.3   125  VAL125      0.1727
    112  C         -6.1340   -7.2420   -3.9640 C.2   125  VAL125      0.2617
    113  O         -5.3110   -7.9990   -4.4930 O.2   125  VAL125     -0.2715
    114  CB        -4.2570   -5.5650   -3.4750 C.3   125  VAL125      0.0290
    115  CG1       -3.8500   -4.1190   -3.7800 C.3   125  VAL125      0.0023
    116  CG2       -3.8700   -5.9440   -2.0340 C.3   125  VAL125      0.0023
    117  N         -7.3680   -7.6200   -3.6130 N.am  126  GLY126     -0.1940
    118  CA        -7.8300   -8.9930   -3.7520 C.3   126  GLY126      0.2014
    119  C         -7.7200   -9.5740   -5.1500 C.2   126  GLY126      0.2639
    120  O         -7.5170  -10.7850   -5.2990 O.2   126  GLY126     -0.2714
    121  N         -7.8970   -8.7230   -6.1990 N.am  127  PHE127     -0.1959
    122  CA        -7.7880   -9.2130   -7.5810 C.3   127  PHE127      0.1771
    123  C         -6.4770   -9.9760   -7.7930 C.2   127  PHE127      0.2619
    124  O         -6.4570  -11.0030   -8.4650 O.2   127  PHE127     -0.2715
    125  CB        -7.8020   -8.0180   -8.5620 C.3   127  PHE127      0.0574
    126  CG        -7.3950   -8.3870   -9.9830 C.ar  127  PHE127     -0.0200
    127  CD1       -8.2560   -9.1140  -10.8060 C.ar  127  PHE127     -0.0042
    128  CD2       -6.1600   -8.0070  -10.4880 C.ar  127  PHE127     -0.0042
    129  CE1       -7.8930   -9.4430  -12.1120 C.ar  127  PHE127     -0.0003
    130  CE2       -5.7930   -8.3280  -11.8020 C.ar  127  PHE127     -0.0003
    131  CZ        -6.6610   -9.0550  -12.6090 C.ar  127  PHE127     -0.0000
    132  N         -5.3750   -9.4540   -7.2560 N.am  128  TYR128     -0.1974
    133  CA        -4.0610  -10.0490   -7.4610 C.3   128  TYR128      0.1639
    134  C         -3.9030  -11.4510   -6.8960 C.2   128  TYR128      0.2290
    135  O         -2.9760  -12.1390   -7.3300 O.2   128  TYR128     -0.2864
    136  CB        -2.9410   -9.1060   -7.0250 C.3   128  TYR128      0.0560
    137  CG        -2.9290   -7.8250   -7.8370 C.ar  128  TYR128     -0.0198
    138  CD1       -2.4090   -7.7980   -9.1260 C.ar  128  TYR128     -0.0009
    139  CD2       -3.5350   -6.6640   -7.3550 C.ar  128  TYR128     -0.0009
    140  CE1       -2.4170   -6.6260   -9.8900 C.ar  128  TYR128      0.0417
    141  CE2       -3.5980   -5.4990   -8.1350 C.ar  128  TYR128      0.0417
    142  CZ        -3.0050   -5.4780   -9.3880 C.ar  128  TYR128      0.1957
    143  OH        -3.0570   -4.3350  -10.1670 O.3   128  TYR128     -0.2866
    144  N         -8.6840   -9.8110  -18.5540 N.3   139  VAL139     -0.1245
    145  CA        -9.8510   -9.1250  -18.0380 C.3   139  VAL139      0.1561
    146  C        -10.5070   -8.4450  -19.2210 C.2   139  VAL139      0.2260
    147  O         -9.8960   -7.5670  -19.8280 O.2   139  VAL139     -0.2867
    148  CB        -9.4950   -8.1170  -16.9170 C.3   139  VAL139      0.0252
    149  CG1      -10.7280   -7.3140  -16.5040 C.3   139  VAL139      0.0019
    150  CG2       -8.8880   -8.8480  -15.7150 C.3   139  VAL139      0.0019
    151  N        -17.9280   -7.3300  -16.6200 N.3   173  THR173     -0.1218
    152  CA       -16.5240   -7.7200  -16.6570 C.3   173  THR173      0.1862
    153  C        -16.4260   -9.2230  -16.6760 C.2   173  THR173      0.2287
    154  O        -17.1890   -9.9070  -15.9790 O.2   173  THR173     -0.2866
    155  CB       -15.8000   -7.1460  -15.4230 C.3   173  THR173      0.1770
    156  OG1      -15.9140   -5.7230  -15.4630 O.3   173  THR173     -0.2211
    157  CG2      -14.3000   -7.5400  -15.3390 C.3   173  THR173      0.0375
    158  N        -13.4090  -12.1560  -16.0890 N.3   175  VAL175     -0.1245
    159  CA       -12.0380  -12.4230  -15.6420 C.3   175  VAL175      0.1561
    160  C        -11.7420  -13.8800  -16.0500 C.2   175  VAL175      0.2260
    161  O        -12.4260  -14.7920  -15.5830 O.2   175  VAL175     -0.2867
    162  CB       -11.8280  -12.2040  -14.1270 C.3   175  VAL175      0.0252
    163  CG1      -10.3890  -12.5870  -13.7150 C.3   175  VAL175      0.0019
    164  CG2      -12.1510  -10.7560  -13.7400 C.3   175  VAL175      0.0019
@<TRIPOS>BOND
     1   147   146    2
     2   146   145    1
     3    68    67    2
     4   144   145    1
     5   145   148    1
     6    67    66    1
     7   148   149    1
     8   148   150    1
     9   153   152    1
    10   153   154    2
    11   152   151    1
    12   152   155    1
    13    65    66    1
    14    65    63   am
    15    66    69    1
    16    73    74    1
    17    48    47    2
    18   158   159    1
    19   160   159    1
    20   160   161    2
    21    69    70    1
    22    62    63    1
    23    62    61    1
    24    56    55    2
    25   159   162    1
    26    63    64    2
    27   156   155    1
    28   155   157    1
    29    47    46    1
    30    75    74    1
    31    75    76    2
    32    74    77    1
    33    80    78   ar
    34    55    61   am
    35    55    54    1
    36    45    46    1
    37    77    78    1
    38    72    71    1
    39    78    79   ar
    40    70    71    1
    41    96    94    1
    42    46    49    1
    43   162   164    1
    44   162   163    1
    45    92    91    2
    46    93    94    1
    47    93    90    1
    48    54    53    1
    49    54    57    1
    50    51    50   ar
    51    58    57    1
    52    58    60    1
    53    94    95    1
    54    91    90    1
    55    50    49    1
    56    50    52   ar
    57    90    89    1
    58    57    59    1
    59    89    83   am
    60   131   129   ar
    61   131   130   ar
    62    81    82    1
    63   129   127   ar
    64   130   128   ar
    65    83    82    1
    66    83    84    2
    67    88    86   am
    68    82    85    1
    69    85    86    1
    70   127   126   ar
    71    22    21    1
    72    35    32    1
    73   128   126   ar
    74    86    87    2
    75    34    33    2
    76   143   142    1
    77   126   125    1
    78   140   142   ar
    79   140   138   ar
    80     7     6    1
    81    33    32    1
    82    21    18    1
    83    32    31    1
    84   142   141   ar
    85     8     6    1
    86    38    39    2
    87    38    37    1
    88    18    19    1
    89    18    17    1
    90   138   137   ar
    91    20    19    2
    92     6     5    1
    93    40    37    1
    94    40    41    1
    95     5     2    1
    96   125   122    1
    97   124   123    2
    98    17    11   am
    99    37    36    1
   100   105   104    1
   101     4     3    2
   102    42    41    1
   103    42    43    1
   104   141   139   ar
   105    31    25   am
   106    12    11    2
   107   137   139   ar
   108   137   136    1
   109    11    10    1
   110   123   122    1
   111   123   132   am
   112    13    14    1
   113    13    10    1
   114   104   103    1
   115     2     3    1
   116     2     1    1
   117   122   121    1
   118    16    14   am
   119   133   132    1
   120   133   136    1
   121   133   134    1
   122    44    43    1
   123   135   134    2
   124    25    26    2
   125    25    24    1
   126    14    15    2
   127    10     9    1
   128   103   102    1
   129   121   119   am
   130    23    24    1
   131    24    27    1
   132   102   101    1
   133    27    28    1
   134   120   119    2
   135   119   118    1
   136    97    98    1
   137   113   112    2
   138   101    98    1
   139    98    99    1
   140   112   111    1
   141   112   117   am
   142   109   108    2
   143    28    30   ar
   144    28    29   ar
   145   115   114    1
   146   118   117    1
   147   111   114    1
   148   111   110    1
   149   114   116    1
   150   108   110   am
   151   108   107    1
   152    99   100    2
   153   107   106    1
