@<TRIPOS>MOLECULE
tmp/3vheA00.pdb
 204 192 0 0 0
SMALL
GASTEIGER

@<TRIPOS>ATOM
      1  N        -17.7290   -2.0590  -19.5030 N.3    30  LEU30      -0.1245
      2  CA       -17.2500   -1.3640  -18.3180 C.3    30  LEU30       0.1561
      3  C        -16.8670   -2.3890  -17.2580 C.2    30  LEU30       0.2260
      4  O        -16.0980   -2.0960  -16.3460 O.2    30  LEU30      -0.2867
      5  CB       -18.3390   -0.4460  -17.7680 C.3    30  LEU30       0.0270
      6  CG       -18.6650    0.7790  -18.6170 C.3    30  LEU30       0.0019
      7  CD1      -19.9470    1.4120  -18.1230 C.3    30  LEU30       0.0001
      8  CD2      -17.5120    1.7700  -18.5400 C.3    30  LEU30       0.0001
      9  N        -21.5800   -5.1660  -17.9260 N.3    38  VAL38      -0.1245
     10  CA       -22.0860   -3.8020  -17.9330 C.3    38  VAL38       0.1561
     11  C        -21.3620   -3.1480  -19.0940 C.2    38  VAL38       0.2260
     12  O        -20.1350   -3.2360  -19.1990 O.2    38  VAL38      -0.2867
     13  CB       -21.7500   -3.0380  -16.6440 C.3    38  VAL38       0.0252
     14  CG1      -22.2780   -1.6060  -16.7530 C.3    38  VAL38       0.0019
     15  CG2      -22.3760   -3.7340  -15.4460 C.3    38  VAL38       0.0019
     16  N        -24.9960    3.3600  -18.4770 N.3    56  ALA56      -0.1245
     17  CA       -24.3740    2.0560  -18.2840 C.3    56  ALA56       0.1562
     18  C        -25.4970    1.0450  -18.4600 C.2    56  ALA56       0.2260
     19  O        -26.5840    1.2120  -17.9120 O.2    56  ALA56      -0.2867
     20  CB       -23.7720    1.9510  -16.8850 C.3    56  ALA56       0.0290
     21  N        -26.6020   -2.8580  -17.9700 N.3    58  LYS58      -0.1245
     22  CA       -26.2920   -4.1640  -17.4080 C.3    58  LYS58       0.1561
     23  C        -27.0990   -5.1980  -18.1790 C.2    58  LYS58       0.2260
     24  O        -28.3020   -5.0410  -18.3770 O.2    58  LYS58      -0.2867
     25  CB       -26.6460   -4.2210  -15.9220 C.3    58  LYS58       0.0271
     26  CG       -26.2030   -5.5150  -15.2540 C.3    58  LYS58       0.0035
     27  CD       -26.2670   -5.4030  -13.7410 C.3    58  LYS58       0.0206
     28  CE       -25.8630   -6.7050  -13.0630 C.3    58  LYS58       0.1093
     29  NZ       -25.9510   -6.5740  -11.5810 N.3    58  LYS58      -0.1314
     30  N        -33.7420   -8.2740  -10.7320 N.3    75  GLU75      -0.1245
     31  CA       -32.8940   -7.1430  -10.3720 C.3    75  GLU75       0.1567
     32  C        -33.5820   -5.8540  -10.8270 C.2    75  GLU75       0.2260
     33  O        -33.6220   -4.8580  -10.1010 O.2    75  GLU75      -0.2867
     34  CB       -31.5210   -7.2750  -11.0390 C.3    75  GLU75       0.0388
     35  CG       -30.6890   -6.0040  -10.9660 C.3    75  GLU75       0.1160
     36  CD       -29.2720   -6.1940  -11.4630 C.2    75  GLU75       0.3649
     37  OE1      -28.9980   -7.2140  -12.1270 O.co2  75  GLU75      -0.2457
     38  OE2      -28.4330   -5.3130  -11.1920 O.co2  75  GLU75      -0.2457
     39  N        -36.4200   -5.0340   -8.4700 N.3    78  ILE78      -0.1231
     40  CA       -36.0060   -4.5130   -7.1780 C.3    78  ILE78       0.1692
     41  C        -35.4690   -3.0830   -7.3050 C.2    78  ILE78       0.2591
     42  O        -35.6790   -2.2650   -6.4130 O.2    78  ILE78      -0.2718
     43  CB       -34.9640   -5.4360   -6.4950 C.3    78  ILE78       0.0266
     44  CG1      -34.8310   -5.0470   -5.0210 C.3    78  ILE78       0.0019
     45  CG2      -33.6300   -5.3490   -7.1980 C.3    78  ILE78       0.0020
     46  CD1      -36.1260   -5.1890   -4.2430 C.3    78  ILE78       0.0001
     47  N        -34.7960   -2.7630   -8.4090 N.am   79  LEU79      -0.1980
     48  CA       -34.2910   -1.4010   -8.5800 C.3    79  LEU79       0.1596
     49  C        -35.4640   -0.4330   -8.6980 C.2    79  LEU79       0.2287
     50  O        -35.3920    0.7040   -8.2250 O.2    79  LEU79      -0.2864
     51  CB       -33.3940   -1.2990   -9.8180 C.3    79  LEU79       0.0297
     52  CG       -31.9790   -1.8600   -9.6460 C.3    79  LEU79       0.0022
     53  CD1      -31.2890   -1.9320  -10.9960 C.3    79  LEU79       0.0001
     54  CD2      -31.1880   -0.9760   -8.6800 C.3    79  LEU79       0.0001
     55  N        -36.7700   -0.0040   -5.0790 N.3    82  ILE82      -0.1245
     56  CA       -35.8850    0.8380   -4.2810 C.3    82  ILE82       0.1561
     57  C        -36.0880    2.3130   -4.6130 C.2    82  ILE82       0.2260
     58  O        -36.2160    3.1590   -3.7180 O.2    82  ILE82      -0.2867
     59  CB       -34.4200    0.4340   -4.5130 C.3    82  ILE82       0.0252
     60  CG1      -34.1950   -0.9650   -3.9330 C.3    82  ILE82       0.0019
     61  CG2      -33.4820    1.4460   -3.8800 C.3    82  ILE82       0.0019
     62  CD1      -32.9000   -1.6150   -4.3600 C.3    82  ILE82       0.0001
     63  N        -27.4890    5.9570   -4.5510 N.3    88  VAL88      -0.1231
     64  CA       -27.8240    4.6090   -4.9730 C.3    88  VAL88       0.1692
     65  C        -27.8470    4.6290   -6.4970 C.2    88  VAL88       0.2591
     66  O        -28.2960    5.6090   -7.0950 O.2    88  VAL88      -0.2718
     67  CB       -29.2120    4.1800   -4.4530 C.3    88  VAL88       0.0266
     68  CG1      -29.5850    2.8180   -5.0220 C.3    88  VAL88       0.0020
     69  CG2      -29.2020    4.1340   -2.9310 C.3    88  VAL88       0.0020
     70  N        -27.3370    3.5660   -7.1180 N.am   89  VAL89      -0.1980
     71  CA       -27.3260    3.4580   -8.5770 C.3    89  VAL89       0.1595
     72  C        -28.7280    3.8490   -9.0570 C.2    89  VAL89       0.2287
     73  O        -29.7290    3.3490   -8.5460 O.2    89  VAL89      -0.2864
     74  CB       -26.9650    2.0110   -9.0210 C.3    89  VAL89       0.0276
     75  CG1      -27.9890    1.0230   -8.4920 C.3    89  VAL89       0.0022
     76  CG2      -26.8640    1.9410  -10.5370 C.3    89  VAL89       0.0022
     77  N        -30.8020   -3.5130  -18.4830 N.3   104  VAL104     -0.1245
     78  CA       -31.1250   -2.6300  -17.3720 C.3   104  VAL104      0.1561
     79  C        -30.2310   -1.4110  -17.5440 C.2   104  VAL104      0.2260
     80  O        -29.0090   -1.5110  -17.4780 O.2   104  VAL104     -0.2867
     81  CB       -30.8510   -3.3250  -16.0270 C.3   104  VAL104      0.0252
     82  CG1      -31.0600   -2.3500  -14.8800 C.3   104  VAL104      0.0019
     83  CG2      -31.7810   -4.5260  -15.8750 C.3   104  VAL104      0.0019
     84  N        -28.8420    2.2000  -16.3810 N.3   106  VAL106     -0.1231
     85  CA       -28.6550    3.0660  -15.2230 C.3   106  VAL106      0.1692
     86  C        -27.7500    4.2450  -15.5490 C.2   106  VAL106      0.2592
     87  O        -27.0700    4.2630  -16.5760 O.2   106  VAL106     -0.2718
     88  CB       -28.0450    2.2940  -14.0200 C.3   106  VAL106      0.0266
     89  CG1      -28.9200    1.1020  -13.6640 C.3   106  VAL106      0.0020
     90  CG2      -26.6260    1.8330  -14.3460 C.3   106  VAL106      0.0020
     91  N        -27.7550    5.2360  -14.6640 N.am  107  GLU107     -0.1966
     92  CA       -26.9320    6.4220  -14.8340 C.3   107  GLU107      0.1733
     93  C        -25.4640    6.0100  -14.8360 C.2   107  GLU107      0.2616
     94  O        -25.0460    5.1610  -14.0460 O.2   107  GLU107     -0.2715
     95  CB       -27.1810    7.4110  -13.6910 C.3   107  GLU107      0.0429
     96  CG       -26.4230    7.0830  -12.4050 C.3   107  GLU107      0.1163
     97  CD       -26.7480    5.7070  -11.8500 C.2   107  GLU107      0.3649
     98  OE1      -26.0370    5.2470  -10.9360 O.co2 107  GLU107     -0.2457
     99  OE2      -27.7170    5.0810  -12.3180 O.co2 107  GLU107     -0.2457
    100  N        -24.6900    6.6170  -15.7270 N.am  108  PHE108     -0.1960
    101  CA       -23.2660    6.3300  -15.8510 C.3   108  PHE108      0.1771
    102  C        -22.4570    7.0540  -14.7730 C.2   108  PHE108      0.2620
    103  O        -22.5990    8.2610  -14.5820 O.2   108  PHE108     -0.2715
    104  CB       -22.7840    6.7560  -17.2420 C.3   108  PHE108      0.0574
    105  CG       -21.3130    6.5550  -17.4750 C.ar  108  PHE108     -0.0200
    106  CD1      -20.7470    5.2920  -17.4140 C.ar  108  PHE108     -0.0042
    107  CD2      -20.5010    7.6310  -17.7970 C.ar  108  PHE108     -0.0042
    108  CE1      -19.3980    5.1040  -17.6730 C.ar  108  PHE108     -0.0003
    109  CE2      -19.1500    7.4500  -18.0570 C.ar  108  PHE108     -0.0003
    110  CZ       -18.5990    6.1850  -17.9950 C.ar  108  PHE108     -0.0000
    111  N        -21.6250    6.2980  -14.0610 N.am  109  CYS109     -0.1954
    112  CA       -20.7620    6.8450  -13.0170 C.3   109  CYS109      0.1843
    113  C        -19.3450    6.7890  -13.5780 C.2   109  CYS109      0.2625
    114  O        -18.6510    5.7750  -13.4910 O.2   109  CYS109     -0.2714
    115  CB       -20.8910    6.0150  -11.7420 C.3   109  CYS109      0.0997
    116  SG       -22.5620    6.0850  -11.0440 S.3   109  CYS109     -0.0797
    117  N        -18.9550    7.9100  -14.1720 N.am  110  LYS110     -0.1977
    118  CA       -17.6770    8.1080  -14.8480 C.3   110  LYS110      0.1596
    119  C        -16.4130    7.4540  -14.3060 C.2   110  LYS110      0.2287
    120  O        -15.6250    6.9050  -15.0720 O.2   110  LYS110     -0.2864
    121  CB       -17.4240    9.6140  -14.9970 C.3   110  LYS110      0.0298
    122  CG       -16.0880    9.9750  -15.6180 C.3   110  LYS110      0.0038
    123  CD       -15.9390   11.4850  -15.7380 C.3   110  LYS110      0.0206
    124  CE       -14.6090   11.8710  -16.3710 C.3   110  LYS110      0.1093
    125  NZ       -13.4440   11.4030  -15.5630 N.3   110  LYS110     -0.1314
    126  N        -16.0950    4.7990  -12.2710 N.3   112  GLY112     -0.1210
    127  CA       -16.1280    3.3780  -11.9740 C.3   112  GLY112      0.1956
    128  C        -16.1290    3.0450  -10.4940 C.2   112  GLY112      0.2611
    129  O        -16.4640    3.8860   -9.6580 O.2   112  GLY112     -0.2717
    130  N        -15.7260    1.8230  -10.1550 N.am  113  ASN113     -0.1974
    131  CA       -15.7490    1.4150   -8.7560 C.3   113  ASN113      0.1688
    132  C        -14.7400    2.1530   -7.8850 C.2   113  ASN113      0.2292
    133  O        -13.6200    2.4620   -8.3030 O.2   113  ASN113     -0.2864
    134  CB       -15.5570   -0.0940   -8.6230 C.3   113  ASN113      0.1181
    135  CG       -14.1160   -0.5030   -8.7260 C.2   113  ASN113      0.2629
    136  OD1      -13.5490   -0.5580   -9.8130 O.2   113  ASN113     -0.2716
    137  ND2      -13.5030   -0.7830   -7.5810 N.am  113  ASN113     -0.0877
    138  N        -31.5370    2.5750    1.4860 N.3   155  LEU155     -0.1245
    139  CA       -31.8160    1.1970    1.1070 C.3   155  LEU155      0.1561
    140  C        -32.6030    0.4880    2.2110 C.2   155  LEU155      0.2260
    141  O        -33.5480   -0.2590    1.9360 O.2   155  LEU155     -0.2867
    142  CB       -30.5050    0.4500    0.8420 C.3   155  LEU155      0.0270
    143  CG       -30.6510   -0.9800    0.3170 C.3   155  LEU155      0.0019
    144  CD1      -31.3120   -0.9460   -1.0580 C.3   155  LEU155      0.0001
    145  CD2      -29.2850   -1.6490    0.2300 C.3   155  LEU155      0.0001
    146  N        -31.8150   -5.2130    1.8730 N.3   161  ILE161     -0.1231
    147  CA       -30.5080   -5.4710    2.4710 C.3   161  ILE161      0.1692
    148  C        -29.5490   -5.5800    1.2870 C.2   161  ILE161      0.2592
    149  O        -29.9500   -6.0130    0.2050 O.2   161  ILE161     -0.2718
    150  CB       -30.5130   -6.8050    3.2590 C.3   161  ILE161      0.0266
    151  CG1      -31.5530   -6.7350    4.3810 C.3   161  ILE161      0.0019
    152  CG2      -29.1330   -7.0890    3.8350 C.3   161  ILE161      0.0020
    153  CD1      -31.3350   -5.5850    5.3400 C.3   161  ILE161      0.0001
    154  N        -28.2930   -5.1890    1.4680 N.am  162  HIS162     -0.1976
    155  CA       -27.3550   -5.2560    0.3540 C.3   162  HIS162      0.1656
    156  C        -26.7310   -6.6370    0.1700 C.2   162  HIS162      0.2291
    157  O        -26.7920   -7.2100   -0.9180 O.2   162  HIS162     -0.2864
    158  CB       -26.2620   -4.2030    0.5200 C.3   162  HIS162      0.0771
    159  CG       -25.4340   -4.0160   -0.7090 C.ar  162  HIS162      0.0820
    160  ND1      -24.5600   -4.9760   -1.1710 N.ar  162  HIS162     -0.2267
    161  CD2      -25.4010   -3.0080   -1.6120 C.ar  162  HIS162      0.1154
    162  CE1      -24.0250   -4.5680   -2.3080 C.ar  162  HIS162      0.1986
    163  NE2      -24.5190   -3.3780   -2.5980 N.ar  162  HIS162     -0.2212
    164  N        -19.8230    3.0480   -6.6860 N.3   171  LEU171     -0.1245
    165  CA       -19.4070    3.7260   -7.9080 C.3   171  LEU171      0.1561
    166  C        -19.1740    5.2040   -7.6520 C.2   171  LEU171      0.2260
    167  O        -19.8760    5.8210   -6.8510 O.2   171  LEU171     -0.2867
    168  CB       -20.4690    3.5700   -9.0000 C.3   171  LEU171      0.0270
    169  CG       -20.7550    2.1460   -9.4740 C.3   171  LEU171      0.0019
    170  CD1      -22.0490    2.1190  -10.2670 C.3   171  LEU171      0.0001
    171  CD2      -19.5880    1.6430  -10.3090 C.3   171  LEU171      0.0001
    172  N        -24.1480    3.4700   -4.2510 N.3   180  ILE180     -0.1231
    173  CA       -24.0900    2.0560   -3.9100 C.3   180  ILE180      0.1692
    174  C        -24.6320    1.2760   -5.1050 C.2   180  ILE180      0.2592
    175  O        -25.5690    1.7150   -5.7690 O.2   180  ILE180     -0.2718
    176  CB       -24.9620    1.7380   -2.6870 C.3   180  ILE180      0.0266
    177  CG1      -24.4260    2.4800   -1.4650 C.3   180  ILE180      0.0019
    178  CG2      -24.9880    0.2430   -2.4460 C.3   180  ILE180      0.0020
    179  CD1      -25.4070    2.5340   -0.3260 C.3   180  ILE180      0.0001
    180  N        -24.0280    0.1300   -5.3910 N.am  181  CYS181     -0.1956
    181  CA       -24.4890   -0.7050   -6.4930 C.3   181  CYS181      0.1843
    182  C        -24.1600   -2.1450   -6.1420 C.2   181  CYS181      0.2625
    183  O        -23.6250   -2.4230   -5.0720 O.2   181  CYS181     -0.2714
    184  CB       -23.7820   -0.3240   -7.7980 C.3   181  CYS181      0.0997
    185  SG       -22.0790   -0.9360   -7.9400 S.3   181  CYS181     -0.0797
    186  N        -24.5120   -3.0610   -7.0340 N.am  182  ASP182     -0.1957
    187  CA       -24.2110   -4.4720   -6.8360 C.3   182  ASP182      0.1840
    188  C        -23.9200   -5.0180   -8.2280 C.2   182  ASP182      0.2622
    189  O        -24.8340   -5.1970   -9.0350 O.2   182  ASP182     -0.2715
    190  CB       -25.4060   -5.2040   -6.2070 C.3   182  ASP182      0.1450
    191  CG       -25.0920   -6.6470   -5.8670 C.2   182  ASP182      0.3671
    192  OD1      -25.9180   -7.2970   -5.1940 O.co2 182  ASP182     -0.2456
    193  OD2      -24.0220   -7.1330   -6.2780 O.co2 182  ASP182     -0.2456
    194  N        -22.6420   -5.2490   -8.5210 N.am  183  PHE183     -0.1974
    195  CA       -22.2560   -5.7680   -9.8340 C.3   183  PHE183      0.1639
    196  C        -22.9090   -7.1110  -10.1090 C.2   183  PHE183      0.2290
    197  O        -23.2520   -7.4170  -11.2530 O.2   183  PHE183     -0.2864
    198  CB       -20.7390   -5.9400   -9.9360 C.3   183  PHE183      0.0560
    199  CG       -19.9990   -4.6930  -10.3260 C.ar  183  PHE183     -0.0200
    200  CD1      -19.2900   -4.6420  -11.5150 C.ar  183  PHE183     -0.0042
    201  CD2      -19.9660   -3.5930   -9.4860 C.ar  183  PHE183     -0.0042
    202  CE1      -18.5560   -3.5200  -11.8590 C.ar  183  PHE183     -0.0003
    203  CE2      -19.2320   -2.4660   -9.8220 C.ar  183  PHE183     -0.0003
    204  CZ       -18.5260   -2.4310  -11.0120 C.ar  183  PHE183     -0.0000
@<TRIPOS>BOND
     1     1     2    1
     2    12    11    2
     3    11    10    1
     4     6     8    1
     5     6     7    1
     6     6     5    1
     7    77    78    1
     8    16    17    1
     9    18    17    1
    10    18    19    2
    11    24    23    2
    12     2     5    1
    13     2     3    1
    14    17    20    1
    15    23    22    1
    16   109   110   ar
    17   109   107   ar
    18   110   108   ar
    19    21    22    1
    20    10     9    1
    21    10    13    1
    22   107   105   ar
    23   108   106   ar
    24    79    80    2
    25    79    78    1
    26   105   106   ar
    27   105   104    1
    28    22    25    1
    29    78    81    1
    30     3     4    2
    31   104   101    1
    32    14    13    1
    33    13    15    1
    34    87    86    2
    35    84    85    1
    36   124   123    1
    37   124   125    1
    38    81    83    1
    39    81    82    1
    40    25    26    1
    41   101   100    1
    42   101   102    1
    43   123   122    1
    44   100    93   am
    45   122   121    1
    46    86    85    1
    47    86    91   am
    48    26    27    1
    49    85    88    1
    50   120   119    2
    51   121   118    1
    52   118   119    1
    53   118   117    1
    54    93    92    1
    55    93    94    2
    56    92    91    1
    57    92    95    1
    58   102   103    2
    59   102   111   am
    60    90    88    1
    61   117   113   am
    62   111   112    1
    63    88    89    1
    64    27    28    1
    65    95    96    1
    66   113   114    2
    67   113   112    1
    68    28    29    1
    69   112   115    1
    70    96    97    1
    71    99    97   ar
    72   126   127    1
    73    37    36   ar
    74   127   128    1
    75   202   200   ar
    76   202   204   ar
    77    97    98   ar
    78   115   116    1
    79   200   199   ar
    80    36    38   ar
    81    36    35    1
    82   197   196    2
    83    34    35    1
    84    34    31    1
    85   204   203   ar
    86    53    52    1
    87    32    31    1
    88    32    33    2
    89    30    31    1
    90    76    74    1
    91   128   130   am
    92   128   129    2
    93   199   198    1
    94   199   201   ar
    95   171   169    1
    96   170   169    1
    97   130   131    1
    98   196   195    1
    99   198   195    1
   100   195   194    1
   101   203   201   ar
   102    51    52    1
   103    51    48    1
   104   136   135    2
   105    52    54    1
   106   169   168    1
   107    72    71    1
   108    72    73    2
   109   189   188    2
   110    74    71    1
   111    74    75    1
   112   168   165    1
   113   131   134    1
   114   131   132    1
   115   135   134    1
   116   135   137   am
   117    49    48    1
   118    49    50    2
   119    48    47    1
   120    71    70    1
   121   194   188   am
   122    39    40    1
   123    47    41   am
   124   133   132    2
   125   188   187    1
   126   185   184    1
   127   165   166    1
   128   165   164    1
   129   184   181    1
   130   166   167    2
   131    41    40    1
   132    41    42    2
   133    45    43    1
   134    40    43    1
   135    70    65   am
   136    66    65    2
   137   186   187    1
   138   186   182   am
   139   187   190    1
   140    65    64    1
   141    43    44    1
   142   181   182    1
   143   181   180    1
   144   193   191   ar
   145   190   191    1
   146   182   183    2
   147   191   192   ar
   148   175   174    2
   149   180   174   am
   150   174   173    1
   151    55    56    1
   152    68    67    1
   153    44    46    1
   154    64    63    1
   155    64    67    1
   156    57    56    1
   157    57    58    2
   158    59    56    1
   159    59    60    1
   160    59    61    1
   161    67    69    1
   162    62    60    1
   163   172   173    1
   164   173   176    1
   165   176   178    1
   166   176   177    1
   167   163   162   ar
   168   163   161   ar
   169   162   160   ar
   170   161   159   ar
   171   177   179    1
   172   160   159   ar
   173   144   143    1
   174   157   156    2
   175   159   158    1
   176   156   155    1
   177   149   148    2
   178   145   143    1
   179   143   142    1
   180   155   158    1
   181   155   154    1
   182   142   139    1
   183   139   138    1
   184   139   140    1
   185   148   154   am
   186   148   147    1
   187   146   147    1
   188   141   140    2
   189   147   150    1
   190   150   152    1
   191   150   151    1
   192   151   153    1
