@<TRIPOS>MOLECULE
tmp/3vhhA00.pdb
 152 145 0 0 0
SMALL
GASTEIGER

@<TRIPOS>ATOM
      1  N         16.4090   17.2670    3.2870 N.3    12  ASN12      -0.1240
      2  CA        16.9060   15.8560    3.0720 C.3    12  ASN12       0.1653
      3  C         16.7100   15.3000    1.6230 C.2    12  ASN12       0.2266
      4  O         16.4030   16.0950    0.7100 O.2    12  ASN12      -0.2867
      5  CB        16.5050   14.8520    4.1870 C.3    12  ASN12       0.1155
      6  CG        15.0330   14.5900    4.2590 C.2    12  ASN12       0.2627
      7  OD1       14.4620   14.2910    5.3400 O.2    12  ASN12      -0.2716
      8  ND2       14.3810   14.6780    3.1270 N.am   12  ASN12      -0.0877
      9  N         14.4900   13.1050    0.6820 N.3    14  LEU14      -0.1245
     10  CA        13.1090   12.7800    0.4870 C.3    14  LEU14       0.1561
     11  C         12.3500   14.0280    0.0320 C.2    14  LEU14       0.2260
     12  O         11.1460   13.9760   -0.3040 O.2    14  LEU14      -0.2867
     13  CB        12.5410   12.2220    1.7860 C.3    14  LEU14       0.0270
     14  CG        12.6820   10.7090    2.0270 C.3    14  LEU14       0.0019
     15  CD1       13.8980   10.0410    1.3580 C.3    14  LEU14       0.0001
     16  CD2       12.6570   10.4330    3.4970 C.3    14  LEU14       0.0001
     17  N         11.9730   16.5820    2.1870 N.3    16  SER16      -0.1217
     18  CA        11.4960   17.2810    3.4120 C.3    16  SER16       0.1889
     19  C         12.3560   18.4940    3.7410 C.2    16  SER16       0.2288
     20  O         13.5700   18.4890    3.4520 O.2    16  SER16      -0.2866
     21  CB        11.5070   16.3450    4.6020 C.3    16  SER16       0.2089
     22  OG        10.5130   15.3620    4.4380 O.3    16  SER16      -0.2183
     23  N          8.4300   21.0480   10.5460 N.3    33  TYR33      -0.1241
     24  CA         8.8490   20.0290    9.6190 C.3    33  TYR33       0.1605
     25  C          7.8300   19.9670    8.4550 C.2    33  TYR33       0.2264
     26  O          6.6190   19.7410    8.6670 O.2    33  TYR33      -0.2867
     27  CB         9.0060   18.6680   10.3570 C.3    33  TYR33       0.0534
     28  CG         9.9040   17.6430    9.6660 C.ar   33  TYR33      -0.0201
     29  CD1       11.2250   17.4750   10.0490 C.ar   33  TYR33      -0.0009
     30  CD2        9.4170   16.8140    8.6530 C.ar   33  TYR33      -0.0009
     31  CE1       12.0310   16.5250    9.4510 C.ar   33  TYR33       0.0417
     32  CE2       10.2200   15.8720    8.0390 C.ar   33  TYR33       0.0417
     33  CZ        11.5160   15.7600    8.4400 C.ar   33  TYR33       0.1957
     34  OH        12.2900   14.8630    7.8450 O.3    33  TYR33      -0.2866
     35  N          7.1800   18.0080    4.9310 N.3    35  THR35      -0.1218
     36  CA         7.5090   16.7880    4.2550 C.3    35  THR35       0.1862
     37  C          7.0050   16.7900    2.7810 C.2    35  THR35       0.2287
     38  O          5.9760   17.4150    2.4430 O.2    35  THR35      -0.2866
     39  CB         6.8720   15.6930    5.1250 C.3    35  THR35       0.1770
     40  OG1        7.8480   14.7140    5.4150 O.3    35  THR35      -0.2211
     41  CG2        5.6430   15.1100    4.5140 C.3    35  THR35       0.0375
     42  N          6.7230   13.7190    1.0860 N.3    37  VAL37      -0.1231
     43  CA         6.1150   12.3750    0.9320 C.3    37  VAL37       0.1692
     44  C          5.6550   11.8400    2.2870 C.2    37  VAL37       0.2593
     45  O          6.1480   12.2780    3.3190 O.2    37  VAL37      -0.2718
     46  CB         7.0610   11.2820    0.2520 C.3    37  VAL37       0.0266
     47  CG1        7.6360   11.7440   -1.1260 C.3    37  VAL37       0.0020
     48  CG2        8.2180   10.8820    1.1480 C.3    37  VAL37       0.0020
     49  N          4.7450   10.8770    2.2860 N.am   38  THR38      -0.1939
     50  CA         4.2710   10.2850    3.5110 C.3    38  THR38       0.2028
     51  C          4.0760    8.7610    3.4090 C.2    38  THR38       0.2642
     52  O          4.3850    8.1320    2.4020 O.2    38  THR38      -0.2714
     53  CB         2.9470   10.9620    4.0430 C.3    38  THR38       0.1808
     54  OG1        1.8220   10.5230    3.2990 O.3    38  THR38      -0.2208
     55  CG2        3.0040   12.4670    3.9930 C.3    38  THR38       0.0379
     56  N          3.5880    8.1830    4.4930 N.am   39  ALA39      -0.1963
     57  CA         3.1280    6.8270    4.5260 C.3    39  ALA39       0.1728
     58  C          1.6380    6.8210    4.9290 C.2    39  ALA39       0.2616
     59  O          1.1140    5.8350    5.4530 O.2    39  ALA39      -0.2715
     60  CB         3.9580    6.0660    5.4990 C.3    39  ALA39       0.0334
     61  N          0.9580    7.9420    4.7050 N.am   40  THR40      -0.1951
     62  CA        -0.5110    7.9960    4.7990 C.3    40  THR40       0.1897
     63  C         -1.2110    8.4020    3.5080 C.2    40  THR40       0.2313
     64  O         -0.6060    8.7650    2.4870 O.2    40  THR40      -0.2863
     65  CB        -1.0290    8.9920    5.8630 C.3    40  THR40       0.1794
     66  OG1       -0.1060   10.0900    6.0000 O.3    40  THR40      -0.2208
     67  CG2       -1.3090    8.2800    7.2060 C.3    40  THR40       0.0378
     68  N          3.3400   14.8270   14.1440 N.3    70  TRP70      -0.1241
     69  CA         2.6960   14.9390   12.8100 C.3    70  TRP70       0.1605
     70  C          1.3130   15.5290   12.9540 C.2    70  TRP70       0.2264
     71  O          0.5540   15.0950   13.8180 O.2    70  TRP70      -0.2867
     72  CB         2.6580   13.6110   12.0320 C.3    70  TRP70       0.0550
     73  CG         4.0300   13.1380   11.7070 C.ar   70  TRP70       0.0003
     74  CD1        4.6570   12.0320   12.2240 C.ar   70  TRP70       0.0946
     75  CD2        4.9980   13.7960   10.8630 C.ar   70  TRP70       0.0152
     76  NE1        5.9480   11.9500   11.7370 N.ar   70  TRP70      -0.2442
     77  CE2        6.1860   13.0140   10.9020 C.ar   70  TRP70       0.0810
     78  CE3        4.9790   14.9610   10.0770 C.ar   70  TRP70       0.0012
     79  CZ2        7.3240   13.3470   10.1850 C.ar   70  TRP70       0.0191
     80  CZ3        6.1440   15.3100    9.3700 C.ar   70  TRP70       0.0001
     81  CH2        7.3000   14.5080    9.4480 C.ar   70  TRP70       0.0015
     82  N         -1.0270   15.5890   10.6020 N.3    72  PHE72      -0.1227
     83  CA        -1.8970   15.0470    9.5350 C.3    72  PHE72       0.1736
     84  C         -1.9170   13.5190    9.5080 C.2    72  PHE72       0.2596
     85  O         -2.0440   12.8940    8.4420 O.2    72  PHE72      -0.2718
     86  CB        -1.4330   15.5440    8.1780 C.3    72  PHE72       0.0547
     87  CG        -0.0490   15.1570    7.8380 C.ar   72  PHE72      -0.0202
     88  CD1        1.0060   15.9890    8.1470 C.ar   72  PHE72      -0.0042
     89  CD2        0.2200   13.9510    7.2130 C.ar   72  PHE72      -0.0042
     90  CE1        2.3090   15.6550    7.8210 C.ar   72  PHE72      -0.0003
     91  CE2        1.5290   13.6040    6.9090 C.ar   72  PHE72      -0.0003
     92  CZ         2.5720   14.4680    7.2060 C.ar   72  PHE72      -0.0000
     93  N         -1.7700   12.9320   10.6880 N.am   73  SER73      -0.1952
     94  CA        -1.4890   11.5180   10.8550 C.3    73  SER73       0.1924
     95  C         -1.4930   11.3130   12.3560 C.2    73  SER73       0.2314
     96  O         -1.2720   12.2420   13.1070 O.2    73  SER73      -0.2863
     97  CB        -0.1050   11.2040   10.2520 C.3    73  SER73       0.2116
     98  OG         0.4170   10.0000   10.7500 O.3    73  SER73      -0.2180
     99  N          0.5130    9.4570   13.8390 N.3    75  SER75      -0.1217
    100  CA         1.8990    9.0040   14.0150 C.3    75  SER75       0.1889
    101  C          2.8390    9.9510   14.7390 C.2    75  SER75       0.2288
    102  O          2.5820   11.1210   14.8980 O.2    75  SER75      -0.2866
    103  CB         2.5260    8.7040   12.6560 C.3    75  SER75       0.2089
    104  OG         1.8800    7.5930   12.1100 O.3    75  SER75      -0.2183
    105  N          7.1570   10.5900   14.5800 N.3    77  THR77      -0.1218
    106  CA         8.5700   10.3090   14.2830 C.3    77  THR77       0.1862
    107  C          9.5890   10.8910   15.3070 C.2    77  THR77       0.2287
    108  O          9.5470   12.0730   15.6580 O.2    77  THR77      -0.2866
    109  CB         8.9860   10.8370   12.9330 C.3    77  THR77       0.1770
    110  OG1        8.1170   10.3000   11.9570 O.3    77  THR77      -0.2211
    111  CG2       10.4030   10.3390   12.5960 C.3    77  THR77       0.0375
    112  N         13.8780   11.5180   15.8620 N.3    79  PHE79      -0.1241
    113  CA        15.1280   11.5920   15.1670 C.3    79  PHE79       0.1605
    114  C         16.2030   11.7470   16.2490 C.2    79  PHE79       0.2264
    115  O         16.0480   12.5320   17.2190 O.2    79  PHE79      -0.2867
    116  CB        15.2150   12.8760   14.3130 C.3    79  PHE79       0.0534
    117  CG        14.3860   12.8430   13.0550 C.ar   79  PHE79      -0.0203
    118  CD1       12.9980   12.9700   13.1160 C.ar   79  PHE79      -0.0042
    119  CD2       14.9760   12.5750   11.8540 C.ar   79  PHE79      -0.0042
    120  CE1       12.2220   12.8730   11.9620 C.ar   79  PHE79      -0.0003
    121  CE2       14.2140   12.4800   10.6820 C.ar   79  PHE79      -0.0003
    122  CZ        12.8530   12.6320   10.7250 C.ar   79  PHE79      -0.0000
    123  N         16.0790    7.6970   12.5500 N.3    97  TRP97      -0.1241
    124  CA        14.6950    8.0340   12.9270 C.3    97  TRP97       0.1605
    125  C         13.8630    6.7820   13.1290 C.2    97  TRP97       0.2264
    126  O         14.1670    5.7220   12.5460 O.2    97  TRP97      -0.2867
    127  CB        14.0380    8.9600   11.8870 C.3    97  TRP97       0.0550
    128  CG        14.0650    8.4770   10.4180 C.ar   97  TRP97       0.0003
    129  CD1       14.9070    8.8840    9.4290 C.ar   97  TRP97       0.0946
    130  CD2       13.1790    7.5110    9.8200 C.ar   97  TRP97       0.0152
    131  NE1       14.6280    8.2010    8.2580 N.ar   97  TRP97      -0.2442
    132  CE2       13.5690    7.3600    8.4790 C.ar   97  TRP97       0.0810
    133  CE3       12.1360    6.7110   10.3140 C.ar   97  TRP97       0.0012
    134  CZ2       12.9000    6.5020    7.6070 C.ar   97  TRP97       0.0191
    135  CZ3       11.5010    5.8340    9.4410 C.ar   97  TRP97       0.0001
    136  CH2       11.8790    5.7430    8.1170 C.ar   97  TRP97       0.0015
    137  N          9.6370    5.7440   13.0650 N.3    99  LEU99      -0.1301
    138  CA         8.2750    6.2310   12.6760 C.3    99  LEU99       0.1247
    139  C          7.3110    5.2620   13.2840 C.3    99  LEU99       0.2009
    140  O          7.3600    3.9970   13.0610 O.3    99  LEU99      -0.2188
    141  CB         8.1660    6.3820   11.1710 C.3    99  LEU99       0.0217
    142  CG         6.7190    6.5710   10.5940 C.3    99  LEU99       0.0015
    143  CD1        6.0050    7.8600   11.0450 C.3    99  LEU99       0.0000
    144  CD2        6.8420    6.5680    9.0880 C.3    99  LEU99       0.0000
    145  N         18.6170    9.4140    7.5890 N.3   118  ASN118     -0.1240
    146  CA        18.6650   10.5660    6.6660 C.3   118  ASN118      0.1653
    147  C         19.7350   11.5490    7.0170 C.2   118  ASN118      0.2266
    148  O         19.9450   11.8700    8.1840 O.2   118  ASN118     -0.2867
    149  CB        17.2970   11.2880    6.5380 C.3   118  ASN118      0.1155
    150  CG        16.4310   10.6140    5.5120 C.2   118  ASN118      0.2627
    151  OD1       16.6140   10.8210    4.2930 O.2   118  ASN118     -0.2716
    152  ND2       15.5880    9.6880    5.9720 N.am  118  ASN118     -0.0877
@<TRIPOS>BOND
     1    47    46    1
     2    12    11    2
     3    11    10    1
     4    46    43    1
     5    46    48    1
     6    10     9    1
     7    10    13    1
     8     4     3    2
     9    43    42    1
    10    43    44    1
    11    15    14    1
    12     3     2    1
    13    13    14    1
    14    14    16    1
    15    17    18    1
    16    49    44   am
    17    49    50    1
    18    44    45    2
    19    52    51    2
    20    38    37    2
    21    64    63    2
    22    37    36    1
    23     2     1    1
    24     2     5    1
    25     8     6   am
    26    54    53    1
    27    51    50    1
    28    51    56   am
    29    18    19    1
    30    18    21    1
    31    20    19    2
    32    63    62    1
    33    50    53    1
    34    55    53    1
    35     5     6    1
    36    36    35    1
    37    36    39    1
    38     6     7    2
    39   151   150    2
    40    22    21    1
    41    56    57    1
    42    41    39    1
    43    57    58    1
    44    57    60    1
    45    61    62    1
    46    61    58   am
    47    62    65    1
    48    58    59    2
    49    39    40    1
    50   150   152   am
    51   150   149    1
    52    65    66    1
    53    65    67    1
    54   149   146    1
    55   146   147    1
    56   146   145    1
    57    91    92   ar
    58    91    89   ar
    59   147   148    2
    60    92    90   ar
    61    89    87   ar
    62   134   136   ar
    63   134   132   ar
    64    90    88   ar
    65    87    88   ar
    66    87    86    1
    67    34    33    1
    68    32    33   ar
    69    32    30   ar
    70   136   135   ar
    71    86    83    1
    72   131   132   ar
    73   131   129   ar
    74    33    31   ar
    75    85    84    2
    76    25    26    2
    77    25    24    1
    78   132   130   ar
    79    30    28   ar
    80   144   142    1
    81    80    81   ar
    82    80    78   ar
    83   129   128   ar
    84   135   133   ar
    85    81    79   ar
    86    31    29   ar
    87    84    83    1
    88    84    93   am
    89    83    82    1
    90    24    27    1
    91    24    23    1
    92    28    29   ar
    93    28    27    1
    94   130   133   ar
    95   130   128   ar
    96    78    75   ar
    97    79    77   ar
    98    97    98    1
    99    97    94    1
   100   128   127    1
   101   142   143    1
   102   142   141    1
   103   121   122   ar
   104   121   119   ar
   105    93    94    1
   106   122   120   ar
   107    94    95    1
   108    75    77   ar
   109    75    73   ar
   110    77    76   ar
   111   141   138    1
   112    73    72    1
   113    73    74   ar
   114    76    74   ar
   115   119   117   ar
   116   127   124    1
   117   110   109    1
   118   120   118   ar
   119    72    69    1
   120   104   103    1
   121    95    96    2
   122   126   125    2
   123   123   124    1
   124   111   109    1
   125   103   100    1
   126   138   137    1
   127   138   139    1
   128    69    70    1
   129    69    68    1
   130   124   125    1
   131   109   106    1
   132    70    71    2
   133   117   118   ar
   134   117   116    1
   135   140   139    1
   136    99   100    1
   137   100   101    1
   138   106   105    1
   139   106   107    1
   140   116   113    1
   141   101   102    2
   142   113   112    1
   143   113   114    1
   144   107   108    2
   145   114   115    2
