@<TRIPOS>MOLECULE
tmp/3vhiC00.pdb
 182 175 0 0 0
SMALL
GASTEIGER

@<TRIPOS>ATOM
      1  N        -37.2950  -25.1400  -14.6350 N.3    11  ASN11      -0.1225
      2  CA       -37.2880  -23.7430  -14.0160 C.3    11  ASN11       0.1785
      3  C        -38.6990  -23.3420  -13.4810 C.2    11  ASN11       0.2597
      4  O        -39.5840  -24.1890  -13.4970 O.2    11  ASN11      -0.2718
      5  CB       -36.7680  -22.7470  -15.0430 C.3    11  ASN11       0.1169
      6  CG       -37.7520  -22.4890  -16.2720 C.2    11  ASN11       0.2627
      7  OD1      -38.9510  -22.7040  -16.1800 O.2    11  ASN11      -0.2716
      8  ND2      -37.2310  -21.8640  -17.3200 N.am   11  ASN11      -0.0877
      9  N        -38.9230  -22.0880  -13.0010 N.am   12  ASP12      -0.1960
     10  CA       -40.2780  -21.7170  -12.4320 C.3    12  ASP12       0.1840
     11  C        -41.4690  -21.5330  -13.3910 C.2    12  ASP12       0.2621
     12  O        -42.6610  -21.5740  -12.9650 O.2    12  ASP12      -0.2715
     13  CB       -40.1880  -20.5230  -11.5020 C.3    12  ASP12       0.1450
     14  CG       -39.6490  -20.9170  -10.0940 C.2    12  ASP12       0.3671
     15  OD1      -39.5110  -20.0320   -9.2390 O.co2  12  ASP12      -0.2456
     16  OD2      -39.3480  -22.0990   -9.8220 O.co2  12  ASP12      -0.2456
     17  N        -41.1260  -21.3050  -14.6610 N.am   13  LEU13      -0.1977
     18  CA       -42.0720  -21.3710  -15.7940 C.3    13  LEU13       0.1596
     19  C        -42.5880  -22.7570  -16.0410 C.2    13  LEU13       0.2287
     20  O        -43.6220  -22.9070  -16.6970 O.2    13  LEU13      -0.2864
     21  CB       -41.3520  -20.8790  -17.0650 C.3    13  LEU13       0.0297
     22  CG       -41.6890  -19.4410  -17.4790 C.3    13  LEU13       0.0022
     23  CD1      -42.3320  -18.5830  -16.3770 C.3    13  LEU13       0.0001
     24  CD2      -40.4520  -18.8020  -18.0710 C.3    13  LEU13       0.0001
     25  N        -40.6970  -24.6810  -17.8110 N.3    15  SER15      -0.1217
     26  CA       -39.8470  -25.1460  -18.9550 C.3    15  SER15       0.1889
     27  C        -38.9410  -26.2930  -18.4930 C.2    15  SER15       0.2288
     28  O        -38.4730  -26.3320  -17.3390 O.2    15  SER15      -0.2866
     29  CB       -39.0210  -23.9930  -19.6170 C.3    15  SER15       0.2089
     30  OG       -39.8940  -22.9860  -20.1030 O.3    15  SER15      -0.2183
     31  N        -34.6800  -28.8640  -25.2210 N.3    32  TYR32      -0.1241
     32  CA       -35.3800  -27.8510  -24.4360 C.3    32  TYR32       0.1605
     33  C        -36.8790  -27.8630  -24.8110 C.2    32  TYR32       0.2264
     34  O        -37.1760  -27.6590  -25.9910 O.2    32  TYR32      -0.2867
     35  CB       -34.8150  -26.4810  -24.8090 C.3    32  TYR32       0.0534
     36  CG       -35.0370  -25.4090  -23.6900 C.ar   32  TYR32      -0.0201
     37  CD1      -34.0200  -25.0590  -22.8060 C.ar   32  TYR32      -0.0009
     38  CD2      -36.2450  -24.8280  -23.4990 C.ar   32  TYR32      -0.0009
     39  CE1      -34.2180  -24.1500  -21.8000 C.ar   32  TYR32       0.0417
     40  CE2      -36.4860  -23.8540  -22.4700 C.ar   32  TYR32       0.0417
     41  CZ       -35.4020  -23.5230  -21.6310 C.ar   32  TYR32       0.1957
     42  OH       -35.6210  -22.6040  -20.6750 O.3    32  TYR32      -0.2866
     43  N        -39.8370  -25.3470  -23.9570 N.3    34  THR34      -0.1218
     44  CA       -40.2730  -24.0810  -23.3540 C.3    34  THR34       0.1862
     45  C        -41.7930  -24.1520  -22.9840 C.2    34  THR34       0.2287
     46  O        -42.6130  -24.7380  -23.7610 O.2    34  THR34      -0.2866
     47  CB       -39.9500  -22.8680  -24.0990 C.3    34  THR34       0.1770
     48  OG1      -40.3650  -21.7010  -23.3320 O.3    34  THR34      -0.2211
     49  CG2      -40.6470  -22.6910  -25.5210 C.3    34  THR34       0.0375
     50  N        -43.3330  -21.0670  -22.6050 N.3    36  VAL36      -0.1231
     51  CA       -43.8530  -19.8220  -23.1170 C.3    36  VAL36       0.1692
     52  C        -43.2180  -19.4140  -24.4510 C.2    36  VAL36       0.2593
     53  O        -42.0860  -19.8880  -24.7940 O.2    36  VAL36      -0.2718
     54  CB       -43.5870  -18.7360  -21.9720 C.3    36  VAL36       0.0266
     55  CG1      -44.3530  -19.0560  -20.7450 C.3    36  VAL36       0.0020
     56  CG2      -42.0660  -18.7600  -21.7000 C.3    36  VAL36       0.0020
     57  N        -43.8140  -18.5210  -25.2300 N.am   37  THR37      -0.1939
     58  CA       -43.1330  -18.0530  -26.3900 C.3    37  THR37       0.2028
     59  C        -43.4820  -16.5940  -26.6300 C.2    37  THR37       0.2642
     60  O        -44.6500  -16.1560  -26.3340 O.2    37  THR37      -0.2714
     61  CB       -43.5150  -19.0040  -27.6470 C.3    37  THR37       0.1808
     62  OG1      -42.9390  -18.3720  -28.8080 O.3    37  THR37      -0.2208
     63  CG2      -45.0250  -19.1250  -27.7790 C.3    37  THR37       0.0379
     64  N        -42.6400  -15.8590  -27.3060 N.am   38  ALA38      -0.1963
     65  CA       -42.9930  -14.5070  -27.6680 C.3    38  ALA38       0.1728
     66  C        -43.6930  -14.5310  -29.0520 C.2    38  ALA38       0.2616
     67  O        -44.0160  -13.4640  -29.6220 O.2    38  ALA38      -0.2715
     68  CB       -41.7880  -13.7170  -27.7640 C.3    38  ALA38       0.0334
     69  N        -43.7490  -15.6990  -29.6490 N.am   39  THR39      -0.1951
     70  CA       -44.4080  -15.7980  -30.9910 C.3    39  THR39       0.1897
     71  C        -45.9170  -16.1750  -30.9400 C.2    39  THR39       0.2313
     72  O        -46.4190  -16.6240  -29.9130 O.2    39  THR39      -0.2863
     73  CB       -43.7210  -16.8080  -31.9830 C.3    39  THR39       0.1794
     74  OG1      -43.9850  -18.1360  -31.5100 O.3    39  THR39      -0.2208
     75  CG2      -42.1390  -16.5940  -32.0960 C.3    39  THR39       0.0378
     76  N        -34.5310  -22.9910  -31.8900 N.3    69  TRP69      -0.1241
     77  CA       -36.0170  -23.3280  -31.7790 C.3    69  TRP69       0.1605
     78  C        -36.5740  -23.9240  -33.1470 C.2    69  TRP69       0.2264
     79  O        -36.1820  -23.4730  -34.2310 O.2    69  TRP69      -0.2867
     80  CB       -36.7760  -22.0300  -31.4990 C.3    69  TRP69       0.0550
     81  CG       -36.2650  -21.4010  -30.1730 C.ar   69  TRP69       0.0003
     82  CD1      -35.6210  -20.2480  -30.0610 C.ar   69  TRP69       0.0946
     83  CD2      -36.5070  -21.9010  -28.8800 C.ar   69  TRP69       0.0152
     84  NE1      -35.3040  -19.9960  -28.6700 N.ar   69  TRP69      -0.2442
     85  CE2      -35.8740  -20.9840  -27.9450 C.ar   69  TRP69       0.0810
     86  CE3      -37.1530  -23.0200  -28.3820 C.ar   69  TRP69       0.0012
     87  CZ2      -35.8860  -21.2190  -26.5770 C.ar   69  TRP69       0.0191
     88  CZ3      -37.1540  -23.2580  -26.9520 C.ar   69  TRP69       0.0001
     89  CH2      -36.5700  -22.2930  -26.0860 C.ar   69  TRP69       0.0015
     90  N        -39.7240  -24.2800  -33.9220 N.3    71  PHE71      -0.1227
     91  CA       -41.0820  -23.7380  -34.2070 C.3    71  PHE71       0.1736
     92  C        -41.1080  -22.2960  -34.4050 C.2    71  PHE71       0.2596
     93  O        -42.2460  -21.7980  -34.5010 O.2    71  PHE71      -0.2718
     94  CB       -42.0780  -24.0740  -33.0900 C.3    71  PHE71       0.0547
     95  CG       -41.6980  -23.4580  -31.7270 C.ar   71  PHE71      -0.0202
     96  CD1      -40.8070  -24.1690  -30.9110 C.ar   71  PHE71      -0.0042
     97  CD2      -42.1670  -22.1480  -31.3410 C.ar   71  PHE71      -0.0042
     98  CE1      -40.3770  -23.5900  -29.6540 C.ar   71  PHE71      -0.0003
     99  CE2      -41.8180  -21.5730  -30.0680 C.ar   71  PHE71      -0.0003
    100  CZ       -40.9080  -22.3000  -29.2830 C.ar   71  PHE71      -0.0000
    101  N        -39.9820  -21.5590  -34.5430 N.am   72  SER72      -0.1952
    102  CA       -39.9590  -20.1700  -34.7730 C.3    72  SER72       0.1924
    103  C        -38.6610  -19.8690  -35.5040 C.2    72  SER72       0.2314
    104  O        -37.7570  -20.7610  -35.5110 O.2    72  SER72      -0.2863
    105  CB       -40.0450  -19.4020  -33.4090 C.3    72  SER72       0.2116
    106  OG       -38.7340  -19.2130  -32.9970 O.3    72  SER72      -0.2180
    107  N        -36.4920  -17.6730  -34.3340 N.3    74  SER74      -0.1217
    108  CA       -35.7280  -17.0780  -33.1670 C.3    74  SER74       0.1889
    109  C        -34.5980  -18.0300  -32.7950 C.2    74  SER74       0.2288
    110  O        -34.6780  -19.2230  -33.0820 O.2    74  SER74      -0.2866
    111  CB       -36.7140  -17.0020  -31.9110 C.3    74  SER74       0.2089
    112  OG       -37.6700  -16.0320  -32.3430 O.3    74  SER74      -0.2183
    113  N        -32.2430  -18.6180  -28.9290 N.3    76  THR76      -0.1218
    114  CA       -31.8910  -18.0640  -27.5600 C.3    76  THR76       0.1862
    115  C        -30.5200  -18.6560  -27.2560 C.2    76  THR76       0.2287
    116  O        -30.2590  -19.8100  -27.6010 O.2    76  THR76      -0.2866
    117  CB       -32.9030  -18.5280  -26.5820 C.3    76  THR76       0.1770
    118  OG1      -34.2010  -18.0300  -26.9400 O.3    76  THR76      -0.2211
    119  CG2      -32.5980  -17.9470  -25.1510 C.3    76  THR76       0.0375
    120  N        -27.9790  -19.1670  -23.7530 N.3    78  PHE78      -0.1298
    121  CA       -28.0340  -19.0580  -22.2500 C.3    78  PHE78       0.1290
    122  C        -26.5500  -19.1710  -21.8470 C.3    78  PHE78       0.2013
    123  O        -25.7660  -19.9940  -22.4560 O.3    78  PHE78      -0.2188
    124  CB       -28.7000  -20.2710  -21.6300 C.3    78  PHE78       0.0480
    125  CG       -30.2220  -20.2760  -21.8060 C.ar   78  PHE78      -0.0206
    126  CD1      -30.7830  -20.7100  -23.0310 C.ar   78  PHE78      -0.0042
    127  CD2      -31.0620  -19.8700  -20.7220 C.ar   78  PHE78      -0.0042
    128  CE1      -32.1830  -20.8040  -23.1880 C.ar   78  PHE78      -0.0003
    129  CE2      -32.4920  -19.9290  -20.8930 C.ar   78  PHE78      -0.0003
    130  CZ       -33.0070  -20.3780  -22.1710 C.ar   78  PHE78      -0.0000
    131  N        -29.9510  -15.1340  -20.3010 N.3    96  TRP96      -0.1298
    132  CA       -30.1810  -15.4540  -21.7530 C.3    96  TRP96       0.1291
    133  C        -30.4640  -14.2690  -22.5960 C.3    96  TRP96       0.2013
    134  O        -30.8470  -13.1710  -22.0410 O.3    96  TRP96      -0.2188
    135  CB       -31.4040  -16.4790  -21.7980 C.3    96  TRP96       0.0497
    136  CG       -32.6780  -16.0520  -21.0860 C.ar   96  TRP96      -0.0001
    137  CD1      -33.1170  -16.4720  -19.9070 C.ar   96  TRP96       0.0946
    138  CD2      -33.6830  -15.1640  -21.6160 C.ar   96  TRP96       0.0152
    139  NE1      -34.2870  -15.8350  -19.5570 N.ar   96  TRP96      -0.2442
    140  CE2      -34.7060  -15.0630  -20.5980 C.ar   96  TRP96       0.0810
    141  CE3      -33.8020  -14.4520  -22.8520 C.ar   96  TRP96       0.0012
    142  CZ2      -35.8640  -14.2340  -20.7320 C.ar   96  TRP96       0.0191
    143  CZ3      -34.9910  -13.5920  -23.0180 C.ar   96  TRP96       0.0001
    144  CH2      -35.9480  -13.5140  -21.9510 C.ar   96  TRP96       0.0015
    145  N        -32.6720  -13.6700  -26.1880 N.3    98  LEU98      -0.1245
    146  CA       -33.5750  -14.2100  -27.1730 C.3    98  LEU98       0.1561
    147  C        -33.5710  -13.2690  -28.3620 C.2    98  LEU98       0.2260
    148  O        -33.9230  -12.1300  -28.2510 O.2    98  LEU98      -0.2867
    149  CB       -34.9670  -14.3400  -26.5930 C.3    98  LEU98       0.0270
    150  CG       -36.1320  -14.5410  -27.5610 C.3    98  LEU98       0.0019
    151  CD1      -35.9340  -15.8120  -28.3160 C.3    98  LEU98       0.0001
    152  CD2      -37.3860  -14.6350  -26.8090 C.3    98  LEU98       0.0001
    153  N        -34.9060  -12.2600  -31.8700 N.3   100  SER100     -0.1217
    154  CA       -36.0140  -12.4360  -32.8410 C.3   100  SER100      0.1889
    155  C        -35.5370  -12.1690  -34.2440 C.2   100  SER100      0.2288
    156  O        -34.5870  -11.4550  -34.4130 O.2   100  SER100     -0.2866
    157  CB       -37.1490  -11.4550  -32.5450 C.3   100  SER100      0.2089
    158  OG       -37.7880  -11.7530  -31.3630 O.3   100  SER100     -0.2183
    159  N        -33.3050  -13.8570  -17.0230 N.3   116  ILE116     -0.1231
    160  CA       -32.5720  -14.9090  -16.2280 C.3   116  ILE116      0.1692
    161  C        -33.3370  -16.1930  -16.3190 C.2   116  ILE116      0.2592
    162  O        -34.5390  -16.2340  -16.6410 O.2   116  ILE116     -0.2718
    163  CB       -32.4570  -14.5620  -14.6770 C.3   116  ILE116      0.0266
    164  CG1      -33.8360  -14.3840  -14.0000 C.3   116  ILE116      0.0019
    165  CG2      -31.5350  -13.2780  -14.5630 C.3   116  ILE116      0.0020
    166  CD1      -33.8770  -15.0500  -12.5610 C.3   116  ILE116      0.0001
    167  N        -32.6830  -17.2880  -16.0060 N.am  117  ASN117     -0.1960
    168  CA       -33.4170  -18.5540  -15.8350 C.3   117  ASN117      0.1819
    169  C        -32.6080  -19.3450  -14.7630 C.2   117  ASN117      0.2621
    170  O        -31.3420  -19.5510  -14.8960 O.2   117  ASN117     -0.2715
    171  CB       -33.3310  -19.1870  -17.2240 C.3   117  ASN117      0.1195
    172  CG       -34.2990  -20.1920  -17.4440 C.2   117  ASN117      0.2630
    173  OD1      -34.7240  -20.4500  -18.6330 O.2   117  ASN117     -0.2716
    174  ND2      -34.6210  -20.8820  -16.4240 N.am  117  ASN117     -0.0877
    175  N        -33.2800  -19.8440  -13.7260 N.am  118  ILE118     -0.1977
    176  CA       -32.5700  -20.6450  -12.7140 C.3   118  ILE118      0.1596
    177  C        -33.1460  -22.0620  -12.8110 C.2   118  ILE118      0.2287
    178  O        -34.3580  -22.2000  -12.8670 O.2   118  ILE118     -0.2864
    179  CB       -32.8620  -20.0610  -11.3360 C.3   118  ILE118      0.0276
    180  CG1      -32.3220  -18.5850  -11.3400 C.3   118  ILE118      0.0022
    181  CG2      -32.1610  -20.8910  -10.2780 C.3   118  ILE118      0.0022
    182  CD1      -32.7660  -17.8550  -10.0420 C.3   118  ILE118      0.0001
@<TRIPOS>BOND
     1   104   103    2
     2   103   102    1
     3   102   101    1
     4   102   105    1
     5   101    92   am
     6    93    92    2
     7   156   155    2
     8    92    91    1
     9   107   108    1
    10   155   154    1
    11    79    78    2
    12    91    90    1
    13    91    94    1
    14   105   106    1
    15   108   109    1
    16   108   111    1
    17    78    77    1
    18    94    95    1
    19   110   109    2
    20   154   157    1
    21   154   153    1
    22   157   158    1
    23   112   111    1
    24    75    73    1
    25    73    74    1
    26    73    70    1
    27    76    77    1
    28    77    80    1
    29    95    97   ar
    30    95    96   ar
    31    80    81    1
    32    97    99   ar
    33    70    71    1
    34    70    69    1
    35    71    72    2
    36    96    98   ar
    37    81    82   ar
    38    81    83   ar
    39    99   100   ar
    40    82    84   ar
    41    98   100   ar
    42    69    66   am
    43    67    66    2
    44    66    65    1
    45   113   114    1
    46    83    86   ar
    47    83    85   ar
    48    62    61    1
    49    84    85   ar
    50    86    88   ar
    51   147   148    2
    52   147   146    1
    53   151   150    1
    54    85    87   ar
    55    63    61    1
    56    68    65    1
    57    65    64    1
    58    61    58    1
    59   116   115    2
    60   150   152    1
    61   150   149    1
    62   114   115    1
    63   114   117    1
    64    64    59   am
    65   146   149    1
    66   146   145    1
    67    88    89   ar
    68   118   117    1
    69    59    58    1
    70    59    60    2
    71   117   119    1
    72    87    89   ar
    73    58    57    1
    74    34    33    2
    75    49    47    1
    76    57    52   am
    77    31    32    1
    78    33    32    1
    79    35    32    1
    80    35    36    1
    81    53    52    2
    82    52    51    1
    83    47    44    1
    84    47    48    1
    85    43    44    1
    86    46    45    2
    87   120   121    1
    88    36    38   ar
    89    36    37   ar
    90    38    40   ar
    91    44    45    1
    92   128   126   ar
    93   128   130   ar
    94    51    50    1
    95    51    54    1
    96   126   125   ar
    97   143   141   ar
    98   143   144   ar
    99   141   138   ar
   100    37    39   ar
   101   133   134    1
   102   133   132    1
   103    40    41   ar
   104   123   122    1
   105   121   122    1
   106   121   124    1
   107   130   129   ar
   108    54    56    1
   109    54    55    1
   110   144   142   ar
   111   125   124    1
   112   125   127   ar
   113    39    41   ar
   114   135   132    1
   115   135   136    1
   116   132   131    1
   117    41    42    1
   118   138   136   ar
   119   138   140   ar
   120   136   137   ar
   121   129   127   ar
   122   142   140   ar
   123   140   139   ar
   124    30    29    1
   125   137   139   ar
   126    29    26    1
   127    26    27    1
   128    26    25    1
   129   173   172    2
   130    27    28    2
   131    24    22    1
   132    22    21    1
   133    22    23    1
   134   172   171    1
   135   172   174   am
   136     8     6   am
   137   171   168    1
   138    21    18    1
   139   159   160    1
   140    20    19    2
   141   162   161    2
   142   161   160    1
   143   161   167   am
   144     6     7    2
   145     6     5    1
   146   160   163    1
   147    19    18    1
   148   167   168    1
   149   168   169    1
   150    18    17    1
   151     5     2    1
   152   170   169    2
   153   169   175   am
   154   163   165    1
   155   163   164    1
   156    17    11   am
   157     1     2    1
   158     2     3    1
   159   164   166    1
   160   175   176    1
   161     4     3    2
   162     3     9   am
   163    11    12    2
   164    11    10    1
   165     9    10    1
   166   178   177    2
   167   177   176    1
   168   176   179    1
   169    10    13    1
   170    13    14    1
   171   180   179    1
   172   180   182    1
   173   179   181    1
   174    14    16   ar
   175    14    15   ar
