@<TRIPOS>MOLECULE
tmp/3vhkA00.pdb
 191 178 0 0 0
SMALL
GASTEIGER

@<TRIPOS>ATOM
      1  N        -39.3350   20.4770   25.0330 N.3     1  ASP1       -0.1239
      2  CA       -38.4360   20.3390   23.8470 C.3     1  ASP1        0.1674
      3  C        -38.0570   18.8840   23.5550 C.2     1  ASP1        0.2266
      4  O        -37.2960   18.6030   22.6250 O.2     1  ASP1       -0.2867
      5  CB       -37.1740   21.1930   24.0290 C.3     1  ASP1        0.1410
      6  CG       -36.3090   20.7390   25.2020 C.2     1  ASP1        0.3668
      7  OD1      -36.8510   20.1940   26.1920 O.co2   1  ASP1       -0.2456
      8  OD2      -35.0770   20.9460   25.1330 O.co2   1  ASP1       -0.2456
      9  N        -19.9030   26.3650    5.7000 N.3    27  LEU27      -0.1245
     10  CA       -19.2380   26.9600    6.8600 C.3    27  LEU27       0.1561
     11  C        -18.8330   25.9010    7.8860 C.2    27  LEU27       0.2260
     12  O        -17.8720   26.0860    8.6360 O.2    27  LEU27      -0.2867
     13  CB       -20.1460   28.0070    7.5160 C.3    27  LEU27       0.0270
     14  CG       -20.5720   29.2030    6.6580 C.3    27  LEU27       0.0019
     15  CD1      -21.8470   29.8250    7.2050 C.3    27  LEU27       0.0001
     16  CD2      -19.4550   30.2310    6.5570 C.3    27  LEU27       0.0001
     17  N        -23.8090   23.3310    7.6660 N.3    35  VAL35      -0.1245
     18  CA       -24.2650   24.7230    7.6760 C.3    35  VAL35       0.1561
     19  C        -23.6560   25.4370    6.4640 C.2    35  VAL35       0.2260
     20  O        -22.4330   25.4350    6.2850 O.2    35  VAL35      -0.2867
     21  CB       -23.9200   25.4510    9.0130 C.3    35  VAL35       0.0252
     22  CG1      -24.1860   26.9470    8.9140 C.3    35  VAL35       0.0019
     23  CG2      -24.7230   24.8630   10.1640 C.3    35  VAL35       0.0019
     24  N        -27.2950   31.9970    7.1980 N.3    53  ALA53      -0.1245
     25  CA       -26.7410   30.6590    7.3700 C.3    53  ALA53       0.1562
     26  C        -27.8580   29.6380    7.2170 C.2    53  ALA53       0.2260
     27  O        -28.8960   29.7360    7.8750 O.2    53  ALA53      -0.2867
     28  CB       -26.0730   30.5220    8.7310 C.3    53  ALA53       0.0290
     29  N        -29.0350   25.7900    7.6340 N.3    55  LYS55      -0.1245
     30  CA       -28.7440   24.4830    8.2120 C.3    55  LYS55       0.1561
     31  C        -29.5560   23.4090    7.4960 C.2    55  LYS55       0.2260
     32  O        -30.7740   23.5270    7.3550 O.2    55  LYS55      -0.2867
     33  CB       -28.9820   24.4580    9.7280 C.3    55  LYS55       0.0271
     34  CG       -28.5810   23.1300   10.3540 C.3    55  LYS55       0.0035
     35  CD       -29.0230   22.9910   11.7950 C.3    55  LYS55       0.0206
     36  CE       -27.8390   23.0080   12.7360 C.3    55  LYS55       0.1093
     37  NZ       -28.1410   22.2530   13.9860 N.3    55  LYS55      -0.1314
     38  N        -35.8110   20.6100   15.4210 N.3    72  GLU72      -0.1245
     39  CA       -35.0510   21.8030   15.7760 C.3    72  GLU72       0.1567
     40  C        -35.7340   23.0570   15.2310 C.2    72  GLU72       0.2260
     41  O        -35.7440   24.1010   15.8880 O.2    72  GLU72      -0.2867
     42  CB       -33.6060   21.7060   15.2800 C.3    72  GLU72       0.0388
     43  CG       -32.7000   22.8150   15.8090 C.3    72  GLU72       0.1160
     44  CD       -31.2240   22.5180   15.6260 C.2    72  GLU72       0.3649
     45  OE1      -30.5070   22.4340   16.6480 O.co2  72  GLU72      -0.2457
     46  OE2      -30.7800   22.3660   14.4690 O.co2  72  GLU72      -0.2457
     47  N        -38.8530   23.7820   17.4440 N.3    75  ILE75      -0.1231
     48  CA       -38.4250   24.2980   18.7450 C.3    75  ILE75       0.1692
     49  C        -38.0280   25.7750   18.6460 C.2    75  ILE75       0.2591
     50  O        -38.4130   26.5790   19.4980 O.2    75  ILE75      -0.2718
     51  CB       -37.2860   23.4250   19.3610 C.3    75  ILE75       0.0266
     52  CG1      -37.8290   22.0460   19.7590 C.3    75  ILE75       0.0019
     53  CG2      -36.6760   24.0920   20.5840 C.3    75  ILE75       0.0020
     54  CD1      -36.7560   20.9800   19.9640 C.3    75  ILE75       0.0001
     55  N        -37.2830   26.1280   17.5940 N.am   76  LEU76      -0.1980
     56  CA       -36.8920   27.5210   17.3350 C.3    76  LEU76       0.1596
     57  C        -38.0940   28.4440   17.1300 C.2    76  LEU76       0.2287
     58  O        -38.0680   29.6000   17.5560 O.2    76  LEU76      -0.2864
     59  CB       -35.9800   27.6170   16.1120 C.3    76  LEU76       0.0297
     60  CG       -34.4990   27.2650   16.2090 C.3    76  LEU76       0.0022
     61  CD1      -33.9500   27.1930   14.8030 C.3    76  LEU76       0.0001
     62  CD2      -33.7220   28.2810   17.0350 C.3    76  LEU76       0.0001
     63  N        -39.7120   28.6780   20.8030 N.3    79  ILE79      -0.1245
     64  CA       -38.8410   29.5540   21.5990 C.3    79  ILE79       0.1561
     65  C        -39.0820   31.0480   21.3380 C.2    79  ILE79       0.2260
     66  O        -39.2360   31.8270   22.2790 O.2    79  ILE79      -0.2867
     67  CB       -37.3420   29.1830   21.3840 C.3    79  ILE79       0.0252
     68  CG1      -36.9920   27.9090   22.1570 C.3    79  ILE79       0.0019
     69  CG2      -36.4160   30.3010   21.8140 C.3    79  ILE79       0.0019
     70  CD1      -35.6770   27.2660   21.7360 C.3    79  ILE79       0.0001
     71  N        -29.9430   34.5420   21.1600 N.3    85  VAL85      -0.1231
     72  CA       -30.2250   33.2180   20.6240 C.3    85  VAL85       0.1692
     73  C        -30.2890   33.3870   19.1140 C.2    85  VAL85       0.2591
     74  O        -30.9390   34.3170   18.6260 O.2    85  VAL85      -0.2718
     75  CB       -31.5670   32.6430   21.1540 C.3    85  VAL85       0.0266
     76  CG1      -31.8070   31.2400   20.6120 C.3    85  VAL85       0.0020
     77  CG2      -31.5910   32.6260   22.6810 C.3    85  VAL85       0.0020
     78  N        -29.6030   32.5080   18.3820 N.am   86  VAL86      -0.1980
     79  CA       -29.5850   32.5590   16.9170 C.3    86  VAL86       0.1595
     80  C        -31.0130   32.5250   16.3660 C.2    86  VAL86       0.2287
     81  O        -31.7450   31.5470   16.5520 O.2    86  VAL86      -0.2864
     82  CB       -28.6920   31.4420   16.3080 C.3    86  VAL86       0.0276
     83  CG1      -28.9680   31.2570   14.8420 C.3    86  VAL86       0.0022
     84  CG2      -27.2260   31.7820   16.5000 C.3    86  VAL86       0.0022
     85  N        -33.1820   24.9500    7.1840 N.3   101  VAL101     -0.1245
     86  CA       -33.5130   25.8520    8.2810 C.3   101  VAL101      0.1561
     87  C        -32.6220   27.0850    8.1720 C.2   101  VAL101      0.2260
     88  O        -31.4020   26.9930    8.3170 O.2   101  VAL101     -0.2867
     89  CB       -33.3420   25.1690    9.6580 C.3   101  VAL101      0.0252
     90  CG1      -33.6220   26.1510   10.7920 C.3   101  VAL101      0.0019
     91  CG2      -34.2550   23.9530    9.7710 C.3   101  VAL101      0.0019
     92  N        -31.2070   30.6010    9.2870 N.3   103  VAL103     -0.1231
     93  CA       -30.9420   31.4340   10.4690 C.3   103  VAL103      0.1692
     94  C        -30.0270   32.6280   10.1540 C.2   103  VAL103      0.2591
     95  O        -29.4800   32.7270    9.0440 O.2   103  VAL103     -0.2718
     96  CB       -30.3250   30.6090   11.6390 C.3   103  VAL103      0.0266
     97  CG1      -31.3390   29.6260   12.2170 C.3   103  VAL103      0.0020
     98  CG2      -29.0630   29.8850   11.1970 C.3   103  VAL103      0.0020
     99  N        -29.8680   33.5180   11.1390 N.am  104  GLU104     -0.1979
    100  CA       -28.9970   34.6960   11.0360 C.3   104  GLU104      0.1602
    101  C        -27.5700   34.3330   10.6600 C.2   104  GLU104      0.2287
    102  O        -27.0610   33.2860   11.0630 O.2   104  GLU104     -0.2864
    103  CB       -28.9150   35.4290   12.3740 C.3   104  GLU104      0.0415
    104  CG       -30.2150   35.9340   12.9430 C.3   104  GLU104      0.1163
    105  CD       -29.9870   36.7030   14.2230 C.2   104  GLU104      0.3649
    106  OE1      -29.6600   37.9070   14.1460 O.co2 104  GLU104     -0.2457
    107  OE2      -30.1210   36.0990   15.3060 O.co2 104  GLU104     -0.2457
    108  N        -33.9520   30.9210   27.2230 N.3   150  LEU150     -0.1245
    109  CA       -34.2030   29.5190   26.8740 C.3   150  LEU150      0.1561
    110  C        -34.8500   28.7420   28.0230 C.2   150  LEU150      0.2260
    111  O        -35.8230   28.0100   27.8090 O.2   150  LEU150     -0.2867
    112  CB       -32.9170   28.8220   26.4120 C.3   150  LEU150      0.0270
    113  CG       -32.2430   29.2650   25.1000 C.3   150  LEU150      0.0019
    114  CD1      -30.9830   28.4470   24.8290 C.3   150  LEU150      0.0001
    115  CD2      -33.1850   29.1870   23.9050 C.3   150  LEU150      0.0001
    116  N        -37.1540   24.9380   27.9810 N.3   155  CYS155     -0.1221
    117  CA       -36.2300   24.0550   27.2760 C.3   155  CYS155      0.1808
    118  C        -34.7680   24.2910   27.6500 C.2   155  CYS155      0.2601
    119  O        -34.4050   25.3610   28.1410 O.2   155  CYS155     -0.2717
    120  CB       -36.4350   24.1520   25.7650 C.3   155  CYS155      0.0970
    121  SG       -36.0490   25.7370   25.0550 S.3   155  CYS155     -0.0800
    122  N        -33.9440   23.2700   27.4160 N.am  156  ILE156     -0.1965
    123  CA       -32.5310   23.2750   27.8040 C.3   156  ILE156      0.1727
    124  C        -31.6210   23.0210   26.5970 C.2   156  ILE156      0.2616
    125  O        -32.0700   22.4800   25.5850 O.2   156  ILE156     -0.2715
    126  CB       -32.2450   22.2460   28.9380 C.3   156  ILE156      0.0290
    127  CG1      -32.5900   20.8210   28.4920 C.3   156  ILE156      0.0022
    128  CG2      -33.0220   22.6150   30.2010 C.3   156  ILE156      0.0023
    129  CD1      -32.0930   19.7410   29.4350 C.3   156  ILE156      0.0001
    130  N        -30.3490   23.4030   26.7100 N.am  157  HIS157     -0.1959
    131  CA       -29.4160   23.3520   25.5750 C.3   157  HIS157      0.1787
    132  C        -28.7260   21.9920   25.3690 C.2   157  HIS157      0.2620
    133  O        -28.7160   21.4650   24.2550 O.2   157  HIS157     -0.2715
    134  CB       -28.3760   24.4740   25.6720 C.3   157  HIS157      0.0785
    135  CG       -27.6540   24.7330   24.3880 C.ar  157  HIS157      0.0821
    136  ND1      -26.5000   24.0660   24.0350 N.ar  157  HIS157     -0.2267
    137  CD2      -27.9270   25.5780   23.3660 C.ar  157  HIS157      0.1154
    138  CE1      -26.0900   24.4950   22.8540 C.ar  157  HIS157      0.1986
    139  NE2      -26.9370   25.4140   22.4270 N.ar  157  HIS157     -0.2212
    140  N        -28.1450   21.4490   26.4400 N.am  158  ARG158     -0.1977
    141  CA       -27.4820   20.1280   26.4410 C.3   158  ARG158      0.1597
    142  C        -26.0690   20.0880   25.8350 C.2   158  ARG158      0.2287
    143  O        -25.3840   19.0710   25.9500 O.2   158  ARG158     -0.2864
    144  CB       -28.3650   19.0390   25.8020 C.3   158  ARG158      0.0334
    145  CG       -29.6550   18.7320   26.5510 C.3   158  ARG158      0.0492
    146  CD       -30.4160   17.6010   25.8630 C.3   158  ARG158      0.2205
    147  NE       -31.7850   17.4660   26.3610 N.pl3 158  ARG158     -0.0865
    148  CZ       -32.8470   18.0810   25.8400 C.cat 158  ARG158      0.5346
    149  NH1      -32.7190   18.8900   24.7940 N.pl3 158  ARG158      0.1354
    150  NH2      -34.0460   17.8850   26.3710 N.pl3 158  ARG158      0.1354
    151  N        -21.8390   32.0420   18.8080 N.3   166  LEU166     -0.1245
    152  CA       -21.3880   32.7370   17.6050 C.3   166  LEU166      0.1561
    153  C        -21.3130   34.2430   17.8360 C.2   166  LEU166      0.2260
    154  O        -22.0690   34.7910   18.6350 O.2   166  LEU166     -0.2867
    155  CB       -22.3070   32.4250   16.4210 C.3   166  LEU166      0.0270
    156  CG       -22.5460   30.9660   16.0140 C.3   166  LEU166      0.0019
    157  CD1      -23.5000   30.9090   14.8380 C.3   166  LEU166      0.0001
    158  CD2      -21.2480   30.2410   15.6730 C.3   166  LEU166      0.0001
    159  N        -26.3110   32.2230   21.1560 N.3   175  ILE175     -0.1231
    160  CA       -26.3180   30.7890   21.4110 C.3   175  ILE175      0.1692
    161  C        -26.8730   30.0650   20.1880 C.2   175  ILE175      0.2592
    162  O        -27.8860   30.4720   19.6220 O.2   175  ILE175     -0.2718
    163  CB       -27.1590   30.4470   22.6570 C.3   175  ILE175      0.0266
    164  CG1      -26.5790   31.1370   23.8970 C.3   175  ILE175      0.0019
    165  CG2      -27.2330   28.9400   22.8680 C.3   175  ILE175      0.0020
    166  CD1      -27.5870   31.3320   25.0150 C.3   175  ILE175      0.0001
    167  N        -26.1910   29.0050   19.7760 N.am  176  CYS176     -0.1956
    168  CA       -26.6790   28.1440   18.7080 C.3   176  CYS176      0.1843
    169  C        -26.3450   26.6870   19.0140 C.2   176  CYS176      0.2625
    170  O        -25.9400   26.3520   20.1320 O.2   176  CYS176     -0.2714
    171  CB       -26.0500   28.5450   17.3770 C.3   176  CYS176      0.0997
    172  SG       -24.3210   28.0580   17.2310 S.3   176  CYS176     -0.0797
    173  N        -26.5170   25.8350   18.0080 N.am  177  ASP177     -0.1957
    174  CA       -26.1460   24.4260   18.0830 C.3   177  ASP177      0.1840
    175  C        -25.8640   23.9220   16.6690 C.2   177  ASP177      0.2622
    176  O        -26.7660   23.8690   15.8340 O.2   177  ASP177     -0.2715
    177  CB       -27.2650   23.6030   18.7410 C.3   177  ASP177      0.1450
    178  CG       -26.8330   22.1760   19.0780 C.2   177  ASP177      0.3671
    179  OD1      -25.7090   21.9870   19.5940 O.co2 177  ASP177     -0.2456
    180  OD2      -27.6290   21.2400   18.8380 O.co2 177  ASP177     -0.2456
    181  N        -24.6070   23.5850   16.3950 N.am  178  PHE178     -0.1974
    182  CA       -24.2300   23.0230   15.0970 C.3   178  PHE178      0.1639
    183  C        -24.8600   21.6430   14.9330 C.2   178  PHE178      0.2290
    184  O        -25.2460   21.2590   13.8280 O.2   178  PHE178     -0.2864
    185  CB       -22.7060   22.9380   14.9460 C.3   178  PHE178      0.0560
    186  CG       -22.0460   24.2460   14.5560 C.ar  178  PHE178     -0.0200
    187  CD1      -21.7780   25.2290   15.5120 C.ar  178  PHE178     -0.0042
    188  CD2      -21.6710   24.4850   13.2300 C.ar  178  PHE178     -0.0042
    189  CE1      -21.1600   26.4340   15.1520 C.ar  178  PHE178     -0.0003
    190  CE2      -21.0510   25.6880   12.8600 C.ar  178  PHE178     -0.0003
    191  CZ       -20.7960   26.6630   13.8220 C.ar  178  PHE178     -0.0000
@<TRIPOS>BOND
     1     9    10    1
     2    20    19    2
     3    19    18    1
     4    16    14    1
     5    14    15    1
     6    14    13    1
     7    10    13    1
     8    10    11    1
     9    85    86    1
    10    24    25    1
    11    26    25    1
    12    26    27    2
    13    32    31    2
    14    25    28    1
    15    31    30    1
    16    29    30    1
    17    17    18    1
    18    18    21    1
    19    11    12    2
    20    87    86    1
    21    87    88    2
    22    30    33    1
    23    86    89    1
    24    22    21    1
    25    21    23    1
    26    95    94    2
    27    92    93    1
    28    89    91    1
    29    89    90    1
    30    33    34    1
    31    94    93    1
    32    94    99   am
    33    34    35    1
    34    93    96    1
    35   101   100    1
    36   101   102    2
    37   100    99    1
    38   100   103    1
    39    98    96    1
    40    96    97    1
    41    35    36    1
    42   103   104    1
    43    36    37    1
    44   190   188   ar
    45   190   191   ar
    46   104   105    1
    47   188   186   ar
    48   191   189   ar
    49   184   183    2
    50   106   105   ar
    51   105   107   ar
    52    46    44   ar
    53   186   185    1
    54   186   187   ar
    55    61    60    1
    56   157   156    1
    57    83    82    1
    58   183   182    1
    59   185   182    1
    60   182   181    1
    61   189   187   ar
    62    40    39    1
    63    40    41    2
    64    42    39    1
    65    42    43    1
    66    38    39    1
    67    44    43    1
    68    44    45   ar
    69   158   156    1
    70   176   175    2
    71   156   155    1
    72    59    60    1
    73    59    56    1
    74    60    62    1
    75    82    84    1
    76    82    79    1
    77    80    81    2
    78    80    79    1
    79   181   175   am
    80   155   152    1
    81   175   174    1
    82    79    78    1
    83    57    56    1
    84    57    58    2
    85   172   171    1
    86    56    55    1
    87   171   168    1
    88    47    48    1
    89    55    49   am
    90   152   153    1
    91   152   151    1
    92   153   154    2
    93   173   174    1
    94   173   169   am
    95   174   177    1
    96    78    73   am
    97    74    73    2
    98    49    48    1
    99    49    50    2
   100   168   169    1
   101   168   167    1
   102   177   178    1
   103    48    51    1
   104   180   178   ar
   105   169   170    2
   106   178   179   ar
   107    73    72    1
   108    51    52    1
   109    51    53    1
   110   162   161    2
   111    52    54    1
   112   167   161   am
   113   161   160    1
   114    76    75    1
   115    72    75    1
   116    72    71    1
   117    63    64    1
   118    75    77    1
   119   159   160    1
   120    65    64    1
   121    65    66    2
   122    67    64    1
   123    67    69    1
   124    67    68    1
   125   160   163    1
   126    70    68    1
   127   139   138   ar
   128   139   137   ar
   129     4     3    2
   130   163   165    1
   131   163   164    1
   132   138   136   ar
   133   137   135   ar
   134     3     2    1
   135     2     5    1
   136     2     1    1
   137   164   166    1
   138   115   113    1
   139     5     6    1
   140   136   135   ar
   141   133   132    2
   142   135   134    1
   143   149   148    1
   144   114   113    1
   145   121   120    1
   146   113   112    1
   147     8     6   ar
   148     6     7   ar
   149   132   131    1
   150   132   140   am
   151   131   134    1
   152   131   130    1
   153   125   124    2
   154   120   117    1
   155   144   141    1
   156   144   145    1
   157   142   143    2
   158   142   141    1
   159   148   147    2
   160   148   150    1
   161   146   147    1
   162   146   145    1
   163   112   109    1
   164   140   141    1
   165   124   130   am
   166   124   123    1
   167   109   108    1
   168   109   110    1
   169   117   118    1
   170   117   116    1
   171   122   118   am
   172   122   123    1
   173   118   119    2
   174   123   126    1
   175   111   110    2
   176   127   126    1
   177   127   129    1
   178   126   128    1
