@<TRIPOS>MOLECULE
tmp/3vhmC00.pdb
 186 179 0 0 0
SMALL
GASTEIGER

@<TRIPOS>ATOM
      1  N         -7.8960  -18.0480  -20.7200 N.3    12  ASN12      -0.1225
      2  CA        -7.8390  -16.7770  -21.4580 C.3    12  ASN12       0.1785
      3  C         -6.4580  -16.5600  -22.1490 C.2    12  ASN12       0.2597
      4  O         -5.5900  -17.4440  -22.0930 O.2    12  ASN12      -0.2718
      5  CB        -8.1770  -15.6270  -20.5210 C.3    12  ASN12       0.1169
      6  CG        -7.1780  -15.5250  -19.3970 C.2    12  ASN12       0.2627
      7  OD1       -6.0800  -16.0780  -19.4910 O.2    12  ASN12      -0.2716
      8  ND2       -7.5340  -14.8620  -18.3460 N.am   12  ASN12      -0.0877
      9  N         -6.2390  -15.4110  -22.8090 N.am   13  ASP13      -0.1960
     10  CA        -4.9800  -15.2860  -23.6140 C.3    13  ASP13       0.1840
     11  C         -3.7530  -15.4450  -22.6980 C.2    13  ASP13       0.2621
     12  O         -2.7610  -16.0620  -23.0490 O.2    13  ASP13      -0.2715
     13  CB        -4.9080  -13.9470  -24.4030 C.3    13  ASP13       0.1450
     14  CG        -5.5450  -14.0350  -25.8090 C.2    13  ASP13       0.3671
     15  OD1       -6.1810  -15.0670  -26.2010 O.co2  13  ASP13      -0.2456
     16  OD2       -5.3980  -13.0340  -26.5440 O.co2  13  ASP13      -0.2456
     17  N         -3.8910  -14.8940  -21.5090 N.am   14  LEU14      -0.1977
     18  CA        -2.8820  -14.9200  -20.4880 C.3    14  LEU14       0.1596
     19  C         -2.5730  -16.3000  -19.9080 C.2    14  LEU14       0.2287
     20  O         -1.5830  -16.4810  -19.2040 O.2    14  LEU14      -0.2864
     21  CB        -3.3190  -13.9900  -19.3710 C.3    14  LEU14       0.0297
     22  CG        -2.4430  -13.9750  -18.1400 C.3    14  LEU14       0.0022
     23  CD1       -0.9820  -13.6580  -18.4830 C.3    14  LEU14       0.0001
     24  CD2       -3.0880  -12.9190  -17.2270 C.3    14  LEU14       0.0001
     25  N         -4.3760  -17.8670  -17.6170 N.3    16  SER16      -0.1217
     26  CA        -5.1910  -18.1830  -16.4750 C.3    16  SER16       0.1889
     27  C         -6.1820  -19.2630  -16.8910 C.2    16  SER16       0.2288
     28  O         -6.6500  -19.2790  -17.9990 O.2    16  SER16      -0.2866
     29  CB        -5.9140  -16.9630  -15.9560 C.3    16  SER16       0.2089
     30  OG        -5.0440  -16.0800  -15.3380 O.3    16  SER16      -0.2183
     31  N        -10.4130  -21.4800   -9.9880 N.3    33  TYR33      -0.1241
     32  CA        -9.7250  -20.5640  -10.8400 C.3    33  TYR33       0.1605
     33  C         -8.1940  -20.6160  -10.5460 C.2    33  TYR33       0.2264
     34  O         -7.8240  -20.4010   -9.4050 O.2    33  TYR33      -0.2867
     35  CB       -10.1770  -19.1360  -10.4670 C.3    33  TYR33       0.0534
     36  CG        -9.9520  -18.1790  -11.6290 C.ar   33  TYR33      -0.0201
     37  CD1      -11.0390  -17.8050  -12.5010 C.ar   33  TYR33      -0.0009
     38  CD2       -8.7120  -17.6380  -11.8620 C.ar   33  TYR33      -0.0009
     39  CE1      -10.8410  -16.9260  -13.5370 C.ar   33  TYR33       0.0417
     40  CE2       -8.4980  -16.6890  -12.9210 C.ar   33  TYR33       0.0417
     41  CZ        -9.5850  -16.3660  -13.7340 C.ar   33  TYR33       0.1957
     42  OH        -9.4000  -15.5020  -14.7260 O.3    33  TYR33      -0.2866
     43  N         -5.1530  -18.2080  -11.3130 N.3    35  THR35      -0.1218
     44  CA        -4.7160  -17.0190  -11.9770 C.3    35  THR35       0.1862
     45  C         -3.2060  -17.0610  -12.2920 C.2    35  THR35       0.2287
     46  O         -2.3780  -17.3860  -11.4150 O.2    35  THR35      -0.2866
     47  CB        -5.0110  -15.7970  -11.1810 C.3    35  THR35       0.1770
     48  OG1       -4.6320  -14.6690  -11.9680 O.3    35  THR35      -0.2211
     49  CG2       -4.2280  -15.7350   -9.8390 C.3    35  THR35       0.0375
     50  N         -1.5920  -14.2480  -12.8410 N.3    37  VAL37      -0.1231
     51  CA        -1.0420  -13.0080  -12.3180 C.3    37  VAL37       0.1692
     52  C         -1.8100  -12.5920  -11.0850 C.2    37  VAL37       0.2593
     53  O         -2.9140  -13.1250  -10.8490 O.2    37  VAL37      -0.2718
     54  CB        -1.1380  -11.8470  -13.3670 C.3    37  VAL37       0.0266
     55  CG1       -0.2220  -12.1230  -14.5900 C.3    37  VAL37       0.0020
     56  CG2       -2.6180  -11.6920  -13.8250 C.3    37  VAL37       0.0020
     57  N         -1.2750  -11.6210  -10.3290 N.am   38  THR38      -0.1939
     58  CA        -1.8620  -11.1420   -9.1040 C.3    38  THR38       0.2028
     59  C         -1.4140   -9.7170   -8.8290 C.2    38  THR38       0.2642
     60  O         -0.2820   -9.3420   -9.2030 O.2    38  THR38      -0.2714
     61  CB        -1.4430  -12.0570   -7.8280 C.3    38  THR38       0.1808
     62  OG1       -1.9100  -11.4130   -6.6370 O.3    38  THR38      -0.2208
     63  CG2        0.1040  -12.1890   -7.6880 C.3    38  THR38       0.0379
     64  N         -2.2310   -8.9430   -8.1120 N.am   39  ALA39      -0.1963
     65  CA        -1.8600   -7.6100   -7.6220 C.3    39  ALA39       0.1728
     66  C         -1.2590   -7.5740   -6.2000 C.2    39  ALA39       0.2616
     67  O         -0.8830   -6.5040   -5.7040 O.2    39  ALA39      -0.2715
     68  CB        -3.0810   -6.6670   -7.6590 C.3    39  ALA39       0.0334
     69  N         -1.2860   -8.6920   -5.4940 N.am   40  THR40      -0.1951
     70  CA        -0.7260   -8.6780   -4.1020 C.3    40  THR40       0.1897
     71  C          0.7840   -9.0320   -4.1580 C.2    40  THR40       0.2313
     72  O          1.2620   -9.5450   -5.1910 O.2    40  THR40      -0.2863
     73  CB        -1.3840   -9.7530   -3.2030 C.3    40  THR40       0.1794
     74  OG1       -1.1490  -11.0540   -3.7960 O.3    40  THR40      -0.2208
     75  CG2       -2.8890   -9.4670   -3.0510 C.3    40  THR40       0.0378
     76  N        -10.4430  -15.8170   -3.3520 N.3    70  TRP70      -0.1241
     77  CA        -8.9760  -16.1140   -3.4220 C.3    70  TRP70       0.1605
     78  C         -8.4260  -16.7360   -2.0800 C.2    70  TRP70       0.2264
     79  O         -8.8420  -16.3320   -0.9790 O.2    70  TRP70      -0.2867
     80  CB        -8.1930  -14.8720   -3.8310 C.3    70  TRP70       0.0550
     81  CG        -8.6870  -14.2560   -5.1620 C.ar   70  TRP70       0.0003
     82  CD1       -9.3450  -13.0370   -5.3250 C.ar   70  TRP70       0.0946
     83  CD2       -8.5050  -14.7870   -6.4500 C.ar   70  TRP70       0.0152
     84  NE1       -9.6130  -12.8130   -6.6470 N.ar   70  TRP70      -0.2442
     85  CE2       -9.1440  -13.8710   -7.3780 C.ar   70  TRP70       0.0810
     86  CE3       -7.9070  -15.9680   -6.9400 C.ar   70  TRP70       0.0012
     87  CZ2       -9.1240  -14.0720   -8.7640 C.ar   70  TRP70       0.0191
     88  CZ3       -7.9070  -16.1970   -8.3510 C.ar   70  TRP70       0.0001
     89  CH2       -8.4990  -15.2420   -9.2290 C.ar   70  TRP70       0.0015
     90  N         -5.2870  -16.8980   -1.1460 N.3    72  PHE72      -0.1227
     91  CA        -3.8970  -16.4790   -0.9550 C.3    72  PHE72       0.1736
     92  C         -3.8700  -15.0120   -0.7620 C.2    72  PHE72       0.2596
     93  O         -2.7810  -14.4040   -0.7190 O.2    72  PHE72      -0.2718
     94  CB        -2.9830  -16.9050   -2.1210 C.3    72  PHE72       0.0547
     95  CG        -3.3860  -16.2870   -3.4960 C.ar   72  PHE72      -0.0202
     96  CD1       -4.2100  -17.0260   -4.3790 C.ar   72  PHE72      -0.0042
     97  CD2       -2.9900  -14.9760   -3.8560 C.ar   72  PHE72      -0.0042
     98  CE1       -4.6150  -16.4980   -5.6100 C.ar   72  PHE72      -0.0003
     99  CE2       -3.3530  -14.4210   -5.1320 C.ar   72  PHE72      -0.0003
    100  CZ        -4.2200  -15.1870   -5.9860 C.ar   72  PHE72      -0.0000
    101  N         -5.0470  -14.4010   -0.6190 N.am   73  SER73      -0.1952
    102  CA        -5.1240  -13.0250   -0.3620 C.3    73  SER73       0.1924
    103  C         -6.4060  -12.7230    0.3630 C.2    73  SER73       0.2314
    104  O         -7.3080  -13.5840    0.4340 O.2    73  SER73      -0.2863
    105  CB        -4.9780  -12.2200   -1.6720 C.3    73  SER73       0.2116
    106  OG        -6.1900  -11.9460   -2.2890 O.3    73  SER73      -0.2180
    107  N         -8.3610  -10.5150   -0.8370 N.3    75  SER75      -0.1217
    108  CA        -9.2020   -9.9890   -1.9690 C.3    75  SER75       0.1889
    109  C        -10.3420  -10.9160   -2.3550 C.2    75  SER75       0.2288
    110  O        -10.2610  -12.1320   -2.1230 O.2    75  SER75      -0.2866
    111  CB        -8.2950   -9.8530   -3.2110 C.3    75  SER75       0.2089
    112  OG        -7.3870   -8.8640   -2.7780 O.3    75  SER75      -0.2183
    113  N        -12.7640  -11.4020   -6.1580 N.3    77  THR77      -0.1218
    114  CA       -13.1310  -10.8890   -7.4970 C.3    77  THR77       0.1862
    115  C        -14.5250  -11.5140   -7.8560 C.2    77  THR77       0.2287
    116  O        -14.7650  -12.6670   -7.5290 O.2    77  THR77      -0.2866
    117  CB       -12.1200  -11.3290   -8.5560 C.3    77  THR77       0.1770
    118  OG1      -10.8300  -10.8420   -8.2360 O.3    77  THR77      -0.2211
    119  CG2      -12.4670  -10.7110   -9.9720 C.3    77  THR77       0.0375
    120  N        -17.0290  -11.9160  -11.3300 N.3    79  PHE79      -0.1241
    121  CA       -17.0370  -11.8610  -12.7950 C.3    79  PHE79       0.1605
    122  C        -18.5330  -11.9440  -13.2270 C.2    79  PHE79       0.2264
    123  O        -19.3350  -12.7080  -12.6200 O.2    79  PHE79      -0.2867
    124  CB       -16.3770  -13.0900  -13.4020 C.3    79  PHE79       0.0534
    125  CG       -14.8580  -13.1030  -13.2890 C.ar   79  PHE79      -0.0203
    126  CD1      -14.2610  -13.3900  -12.0710 C.ar   79  PHE79      -0.0042
    127  CD2      -14.0830  -12.8030  -14.4080 C.ar   79  PHE79      -0.0042
    128  CE1      -12.7680  -13.4490  -11.9960 C.ar   79  PHE79      -0.0003
    129  CE2      -12.6770  -12.8660  -14.3670 C.ar   79  PHE79      -0.0003
    130  CZ       -12.0500  -13.1870  -13.1310 C.ar   79  PHE79      -0.0000
    131  N        -15.1210   -7.9690  -14.7850 N.3    97  TRP97      -0.1241
    132  CA       -14.8050   -8.3140  -13.3510 C.3    97  TRP97       0.1605
    133  C        -14.5650   -7.0760  -12.5650 C.2    97  TRP97       0.2264
    134  O        -14.2080   -6.0430  -13.1100 O.2    97  TRP97      -0.2867
    135  CB       -13.5930   -9.2760  -13.2320 C.3    97  TRP97       0.0550
    136  CG       -12.3490   -8.8640  -14.0000 C.ar   97  TRP97       0.0003
    137  CD1      -11.9750   -9.2860  -15.2220 C.ar   97  TRP97       0.0946
    138  CD2      -11.3360   -7.9740  -13.5430 C.ar   97  TRP97       0.0152
    139  NE1      -10.7900   -8.6390  -15.6060 N.ar   97  TRP97      -0.2442
    140  CE2      -10.3650   -7.8780  -14.5640 C.ar   97  TRP97       0.0810
    141  CE3      -11.1750   -7.1950  -12.3600 C.ar   97  TRP97       0.0012
    142  CZ2       -9.1800   -7.0750  -14.4210 C.ar   97  TRP97       0.0191
    143  CZ3      -10.0220   -6.4390  -12.1950 C.ar   97  TRP97       0.0001
    144  CH2       -9.0630   -6.3280  -13.2660 C.ar   97  TRP97       0.0015
    145  N        -12.3590   -6.3600   -8.9890 N.3    99  LEU99      -0.1245
    146  CA       -11.4050   -6.9770   -8.0160 C.3    99  LEU99       0.1561
    147  C        -11.4440   -6.0830   -6.7990 C.2    99  LEU99       0.2260
    148  O        -11.1390   -4.8530   -6.8970 O.2    99  LEU99      -0.2867
    149  CB       -10.0130   -7.0060   -8.6080 C.3    99  LEU99       0.0270
    150  CG        -8.8460   -7.1290   -7.5570 C.3    99  LEU99       0.0019
    151  CD1       -8.9240   -8.4580   -6.8570 C.3    99  LEU99       0.0001
    152  CD2       -7.4890   -7.1750   -8.3240 C.3    99  LEU99       0.0001
    153  N        -10.0340   -5.0840   -3.2980 N.3   101  SER101     -0.1217
    154  CA        -8.8940   -5.2100   -2.3540 C.3   101  SER101      0.1889
    155  C         -9.4370   -4.9500   -0.9670 C.2   101  SER101      0.2288
    156  O        -10.4660   -4.2780   -0.7530 O.2   101  SER101     -0.2866
    157  CB        -7.7800   -4.2020   -2.6940 C.3   101  SER101      0.2089
    158  OG        -7.1410   -4.6820   -3.8900 O.3   101  SER101     -0.2183
    159  N        -12.0360   -4.7190  -15.0560 N.3   116  GLY116     -0.1210
    160  CA       -11.3830   -5.2580  -16.2620 C.3   116  GLY116      0.1956
    161  C        -12.3230   -6.1660  -17.0010 C.2   116  GLY116      0.2612
    162  O        -13.4560   -6.4520  -16.5130 O.2   116  GLY116     -0.2717
    163  N        -11.8260   -6.6950  -18.1360 N.am  117  ILE117     -0.1965
    164  CA       -12.4980   -7.7310  -18.8760 C.3   117  ILE117      0.1727
    165  C        -11.7560   -9.0560  -18.7690 C.2   117  ILE117      0.2616
    166  O        -10.5880   -9.1290  -18.3200 O.2   117  ILE117     -0.2715
    167  CB       -12.8020   -7.4040  -20.4230 C.3   117  ILE117      0.0290
    168  CG1      -11.6110   -7.6400  -21.4000 C.3   117  ILE117      0.0022
    169  CG2      -13.5220   -6.0690  -20.5620 C.3   117  ILE117      0.0023
    170  CD1      -10.4260   -6.9940  -20.9630 C.3   117  ILE117      0.0001
    171  N        -12.4390  -10.0960  -19.1660 N.am  118  ASN118     -0.1958
    172  CA       -11.7380  -11.4010  -19.3800 C.3   118  ASN118      0.1819
    173  C        -12.5130  -12.1990  -20.3420 C.2   118  ASN118      0.2621
    174  O        -13.7400  -12.3360  -20.1930 O.2   118  ASN118     -0.2715
    175  CB       -11.6080  -12.1410  -18.0380 C.3   118  ASN118      0.1195
    176  CG       -10.2850  -12.7480  -17.8990 C.2   118  ASN118      0.2630
    177  OD1       -9.5140  -12.7230  -18.8490 O.2   118  ASN118     -0.2716
    178  ND2       -9.9850  -13.3290  -16.7340 N.am  118  ASN118     -0.0877
    179  N        -11.8400  -12.7480  -21.3470 N.am  119  ILE119     -0.1977
    180  CA       -12.5110  -13.4970  -22.3870 C.3   119  ILE119      0.1596
    181  C        -11.9690  -14.9330  -22.3270 C.2   119  ILE119      0.2287
    182  O        -10.7570  -15.1130  -22.3340 O.2   119  ILE119     -0.2864
    183  CB       -12.2470  -12.8820  -23.7310 C.3   119  ILE119      0.0276
    184  CG1      -12.9390  -11.4950  -23.7790 C.3   119  ILE119      0.0022
    185  CG2      -12.8830  -13.7620  -24.8700 C.3   119  ILE119      0.0022
    186  CD1      -12.5350  -10.6560  -25.0250 C.3   119  ILE119      0.0001
@<TRIPOS>BOND
     1    16    14   ar
     2    15    14   ar
     3    14    13    1
     4   186   184    1
     5   185   183    1
     6    13    10    1
     7   184   183    1
     8   183   180    1
     9    10     9    1
    10    10    11    1
    11    12    11    2
    12     9     3   am
    13    11    17   am
    14   180   181    1
    15   180   179    1
    16   182   181    2
    17     3     4    2
    18     3     2    1
    19    17    18    1
    20     2     1    1
    21     2     5    1
    22   168   170    1
    23   168   167    1
    24   179   173   am
    25   169   167    1
    26     5     6    1
    27    18    19    1
    28    18    21    1
    29   167   164    1
    30   173   174    2
    31   173   172    1
    32    19    20    2
    33     7     6    2
    34     6     8   am
    35   172   171    1
    36   172   175    1
    37    21    22    1
    38   171   165   am
    39   164   165    1
    40   164   163    1
    41   177   176    2
    42   165   166    2
    43    23    22    1
    44    22    24    1
    45   163   161   am
    46   175   176    1
    47    28    27    2
    48   176   178   am
    49    25    26    1
    50   161   162    2
    51   161   160    1
    52    27    26    1
    53    26    29    1
    54   160   159    1
    55    29    30    1
    56   139   137   ar
    57   139   140   ar
    58   137   136   ar
    59   131   132    1
    60    42    41    1
    61    55    54    1
    62   140   142   ar
    63   140   138   ar
    64   142   144   ar
    65   127   129   ar
    66   127   125   ar
    67   129   130   ar
    68   136   138   ar
    69   136   135    1
    70    56    54    1
    71    41    39   ar
    72    41    40   ar
    73   138   141   ar
    74    39    37   ar
    75   124   125    1
    76   124   121    1
    77    54    51    1
    78   132   135    1
    79   132   133    1
    80   125   126   ar
    81   144   143   ar
    82   122   121    1
    83   122   123    2
    84   130   128   ar
    85   134   133    2
    86    40    38   ar
    87    50    51    1
    88   121   120    1
    89    37    36   ar
    90   141   143   ar
    91    51    52    1
    92    45    44    1
    93    45    46    2
    94   126   128   ar
    95    44    43    1
    96    44    47    1
    97    48    47    1
    98    38    36   ar
    99    36    35    1
   100    47    49    1
   101    52    53    2
   102    52    57   am
   103    32    33    1
   104    32    35    1
   105    32    31    1
   106    33    34    2
   107    57    58    1
   108   119   117    1
   109    89    87   ar
   110    89    88   ar
   111    60    59    2
   112    58    59    1
   113    58    61    1
   114   145   146    1
   115    59    64   am
   116    87    85   ar
   117   149   146    1
   118   149   150    1
   119   117   118    1
   120   117   114    1
   121    88    86   ar
   122   152   150    1
   123    64    65    1
   124   146   147    1
   125   115   116    2
   126   115   114    1
   127    61    63    1
   128    61    62    1
   129    68    65    1
   130    65    66    1
   131   150   151    1
   132   114   113    1
   133    85    84   ar
   134    85    83   ar
   135    86    83   ar
   136   148   147    2
   137    84    82   ar
   138    83    81   ar
   139    66    67    2
   140    66    69   am
   141   100    98   ar
   142   100    99   ar
   143    98    96   ar
   144    69    70    1
   145    82    81   ar
   146    72    71    2
   147    81    80    1
   148    99    97   ar
   149    96    95   ar
   150    71    70    1
   151    70    73    1
   152   158   157    1
   153    97    95   ar
   154    80    77    1
   155    74    73    1
   156    95    94    1
   157    77    76    1
   158    77    78    1
   159   153   154    1
   160   111   112    1
   161   111   108    1
   162    73    75    1
   163   157   154    1
   164   109   110    2
   165   109   108    1
   166   154   155    1
   167   106   105    1
   168    94    91    1
   169    78    79    2
   170   108   107    1
   171   105   102    1
   172    90    91    1
   173   155   156    2
   174    91    92    1
   175    92    93    2
   176    92   101   am
   177   101   102    1
   178   102   103    1
   179   103   104    2
