@<TRIPOS>MOLECULE
tmp/3vhnD00.pdb
 186 179 0 0 0
SMALL
GASTEIGER

@<TRIPOS>ATOM
      1  N          3.0320  -21.4470   95.4770 N.3    22  GLU22      -0.1245
      2  CA         3.3800  -22.4680   96.4510 C.3    22  GLU22       0.1567
      3  C          3.6310  -21.8740   97.8110 C.2    22  GLU22       0.2260
      4  O          4.4990  -21.0120   97.9410 O.2    22  GLU22      -0.2867
      5  CB         4.6460  -23.2450   96.0510 C.3    22  GLU22       0.0388
      6  CG         4.5900  -24.7330   96.5150 C.3    22  GLU22       0.1160
      7  CD         5.9270  -25.4890   96.4690 C.2    22  GLU22       0.3649
      8  OE1        6.7380  -25.3340   95.5190 O.co2  22  GLU22      -0.2457
      9  OE2        6.1530  -26.2750   97.4070 O.co2  22  GLU22      -0.2457
     10  N          5.3200  -22.7400  100.1500 N.3    24  ASN24      -0.1240
     11  CA         6.3820  -23.7080  100.2350 C.3    24  ASN24       0.1653
     12  C          7.2240  -23.6610  101.5320 C.2    24  ASN24       0.2266
     13  O          8.0310  -22.7510  101.7230 O.2    24  ASN24      -0.2867
     14  CB         7.2330  -23.5030   98.9620 C.3    24  ASN24       0.1155
     15  CG         8.4480  -24.3970   98.9170 C.2    24  ASN24       0.2627
     16  OD1        8.5870  -25.2880   99.7490 O.2    24  ASN24      -0.2716
     17  ND2        9.3410  -24.1710   97.9440 N.am   24  ASN24      -0.0877
     18  N          9.2320  -26.2740  102.5060 N.3    26  TRP26      -0.1241
     19  CA         9.8850  -27.5660  102.2290 C.3    26  TRP26       0.1605
     20  C         10.8400  -28.1270  103.2540 C.2    26  TRP26       0.2264
     21  O         10.9570  -29.3400  103.3780 O.2    26  TRP26      -0.2867
     22  CB        10.6420  -27.5440  100.8860 C.3    26  TRP26       0.0550
     23  CG        11.8520  -26.6080  100.8120 C.ar   26  TRP26       0.0003
     24  CD1       11.8280  -25.2730  100.6250 C.ar   26  TRP26       0.0946
     25  CD2       13.2280  -26.9510  100.9830 C.ar   26  TRP26       0.0152
     26  NE1       13.0870  -24.7440  100.6670 N.ar   26  TRP26      -0.2442
     27  CE2       13.9710  -25.7560  100.8910 C.ar   26  TRP26       0.0810
     28  CE3       13.9110  -28.1510  101.2170 C.ar   26  TRP26       0.0012
     29  CZ2       15.3620  -25.7240  101.0230 C.ar   26  TRP26       0.0191
     30  CZ3       15.2890  -28.1180  101.3480 C.ar   26  TRP26       0.0001
     31  CH2       15.9990  -26.9160  101.2490 C.ar   26  TRP26       0.0015
     32  N         20.7880  -27.9600  105.2650 N.3    60  ARG60      -0.1245
     33  CA        20.2920  -27.1330  104.1600 C.3    60  ARG60       0.1563
     34  C         20.2250  -25.6300  104.4970 C.2    60  ARG60       0.2260
     35  O         20.1830  -24.7780  103.6020 O.2    60  ARG60      -0.2867
     36  CB        18.9240  -27.6290  103.6600 C.3    60  ARG60       0.0307
     37  CG        18.9690  -28.9560  102.8850 C.3    60  ARG60       0.0489
     38  CD        20.1620  -29.0800  101.9430 C.3    60  ARG60       0.2205
     39  NE        20.0840  -28.3040  100.7000 N.pl3  60  ARG60      -0.0865
     40  CZ        19.1460  -28.4500   99.7610 C.cat  60  ARG60       0.5346
     41  NH1       18.1610  -29.3390   99.9050 N.pl3  60  ARG60       0.1354
     42  NH2       19.2220  -27.7430   98.6370 N.pl3  60  ARG60       0.1354
     43  N         18.2650  -22.8430  105.0120 N.3    62  VAL62      -0.1245
     44  CA        16.9610  -22.1620  105.0050 C.3    62  VAL62       0.1561
     45  C         15.8360  -23.1190  105.3900 C.2    62  VAL62       0.2260
     46  O         15.9720  -24.3450  105.2660 O.2    62  VAL62      -0.2867
     47  CB        16.6170  -21.5370  103.6050 C.3    62  VAL62       0.0252
     48  CG1       17.7480  -20.6000  103.1790 C.3    62  VAL62       0.0019
     49  CG2       16.3570  -22.6440  102.5480 C.3    62  VAL62       0.0019
     50  N         10.3470  -21.3650  101.4850 N.3    65  TYR65      -0.1241
     51  CA        10.3840  -20.5070  100.3060 C.3    65  TYR65       0.1605
     52  C          9.0370  -20.2520   99.6540 C.2    65  TYR65       0.2264
     53  O          8.7710  -20.7500   98.5580 O.2    65  TYR65      -0.2867
     54  CB        11.2720  -21.1560   99.2770 C.3    65  TYR65       0.0534
     55  CG        11.4950  -20.3860   98.0250 C.ar   65  TYR65      -0.0201
     56  CD1       11.9670  -19.0720   98.0470 C.ar   65  TYR65      -0.0009
     57  CD2       11.3290  -21.0030   96.8000 C.ar   65  TYR65      -0.0009
     58  CE1       12.2640  -18.4080   96.8710 C.ar   65  TYR65       0.0417
     59  CE2       11.6400  -20.3600   95.6350 C.ar   65  TYR65       0.0417
     60  CZ        12.1070  -19.0720   95.6650 C.ar   65  TYR65       0.1957
     61  OH        12.4410  -18.4980   94.4560 O.3    65  TYR65      -0.2866
     62  N          6.4340  -18.8000   97.4370 N.3    67  GLU67      -0.1245
     63  CA         6.7080  -18.2900   96.0790 C.3    67  GLU67       0.1567
     64  C          5.5420  -18.4730   95.0850 C.2    67  GLU67       0.2260
     65  O          4.5220  -19.1380   95.3790 O.2    67  GLU67      -0.2867
     66  CB         7.8650  -19.1280   95.5070 C.3    67  GLU67       0.0388
     67  CG         7.4620  -20.6640   95.4380 C.3    67  GLU67       0.1160
     68  CD         8.5000  -21.6550   94.8110 C.2    67  GLU67       0.3649
     69  OE1        8.8840  -21.4670   93.6370 O.co2  67  GLU67      -0.2457
     70  OE2        8.9180  -22.6520   95.4730 O.co2  67  GLU67      -0.2457
     71  N          7.8830  -26.5360   87.6880 N.3    73  LYS73      -0.1245
     72  CA         8.8110  -26.7330   88.7960 C.3    73  LYS73       0.1561
     73  C          9.1190  -28.2440   88.9100 C.2    73  LYS73       0.2260
     74  O          8.2870  -29.0370   89.3950 O.2    73  LYS73      -0.2867
     75  CB         8.2180  -26.2290   90.1140 C.3    73  LYS73       0.0271
     76  CG         9.2730  -26.2560   91.2580 C.3    73  LYS73       0.0035
     77  CD         8.6660  -25.9430   92.5920 C.3    73  LYS73       0.0206
     78  CE         9.7290  -25.8250   93.6140 C.3    73  LYS73       0.1093
     79  NZ         8.9540  -25.6460   94.8460 N.3    73  LYS73      -0.1314
     80  N         10.8750  -30.2100   90.9380 N.3    75  TRP75      -0.1227
     81  CA        10.6470  -30.8000   92.2460 C.3    75  TRP75       0.1737
     82  C          9.2060  -31.1450   92.5750 C.2    75  TRP75       0.2595
     83  O          8.9480  -32.0140   93.4050 O.2    75  TRP75      -0.2718
     84  CB        11.2270  -29.8910   93.3510 C.3    75  TRP75       0.0564
     85  CG        12.7490  -29.6680   93.2030 C.ar   75  TRP75       0.0003
     86  CD1       13.3750  -28.6140   92.6150 C.ar   75  TRP75       0.0946
     87  CD2       13.7890  -30.5720   93.6030 C.ar   75  TRP75       0.0152
     88  NE1       14.7340  -28.8020   92.6160 N.ar   75  TRP75      -0.2442
     89  CE2       15.0110  -29.9980   93.2270 C.ar   75  TRP75       0.0810
     90  CE3       13.8020  -31.8180   94.2500 C.ar   75  TRP75       0.0012
     91  CZ2       16.2300  -30.6220   93.4810 C.ar   75  TRP75       0.0191
     92  CZ3       15.0190  -32.4280   94.4950 C.ar   75  TRP75       0.0001
     93  CH2       16.2060  -31.8360   94.1180 C.ar   75  TRP75       0.0015
     94  N          8.2540  -30.4770   91.9480 N.am   76  GLU76      -0.1979
     95  CA         6.8750  -30.7690   92.2830 C.3    76  GLU76       0.1602
     96  C          6.1440  -31.3860   91.1190 C.2    76  GLU76       0.2287
     97  O          4.9420  -31.6470   91.1900 O.2    76  GLU76      -0.2864
     98  CB         6.1710  -29.5080   92.7680 C.3    76  GLU76       0.0415
     99  CG         6.6620  -28.9970   94.1430 C.3    76  GLU76       0.1163
    100  CD         6.2400  -29.8930   95.3080 C.2    76  GLU76       0.3649
    101  OE1        5.1790  -30.5480   95.1900 O.co2  76  GLU76      -0.2457
    102  OE2        6.9460  -29.9290   96.3530 O.co2  76  GLU76      -0.2457
    103  N         14.4120  -17.6590   90.8630 N.3   116  GLU116     -0.1245
    104  CA        15.3160  -18.7000   90.3890 C.3   116  GLU116      0.1567
    105  C         14.7590  -19.6150   89.3240 C.2   116  GLU116      0.2260
    106  O         13.5350  -19.6900   89.1320 O.2   116  GLU116     -0.2867
    107  CB        15.7680  -19.5570   91.5580 C.3   116  GLU116      0.0388
    108  CG        14.7540  -20.5830   92.0260 C.3   116  GLU116      0.1160
    109  CD        15.3750  -21.5630   93.0240 C.2   116  GLU116      0.3649
    110  OE1       14.6270  -22.2340   93.7690 O.co2 116  GLU116     -0.2457
    111  OE2       16.6270  -21.6590   93.0610 O.co2 116  GLU116     -0.2457
    112  N         15.6290  -23.6340   87.2350 N.3   118  TRP118     -0.1241
    113  CA        16.2700  -24.9100   87.3080 C.3   118  TRP118      0.1605
    114  C         16.5050  -25.2830   85.8740 C.2   118  TRP118      0.2264
    115  O         15.5720  -25.2960   85.0800 O.2   118  TRP118     -0.2867
    116  CB        15.3680  -25.9340   87.9640 C.3   118  TRP118      0.0550
    117  CG        15.0870  -25.6570   89.4000 C.ar  118  TRP118      0.0003
    118  CD1       14.0450  -24.9350   89.9100 C.ar  118  TRP118      0.0946
    119  CD2       15.8460  -26.1070   90.5300 C.ar  118  TRP118      0.0152
    120  NE1       14.1060  -24.9040   91.2740 N.ar  118  TRP118     -0.2442
    121  CE2       15.2040  -25.6180   91.6840 C.ar  118  TRP118      0.0810
    122  CE3       17.0050  -26.8770   90.6770 C.ar  118  TRP118      0.0012
    123  CZ2       15.6820  -25.8720   92.9670 C.ar  118  TRP118      0.0191
    124  CZ3       17.4770  -27.1300   91.9570 C.ar  118  TRP118      0.0001
    125  CH2       16.8180  -26.6290   93.0810 C.ar  118  TRP118      0.0015
    126  N         20.9990  -24.9040   89.1920 N.3   134  GLU134     -0.1245
    127  CA        19.9930  -24.1310   89.9130 C.3   134  GLU134      0.1567
    128  C         20.5450  -22.7310   89.8120 C.2   134  GLU134      0.2260
    129  O         21.6890  -22.5250   90.1830 O.2   134  GLU134     -0.2867
    130  CB        19.9150  -24.5170   91.3820 C.3   134  GLU134      0.0388
    131  CG        19.0000  -23.5870   92.1930 C.3   134  GLU134      0.1160
    132  CD        18.8460  -24.0260   93.6270 C.2   134  GLU134      0.3649
    133  OE1       19.7860  -24.6790   94.1490 O.co2 134  GLU134     -0.2457
    134  OE2       17.8020  -23.7100   94.2380 O.co2 134  GLU134     -0.2457
    135  N         19.9240  -18.6910   90.8270 N.3   136  MET136     -0.1245
    136  CA        19.1450  -17.7540   91.6110 C.3   136  MET136      0.1570
    137  C         19.5860  -16.3390   91.4070 C.2   136  MET136      0.2261
    138  O         20.7550  -16.0770   91.0820 O.2   136  MET136     -0.2867
    139  CB        19.2640  -18.0440   93.0980 C.3   136  MET136      0.0387
    140  CG        18.9960  -19.4680   93.4780 C.3   136  MET136      0.0595
    141  SD        18.7320  -19.6420   95.2300 S.3   136  MET136     -0.1393
    142  CE        16.9010  -19.2860   95.3680 C.3   136  MET136      0.0692
    143  N         24.0000  -30.8040   92.7170 N.3   178  TRP178     -0.1241
    144  CA        23.7930  -30.2240   91.3980 C.3   178  TRP178      0.1605
    145  C         24.5200  -28.8860   91.5160 C.2   178  TRP178      0.2264
    146  O         24.8780  -28.5050   92.6340 O.2   178  TRP178     -0.2867
    147  CB        22.2820  -30.0200   91.1650 C.3   178  TRP178      0.0550
    148  CG        21.5870  -29.0900   92.1760 C.ar  178  TRP178      0.0003
    149  CD1       21.6240  -27.7130   92.2010 C.ar  178  TRP178      0.0946
    150  CD2       20.7710  -29.4810   93.2830 C.ar  178  TRP178      0.0152
    151  NE1       20.8880  -27.2330   93.2380 N.ar  178  TRP178     -0.2442
    152  CE2       20.3430  -28.2870   93.9260 C.ar  178  TRP178      0.0810
    153  CE3       20.3550  -30.7220   93.7990 C.ar  178  TRP178      0.0012
    154  CZ2       19.5060  -28.2960   95.0650 C.ar  178  TRP178      0.0191
    155  CZ3       19.5250  -30.7300   94.9310 C.ar  178  TRP178      0.0001
    156  CH2       19.1100  -29.5190   95.5480 C.ar  178  TRP178      0.0015
    157  N         24.9480  -25.0270   91.9890 N.3   180  TYR180     -0.1241
    158  CA        24.2120  -23.8880   92.5210 C.3   180  TYR180      0.1605
    159  C         24.9100  -22.5870   92.1860 C.2   180  TYR180      0.2264
    160  O         26.1240  -22.4360   92.3990 O.2   180  TYR180     -0.2867
    161  CB        24.1260  -23.9890   94.0280 C.3   180  TYR180      0.0534
    162  CG        23.6070  -22.7760   94.8080 C.ar  180  TYR180     -0.0201
    163  CD1       22.2840  -22.7070   95.2080 C.ar  180  TYR180     -0.0009
    164  CD2       24.4760  -21.7900   95.2890 C.ar  180  TYR180     -0.0009
    165  CE1       21.8400  -21.7260   96.0580 C.ar  180  TYR180      0.0417
    166  CE2       24.0320  -20.7900   96.1620 C.ar  180  TYR180      0.0417
    167  CZ        22.7130  -20.7770   96.5360 C.ar  180  TYR180      0.1957
    168  OH        22.2250  -19.8390   97.4040 O.3   180  TYR180     -0.2866
    169  N         10.7660  -18.9580   89.2010 N.3   227  GLU227     -0.1245
    170  CA        10.1900  -18.7970   90.5330 C.3   227  GLU227      0.1567
    171  C         10.5180  -17.4340   91.1650 C.2   227  GLU227      0.2260
    172  O         11.6040  -16.9120   90.9750 O.2   227  GLU227     -0.2867
    173  CB        10.6830  -19.9080   91.4370 C.3   227  GLU227      0.0388
    174  CG        10.6440  -21.2700   90.7660 C.3   227  GLU227      0.1160
    175  CD        11.1690  -22.4010   91.6540 C.2   227  GLU227      0.3649
    176  OE1       10.4520  -22.8000   92.6260 O.co2 227  GLU227     -0.2457
    177  OE2       12.3020  -22.8810   91.3710 O.co2 227  GLU227     -0.2457
    178  N         13.0290  -16.7690  100.4200 N.3   231  GLU231     -0.1245
    179  CA        13.5650  -17.8580  101.2600 C.3   231  GLU231      0.1567
    180  C         13.6620  -17.3050  102.6870 C.2   231  GLU231      0.2260
    181  O         13.7590  -16.0830  102.8940 O.2   231  GLU231     -0.2867
    182  CB        14.9840  -18.2320  100.8520 C.3   231  GLU231      0.0388
    183  CG        15.1110  -19.1050   99.6790 C.3   231  GLU231      0.1160
    184  CD        16.5640  -19.4010   99.3970 C.2   231  GLU231      0.3649
    185  OE1       17.2820  -18.4470   98.9920 O.co2 231  GLU231     -0.2457
    186  OE2       16.9930  -20.5680   99.5780 O.co2 231  GLU231     -0.2457
@<TRIPOS>BOND
     1   115   114    2
     2   114   113    1
     3   112   113    1
     4   113   116    1
     5    71    72    1
     6   116   117    1
     7    72    73    1
     8    72    75    1
     9    73    74    2
    10   106   105    2
    11   126   127    1
    12   169   170    1
    13   105   104    1
    14   117   118   ar
    15   117   119   ar
    16   128   127    1
    17   128   129    2
    18   118   120   ar
    19   127   130    1
    20    75    76    1
    21   104   103    1
    22   104   107    1
    23   119   122   ar
    24   119   121   ar
    25   170   171    1
    26   170   173    1
    27   122   124   ar
    28   174   173    1
    29   174   175    1
    30   135   136    1
    31    80    81    1
    32   172   171    2
    33   138   137    2
    34    96    97    2
    35    96    95    1
    36   147   144    1
    37   147   148    1
    38    76    77    1
    39   120   121   ar
    40   177   175   ar
    41   130   131    1
    42   144   145    1
    43   144   143    1
    44   137   136    1
    45   145   146    2
    46   107   108    1
    47   136   139    1
    48   175   176   ar
    49   121   123   ar
    50    94    95    1
    51    94    82   am
    52   124   125   ar
    53   157   158    1
    54   108   109    1
    55   148   149   ar
    56   148   150   ar
    57   159   160    2
    58   159   158    1
    59   131   132    1
    60   149   151   ar
    61    81    82    1
    62    81    84    1
    63    95    98    1
    64   158   161    1
    65    82    83    2
    66    77    78    1
    67    86    88   ar
    68    86    85   ar
    69    88    89   ar
    70    98    99    1
    71   123   125   ar
    72   109   111   ar
    73   109   110   ar
    74   139   140    1
    75    85    84    1
    76    85    87   ar
    77    89    91   ar
    78    89    87   ar
    79   151   152   ar
    80   150   153   ar
    81   150   152   ar
    82   140   141    1
    83    91    93   ar
    84    87    90   ar
    85    78    79    1
    86   132   133   ar
    87   132   134   ar
    88    69    68   ar
    89   153   155   ar
    90   152   154   ar
    91   161   162    1
    92    93    92   ar
    93    99   100    1
    94    90    92   ar
    95    61    60    1
    96   162   163   ar
    97   162   164   ar
    98    68    67    1
    99    68    70   ar
   100   155   156   ar
   101   154   156   ar
   102    64    65    2
   103    64    63    1
   104   101   100   ar
   105   163   165   ar
   106   141   142    1
   107   164   166   ar
   108   100   102   ar
   109    67    66    1
   110     1     2    1
   111    66    63    1
   112     8     7   ar
   113    59    60   ar
   114    59    57   ar
   115    60    58   ar
   116     5     2    1
   117     5     6    1
   118   165   167   ar
   119    63    62    1
   120   166   167   ar
   121     2     3    1
   122     7     6    1
   123     7     9   ar
   124   167   168    1
   125    57    55   ar
   126    58    56   ar
   127     3     4    2
   128    17    15   am
   129    55    56   ar
   130    55    54    1
   131    53    52    2
   132    42    40    1
   133    15    14    1
   134    15    16    2
   135    14    11    1
   136   185   184   ar
   137    54    51    1
   138   184   186   ar
   139   184   183    1
   140    52    51    1
   141   183   182    1
   142    40    41    1
   143    40    39    2
   144    10    11    1
   145    11    12    1
   146    51    50    1
   147   178   179    1
   148    24    26   ar
   149    24    23   ar
   150    26    27   ar
   151    39    38    1
   152    23    22    1
   153    23    25   ar
   154   182   179    1
   155    22    19    1
   156    27    25   ar
   157    27    29   ar
   158    25    28   ar
   159    29    31   ar
   160    28    30   ar
   161    31    30   ar
   162   179   180    1
   163    12    13    2
   164    38    37    1
   165    19    18    1
   166    19    20    1
   167    49    47    1
   168   180   181    2
   169    37    36    1
   170    48    47    1
   171    20    21    2
   172    35    34    2
   173    47    44    1
   174    36    33    1
   175    33    34    1
   176    33    32    1
   177    44    43    1
   178    44    45    1
   179    46    45    2
