@<TRIPOS>MOLECULE
tmp/3vhvA00.pdb
 200 187 0 0 0
SMALL
GASTEIGER

@<TRIPOS>ATOM
      1  N          1.1690    9.5350   -9.1100 N.3    42  LEU42      -0.1245
      2  CA         0.2710   10.6210   -9.4820 C.3    42  LEU42       0.1561
      3  C         -0.9910   10.1130  -10.1610 C.2    42  LEU42       0.2260
      4  O         -2.0760   10.6320   -9.9130 O.2    42  LEU42      -0.2867
      5  CB         0.9810   11.6610  -10.3420 C.3    42  LEU42       0.0270
      6  CG         2.1140   12.4210   -9.6440 C.3    42  LEU42       0.0019
      7  CD1        2.8470   13.2860  -10.6540 C.3    42  LEU42       0.0001
      8  CD2        1.5980   13.2450   -8.4700 C.3    42  LEU42       0.0001
      9  N         -3.0680    8.9950   -7.3230 N.3    45  LEU45      -0.1231
     10  CA        -3.6480   10.1510   -6.6570 C.3    45  LEU45       0.1693
     11  C         -4.8140   10.7190   -7.4490 C.2    45  LEU45       0.2592
     12  O         -5.8090   11.1300   -6.8650 O.2    45  LEU45      -0.2718
     13  CB        -2.6000   11.2360   -6.4110 C.3    45  LEU45       0.0284
     14  CG        -1.5570   10.9560   -5.3270 C.3    45  LEU45       0.0019
     15  CD1       -0.6930   12.1800   -5.1110 C.3    45  LEU45       0.0001
     16  CD2       -2.2190   10.5610   -4.0290 C.3    45  LEU45       0.0001
     17  N         -4.6700   10.7720   -8.7730 N.am   46  ASN46      -0.1974
     18  CA        -5.7250   11.3210   -9.6170 C.3    46  ASN46       0.1688
     19  C         -6.9540   10.4390   -9.6450 C.2    46  ASN46       0.2292
     20  O         -8.0770   10.9350   -9.6370 O.2    46  ASN46      -0.2864
     21  CB        -5.1990   11.6310  -11.0130 C.3    46  ASN46       0.1181
     22  CG        -4.2120   12.7540  -10.9860 C.2    46  ASN46       0.2629
     23  OD1       -4.2340   13.5640  -10.0520 O.2    46  ASN46      -0.2716
     24  ND2       -3.3440   12.8260  -11.9870 N.am   46  ASN46      -0.0877
     25  N         -7.8020    8.5140   -7.1660 N.3    48  LEU48      -0.1231
     26  CA        -8.3710    8.7400   -5.8490 C.3    48  LEU48       0.1693
     27  C         -9.1480   10.0650   -5.8190 C.2    48  LEU48       0.2591
     28  O        -10.2660   10.1300   -5.3010 O.2    48  LEU48      -0.2718
     29  CB        -7.2600    8.7310   -4.7970 C.3    48  LEU48       0.0284
     30  CG        -7.6880    9.1350   -3.3860 C.3    48  LEU48       0.0019
     31  CD1       -8.7360    8.1890   -2.7880 C.3    48  LEU48       0.0001
     32  CD2       -6.4700    9.2350   -2.4940 C.3    48  LEU48       0.0001
     33  N         -8.5610   11.1190   -6.3800 N.am   49  ALA49      -0.1980
     34  CA        -9.2230   12.4090   -6.4240 C.3    49  ALA49       0.1597
     35  C        -10.5390   12.3150   -7.1920 C.2    49  ALA49       0.2287
     36  O        -11.5350   12.8720   -6.7610 O.2    49  ALA49      -0.2864
     37  CB        -8.3240   13.4400   -7.0460 C.3    49  ALA49       0.0319
     38  N        -13.0250   10.6090   -4.9990 N.3    52  GLN52      -0.1245
     39  CA       -13.4510   11.4970   -3.9340 C.3    52  GLN52       0.1566
     40  C        -14.3890   12.5780   -4.4550 C.2    52  GLN52       0.2260
     41  O        -15.3520   12.9280   -3.7940 O.2    52  GLN52      -0.2867
     42  CB       -12.2650   12.1220   -3.2390 C.3    52  GLN52       0.0367
     43  CG       -11.4930   11.1920   -2.3260 C.3    52  GLN52       0.0905
     44  CD       -10.6270   12.0060   -1.4050 C.2    52  GLN52       0.2608
     45  OE1      -11.0390   12.3780   -0.2900 O.2    52  GLN52      -0.2717
     46  NE2       -9.4420   12.3480   -1.8830 N.am   52  GLN52      -0.0878
     47  N        -12.4880   22.1980   -5.7360 N.3    82  TRP82      -0.1227
     48  CA       -12.1640   20.7750   -5.6840 C.3    82  TRP82       0.1737
     49  C        -10.8510   20.5130   -4.9610 C.2    82  TRP82       0.2595
     50  O        -10.7790   19.6650   -4.0740 O.2    82  TRP82      -0.2718
     51  CB       -12.1950   20.1470   -7.0790 C.3    82  TRP82       0.0564
     52  CG       -10.9900   20.3610   -7.9560 C.ar   82  TRP82       0.0003
     53  CD1      -10.7620   21.4070   -8.7960 C.ar   82  TRP82       0.0946
     54  CD2       -9.8890   19.4640   -8.1240 C.ar   82  TRP82       0.0152
     55  NE1       -9.5760   21.2320   -9.4600 N.ar   82  TRP82      -0.2442
     56  CE2       -9.0230   20.0410   -9.0790 C.ar   82  TRP82       0.0810
     57  CE3       -9.5540   18.2190   -7.5690 C.ar   82  TRP82       0.0012
     58  CZ2       -7.8340   19.4270   -9.4820 C.ar   82  TRP82       0.0191
     59  CZ3       -8.3700   17.6070   -7.9740 C.ar   82  TRP82       0.0001
     60  CH2       -7.5330   18.2070   -8.9240 C.ar   82  TRP82       0.0015
     61  N         -9.8050   21.2260   -5.3560 N.am   83  MET83      -0.1979
     62  CA        -8.4960   20.9940   -4.7730 C.3    83  MET83       0.1605
     63  C         -8.4870   21.3790   -3.2920 C.2    83  MET83       0.2287
     64  O         -7.8690   20.7170   -2.4670 O.2    83  MET83      -0.2864
     65  CB        -7.4550   21.7850   -5.5530 C.3    83  MET83       0.0413
     66  CG        -6.0150   21.5710   -5.1240 C.3    83  MET83       0.0598
     67  SD        -5.4100   19.9350   -5.5000 S.3    83  MET83      -0.1393
     68  CE        -5.0510   20.1020   -7.2460 C.3    83  MET83       0.0692
     69  N        -10.4460   18.5910   -1.3000 N.3    86  LEU86      -0.1231
     70  CA        -9.6880   17.3570   -1.1800 C.3    86  LEU86       0.1693
     71  C         -8.4660   17.5390   -0.2870 C.2    86  LEU86       0.2592
     72  O         -8.1320   16.6620    0.5040 O.2    86  LEU86      -0.2718
     73  CB        -9.2670   16.8400   -2.5540 C.3    86  LEU86       0.0284
     74  CG       -10.3940   16.4450   -3.5050 C.3    86  LEU86       0.0019
     75  CD1       -9.7990   15.7260   -4.6820 C.3    86  LEU86       0.0001
     76  CD2      -11.4420   15.5940   -2.7880 C.3    86  LEU86       0.0001
     77  N         -7.7930   18.6790   -0.4190 N.am   87  SER87      -0.1952
     78  CA        -6.5760   18.9270    0.3670 C.3    87  SER87       0.1924
     79  C         -6.9110   19.0530    1.8580 C.2    87  SER87       0.2314
     80  O         -6.2050   18.5400    2.7180 O.2    87  SER87      -0.2863
     81  CB        -5.8750   20.1840   -0.1240 C.3    87  SER87       0.2116
     82  OG        -5.4420   19.9750   -1.4600 O.3    87  SER87      -0.2180
     83  N         -7.6430   15.6780    3.1710 N.3    90  LEU90      -0.1245
     84  CA        -6.3710   14.9810    3.2810 C.3    90  LEU90       0.1561
     85  C         -5.6860   15.3260    4.6050 C.2    90  LEU90       0.2260
     86  O         -5.2250   14.4370    5.3140 O.2    90  LEU90      -0.2867
     87  CB        -5.4710   15.3460    2.1010 C.3    90  LEU90       0.0270
     88  CG        -4.0130   14.8980    2.1380 C.3    90  LEU90       0.0019
     89  CD1       -3.8700   13.3750    2.2400 C.3    90  LEU90       0.0001
     90  CD2       -3.3140   15.4250    0.9010 C.3    90  LEU90       0.0001
     91  N         -7.6740   13.6690    7.4860 N.3    93  ARG93      -0.1245
     92  CA        -7.3850   12.2450    7.6510 C.3    93  ARG93       0.1563
     93  C         -5.9950   12.0360    8.2210 C.2    93  ARG93       0.2260
     94  O         -5.7830   11.1540    9.0440 O.2    93  ARG93      -0.2867
     95  CB        -7.5060   11.5040    6.3290 C.3    93  ARG93       0.0307
     96  CG        -8.9120   11.4290    5.7960 C.3    93  ARG93       0.0489
     97  CD        -9.0070   10.5120    4.6100 C.3    93  ARG93       0.2205
     98  NE        -8.2030   10.9280    3.4590 N.pl3  93  ARG93      -0.0865
     99  CZ        -8.6010   11.7550    2.4900 C.cat  93  ARG93       0.5346
    100  NH1       -9.7890   12.3430    2.5300 N.pl3  93  ARG93       0.1354
    101  NH2       -7.7840   12.0080    1.4800 N.pl3  93  ARG93       0.1354
    102  N          0.9600   11.6800    5.3860 N.3   103  LEU103     -0.1245
    103  CA        -0.1670   12.1300    4.5720 C.3   103  LEU103      0.1561
    104  C         -1.0620   10.9380    4.2580 C.2   103  LEU103      0.2260
    105  O         -0.6980   10.0470    3.4970 O.2   103  LEU103     -0.2867
    106  CB         0.3200   12.8220    3.3060 C.3   103  LEU103      0.0270
    107  CG         0.8730   14.2330    3.5080 C.3   103  LEU103      0.0019
    108  CD1        1.5000   14.7250    2.2180 C.3   103  LEU103      0.0001
    109  CD2       -0.2250   15.1980    3.9440 C.3   103  LEU103      0.0001
    110  N         -3.6740    9.6900    2.4250 N.3   105  PHE105     -0.1241
    111  CA        -4.5400    9.8410    1.2640 C.3   105  PHE105      0.1605
    112  C         -5.7400    8.9270    1.3410 C.2   105  PHE105      0.2264
    113  O         -6.8570    9.3250    1.0290 O.2   105  PHE105     -0.2867
    114  CB        -3.7630    9.6130   -0.0270 C.3   105  PHE105      0.0534
    115  CG        -2.8570   10.7400   -0.3620 C.ar  105  PHE105     -0.0203
    116  CD1       -1.5290   10.7150    0.0260 C.ar  105  PHE105     -0.0042
    117  CD2       -3.3420   11.8600   -1.0250 C.ar  105  PHE105     -0.0042
    118  CE1       -0.6990   11.7770   -0.2490 C.ar  105  PHE105     -0.0003
    119  CE2       -2.5190   12.9190   -1.3040 C.ar  105  PHE105     -0.0003
    120  CZ        -1.1950   12.8800   -0.9190 C.ar  105  PHE105     -0.0000
    121  N          6.1600   15.2660   -5.8630 N.3   121  MET121     -0.1245
    122  CA         5.4990   16.3740   -5.1820 C.3   121  MET121      0.1570
    123  C          6.0580   16.6490   -3.8000 C.2   121  MET121      0.2261
    124  O          5.3440   17.1370   -2.9350 O.2   121  MET121     -0.2867
    125  CB         3.9990   16.1000   -5.0730 C.3   121  MET121      0.0387
    126  CG         3.3140   16.0790   -6.4120 C.3   121  MET121      0.0595
    127  SD         1.5320   15.9570   -6.2400 S.3   121  MET121     -0.1393
    128  CE         1.1430   17.5540   -5.5270 C.3   121  MET121      0.0692
    129  N          5.4570   20.2850   -2.3690 N.3   124  LEU124     -0.1231
    130  CA         4.0350   20.5400   -2.2250 C.3   124  LEU124      0.1693
    131  C          3.4210   19.6810   -1.1220 C.2   124  LEU124      0.2592
    132  O          2.5690   20.1480   -0.3640 O.2   124  LEU124     -0.2718
    133  CB         3.3190   20.3510   -3.5600 C.3   124  LEU124      0.0284
    134  CG         3.6460   21.4670   -4.5530 C.3   124  LEU124      0.0019
    135  CD1        3.3180   21.0400   -5.9820 C.3   124  LEU124      0.0001
    136  CD2        2.9170   22.7430   -4.1760 C.3   124  LEU124      0.0001
    137  N          3.8890   18.4420   -0.9970 N.am  125  CYS125     -0.1970
    138  CA         3.4760   17.6020    0.1140 C.3   125  CYS125      0.1712
    139  C          3.8740   18.2010    1.4490 C.2   125  CYS125      0.2296
    140  O          3.1120   18.1200    2.4040 O.2   125  CYS125     -0.2864
    141  CB         4.0650   16.2030   -0.0140 C.3   125  CYS125      0.0983
    142  SG         3.2180   15.1680   -1.2050 S.3   125  CYS125     -0.0798
    143  N          1.4040   20.7710    2.2430 N.3   128  MET128     -0.1245
    144  CA         0.1970   20.1290    2.7360 C.3   128  MET128      0.1570
    145  C          0.3700   19.7140    4.1970 C.2   128  MET128      0.2261
    146  O         -0.5140   19.8940    5.0340 O.2   128  MET128     -0.2867
    147  CB        -0.1130   18.9070    1.8760 C.3   128  MET128      0.0387
    148  CG        -1.4600   18.2870    2.1330 C.3   128  MET128      0.0595
    149  SD        -2.8200   19.2990    1.5030 S.3   128  MET128     -0.1393
    150  CE        -3.3710   20.2100    2.9440 C.3   128  MET128      0.0692
    151  N         -0.9250   24.2260   -5.6260 N.3   209  LEU209     -0.1245
    152  CA        -1.2890   22.8840   -6.0300 C.3   209  LEU209      0.1561
    153  C         -1.9770   22.8820   -7.3860 C.2   209  LEU209      0.2260
    154  O         -1.7210   22.0090   -8.2160 O.2   209  LEU209     -0.2867
    155  CB        -2.2020   22.2460   -4.9920 C.3   209  LEU209      0.0270
    156  CG        -1.5630   21.8040   -3.6760 C.3   209  LEU209      0.0019
    157  CD1       -2.6620   21.4670   -2.6990 C.3   209  LEU209      0.0001
    158  CD2       -0.6600   20.6150   -3.9030 C.3   209  LEU209      0.0001
    159  N          0.5030   23.5070  -10.1770 N.3   212  PHE212     -0.1227
    160  CA         1.2690   22.3010  -10.3990 C.3   212  PHE212      0.1736
    161  C          0.4140   21.2660  -11.1340 C.2   212  PHE212      0.2595
    162  O          0.8830   20.5810  -12.0420 O.2   212  PHE212     -0.2718
    163  CB         1.7650   21.7500   -9.0730 C.3   212  PHE212      0.0547
    164  CG         2.5500   20.4840   -9.2080 C.ar  212  PHE212     -0.0202
    165  CD1        3.8840   20.5290   -9.5600 C.ar  212  PHE212     -0.0042
    166  CD2        1.9560   19.2520   -8.9980 C.ar  212  PHE212     -0.0042
    167  CE1        4.6260   19.3700   -9.6850 C.ar  212  PHE212     -0.0003
    168  CE2        2.7010   18.0840   -9.1240 C.ar  212  PHE212     -0.0003
    169  CZ         4.0270   18.1490   -9.4730 C.ar  212  PHE212     -0.0000
    170  N         -0.8370   21.1280  -10.7100 N.am  213  CYS213     -0.1970
    171  CA        -1.7520   20.2150  -11.3650 C.3   213  CYS213      0.1712
    172  C         -1.9550   20.5820  -12.8300 C.2   213  CYS213      0.2296
    173  O         -1.9850   19.6970  -13.6900 O.2   213  CYS213     -0.2864
    174  CB        -3.0760   20.2080  -10.6110 C.3   213  CYS213      0.0983
    175  SG        -4.2000   18.9520  -11.1530 S.3   213  CYS213     -0.0798
    176  N          1.1490   19.5630  -14.7650 N.3   216  THR216     -0.1218
    177  CA         1.1570   18.1190  -14.9360 C.3   216  THR216      0.1862
    178  C          0.1330   17.7270  -15.9900 C.2   216  THR216      0.2287
    179  O          0.3930   16.8650  -16.8280 O.2   216  THR216     -0.2866
    180  CB         0.8360   17.4100  -13.6210 C.3   216  THR216      0.1770
    181  OG1        1.7780   17.8220  -12.6290 O.3   216  THR216     -0.2211
    182  CG2        0.9370   15.9180  -13.7820 C.3   216  THR216      0.0375
    183  N          1.0760   10.7310  -16.8400 N.3   225  VAL225     -0.1245
    184  CA         0.1830   10.8670  -15.6990 C.3   225  VAL225      0.1561
    185  C         -1.2550   10.8190  -16.1920 C.2   225  VAL225      0.2260
    186  O         -1.6590   11.6250  -17.0320 O.2   225  VAL225     -0.2867
    187  CB         0.4420   12.1730  -14.9210 C.3   225  VAL225      0.0252
    188  CG1       -0.5970   12.3680  -13.8270 C.3   225  VAL225      0.0019
    189  CG2        1.8370   12.1600  -14.3200 C.3   225  VAL225      0.0019
    190  N         -5.3680   11.1010  -15.8260 N.3   227  PHE227     -0.1241
    191  CA        -6.4200   11.8320  -15.1330 C.3   227  PHE227      0.1605
    192  C         -7.7470   11.1960  -15.4900 C.2   227  PHE227      0.2264
    193  O         -8.0090   10.9420  -16.6700 O.2   227  PHE227     -0.2867
    194  CB        -6.4460   13.2960  -15.5720 C.3   227  PHE227      0.0534
    195  CG        -5.2880   14.1030  -15.0740 C.ar  227  PHE227     -0.0203
    196  CD1       -4.0600   14.0530  -15.7200 C.ar  227  PHE227     -0.0042
    197  CD2       -5.4390   14.9560  -13.9830 C.ar  227  PHE227     -0.0042
    198  CE1       -2.9960   14.8100  -15.2590 C.ar  227  PHE227     -0.0003
    199  CE2       -4.3790   15.7230  -13.5240 C.ar  227  PHE227     -0.0003
    200  CZ        -3.1500   15.6470  -14.1680 C.ar  227  PHE227     -0.0000
@<TRIPOS>BOND
     1   186   185    2
     2   183   184    1
     3   179   178    2
     4   193   192    2
     5   185   184    1
     6   178   177    1
     7   190   191    1
     8   196   198   ar
     9   196   195   ar
    10   184   187    1
    11   194   191    1
    12   194   195    1
    13   192   191    1
    14   198   200   ar
    15   195   197   ar
    16   177   176    1
    17   177   180    1
    18   187   189    1
    19   187   188    1
    20   200   199   ar
    21   197   199   ar
    22   182   180    1
    23   173   172    2
    24   180   181    1
    25   172   171    1
    26   162   161    2
    27    24    22   am
    28   171   170    1
    29   171   174    1
    30   175   174    1
    31   161   170   am
    32   161   160    1
    33    21    22    1
    34    21    18    1
    35    22    23    2
    36     7     6    1
    37   160   159    1
    38   160   163    1
    39     5     6    1
    40     5     2    1
    41     3     4    2
    42     3     2    1
    43   167   165   ar
    44   167   169   ar
    45    19    20    2
    46    19    18    1
    47     6     8    1
    48    18    17    1
    49   165   164   ar
    50    58    56   ar
    51    58    60   ar
    52     2     1    1
    53   169   168   ar
    54    55    56   ar
    55    55    53   ar
    56   164   163    1
    57   164   166   ar
    58   168   166   ar
    59    56    54   ar
    60    60    59   ar
    61    53    52   ar
    62    17    11   am
    63   154   153    2
    64    54    52   ar
    65    54    57   ar
    66    59    57   ar
    67    52    51    1
    68    11    12    2
    69    11    10    1
    70   153   152    1
    71     9    10    1
    72    68    67    1
    73    35    36    2
    74    35    34    1
    75    25    26    1
    76    51    48    1
    77    37    34    1
    78    10    13    1
    79    34    33    1
    80   126   127    1
    81   126   125    1
    82    13    14    1
    83    33    27   am
    84   127   128    1
    85   152   151    1
    86   152   155    1
    87   135   134    1
    88   121   122    1
    89    26    27    1
    90    26    29    1
    91    27    28    2
    92    47    48    1
    93    48    49    1
    94    65    66    1
    95    65    62    1
    96    67    66    1
    97    61    49   am
    98    61    62    1
    99    14    15    1
   100    14    16    1
   101   122   125    1
   102   122   123    1
   103    38    39    1
   104   155   156    1
   105    49    50    2
   106    29    30    1
   107    62    63    1
   108    75    74    1
   109   134   136    1
   110   134   133    1
   111    40    39    1
   112    40    41    2
   113    39    42    1
   114   158   156    1
   115   123   124    2
   116   156   157    1
   117   133   130    1
   118    74    76    1
   119    74    73    1
   120    30    31    1
   121    30    32    1
   122    63    64    2
   123    42    43    1
   124    73    70    1
   125   129   130    1
   126    43    44    1
   127   130   131    1
   128    46    44   am
   129    82    81    1
   130    44    45    2
   131   119   117   ar
   132   119   120   ar
   133    69    70    1
   134   142   141    1
   135    70    71    1
   136   131   137   am
   137   131   132    2
   138   117   115   ar
   139   137   138    1
   140   120   118   ar
   141    77    71   am
   142    77    78    1
   143   115   114    1
   144   115   116   ar
   145    71    72    2
   146   118   116   ar
   147    81    78    1
   148   114   111    1
   149   141   138    1
   150   138   139    1
   151    78    79    1
   152    90    88    1
   153   113   112    2
   154   111   112    1
   155   111   110    1
   156   139   140    2
   157   101    99    1
   158   149   148    1
   159   149   150    1
   160    79    80    2
   161   147   148    1
   162   147   144    1
   163    87    88    1
   164    87    84    1
   165    88    89    1
   166   108   107    1
   167   143   144    1
   168    99   100    1
   169    99    98    2
   170   144   145    1
   171    83    84    1
   172    84    85    1
   173   106   107    1
   174   106   103    1
   175    98    97    1
   176   105   104    2
   177   107   109    1
   178   145   146    2
   179   104   103    1
   180   103   102    1
   181    85    86    2
   182    97    96    1
   183    96    95    1
   184    95    92    1
   185    91    92    1
   186    92    93    1
   187    93    94    2
