@<TRIPOS>MOLECULE
tmp/3vhvA01.pdb
 97 91 0 0 0
SMALL
GASTEIGER

@<TRIPOS>ATOM
      1  N          6.7740    8.3820  -10.2200 N.3    38  ALA38      -0.1231
      2  CA         5.8850    9.5290  -10.1940 C.3    38  ALA38       0.1694
      3  C          4.6460    9.2680  -11.0440 C.2    38  ALA38       0.2591
      4  O          3.5350    9.5890  -10.6350 O.2    38  ALA38      -0.2718
      5  CB         6.6070   10.7740  -10.6550 C.3    38  ALA38       0.0304
      6  N          4.8310    8.6670  -12.2180 N.am   39  GLU39      -0.1979
      7  CA         3.6980    8.4100  -13.1010 C.3    39  GLU39       0.1602
      8  C          2.6570    7.5090  -12.4340 C.2    39  GLU39       0.2287
      9  O          1.4620    7.7670  -12.5250 O.2    39  GLU39      -0.2864
     10  CB         4.1680    7.8590  -14.4540 C.3    39  GLU39       0.0415
     11  CG         4.8590    6.5090  -14.3880 C.3    39  GLU39       0.1163
     12  CD         5.7830    6.2310  -15.5720 C.2    39  GLU39       0.3649
     13  OE1        5.3640    5.4970  -16.4890 O.co2  39  GLU39      -0.2457
     14  OE2        6.9320    6.7290  -15.5820 O.co2  39  GLU39      -0.2457
     15  N          1.1690    9.5350   -9.1100 N.3    42  LEU42      -0.1245
     16  CA         0.2710   10.6210   -9.4820 C.3    42  LEU42       0.1561
     17  C         -0.9910   10.1130  -10.1610 C.2    42  LEU42       0.2260
     18  O         -2.0760   10.6320   -9.9130 O.2    42  LEU42      -0.2867
     19  CB         0.9810   11.6610  -10.3420 C.3    42  LEU42       0.0270
     20  CG         2.1140   12.4210   -9.6440 C.3    42  LEU42       0.0019
     21  CD1        2.8470   13.2860  -10.6540 C.3    42  LEU42       0.0001
     22  CD2        1.5980   13.2450   -8.4700 C.3    42  LEU42       0.0001
     23  N          6.9920   12.9600   -6.9630 N.3   120  ALA120     -0.1231
     24  CA         7.4290   14.1950   -7.6330 C.3   120  ALA120      0.1694
     25  C          6.8490   15.4380   -6.9850 C.2   120  ALA120      0.2591
     26  O          7.0480   16.5310   -7.4820 O.2   120  ALA120     -0.2718
     27  CB         7.1290   14.1790   -9.1490 C.3   120  ALA120      0.0304
     28  N          6.1600   15.2660   -5.8630 N.am  121  MET121     -0.1979
     29  CA         5.4990   16.3740   -5.1820 C.3   121  MET121      0.1605
     30  C          6.0580   16.6490   -3.8000 C.2   121  MET121      0.2287
     31  O          5.3440   17.1370   -2.9350 O.2   121  MET121     -0.2864
     32  CB         3.9990   16.1000   -5.0730 C.3   121  MET121      0.0413
     33  CG         3.3140   16.0790   -6.4120 C.3   121  MET121      0.0598
     34  SD         1.5320   15.9570   -6.2400 S.3   121  MET121     -0.1393
     35  CE         1.1430   17.5540   -5.5270 C.3   121  MET121      0.0692
     36  N          7.8770   18.9130   -2.2300 N.3   123  GLU123     -0.1231
     37  CA         7.7730   20.2350   -1.6330 C.3   123  GLU123      0.1699
     38  C          6.3120   20.6240   -1.4110 C.2   123  GLU123      0.2592
     39  O          5.9580   21.2060   -0.3870 O.2   123  GLU123     -0.2718
     40  CB         8.5020   21.2540   -2.5160 C.3   123  GLU123      0.0402
     41  CG        10.0020   20.9300   -2.7290 C.3   123  GLU123      0.1161
     42  CD        10.3150   20.0280   -3.9410 C.2   123  GLU123      0.3649
     43  OE1        9.4750   19.2420   -4.3990 O.co2 123  GLU123     -0.2457
     44  OE2       11.4540   20.0900   -4.4430 O.co2 123  GLU123     -0.2457
     45  N          5.4570   20.2850   -2.3690 N.am  124  LEU124     -0.1980
     46  CA         4.0350   20.5400   -2.2250 C.3   124  LEU124      0.1596
     47  C          3.4210   19.6810   -1.1220 C.2   124  LEU124      0.2287
     48  O          2.5690   20.1480   -0.3640 O.2   124  LEU124     -0.2864
     49  CB         3.3190   20.3510   -3.5600 C.3   124  LEU124      0.0297
     50  CG         3.6460   21.4670   -4.5530 C.3   124  LEU124      0.0022
     51  CD1        3.3180   21.0400   -5.9820 C.3   124  LEU124      0.0001
     52  CD2        2.9170   22.7430   -4.1760 C.3   124  LEU124      0.0001
     53  N          0.5030   23.5070  -10.1770 N.3   212  PHE212     -0.1241
     54  CA         1.2690   22.3010  -10.3990 C.3   212  PHE212      0.1605
     55  C          0.4140   21.2660  -11.1340 C.2   212  PHE212      0.2264
     56  O          0.8830   20.5810  -12.0420 O.2   212  PHE212     -0.2867
     57  CB         1.7650   21.7500   -9.0730 C.3   212  PHE212      0.0534
     58  CG         2.5500   20.4840   -9.2080 C.ar  212  PHE212     -0.0203
     59  CD1        3.8840   20.5290   -9.5600 C.ar  212  PHE212     -0.0042
     60  CD2        1.9560   19.2520   -8.9980 C.ar  212  PHE212     -0.0042
     61  CE1        4.6260   19.3700   -9.6850 C.ar  212  PHE212     -0.0003
     62  CE2        2.7010   18.0840   -9.1240 C.ar  212  PHE212     -0.0003
     63  CZ         4.0270   18.1490   -9.4730 C.ar  212  PHE212     -0.0000
     64  N          0.1410   22.2000  -14.7640 N.3   215  TYR215     -0.1227
     65  CA         1.3780   21.8790  -15.4590 C.3   215  TYR215      0.1736
     66  C          1.4500   20.3810  -15.7660 C.2   215  TYR215      0.2596
     67  O          1.7560   19.9780  -16.8870 O.2   215  TYR215     -0.2718
     68  CB         2.5620   22.3350  -14.6090 C.3   215  TYR215      0.0548
     69  CG         3.9110   21.9930  -15.1890 C.ar  215  TYR215     -0.0200
     70  CD1        4.2900   22.4640  -16.4410 C.ar  215  TYR215     -0.0009
     71  CD2        4.8130   21.2200  -14.4750 C.ar  215  TYR215     -0.0009
     72  CE1        5.5240   22.1650  -16.9750 C.ar  215  TYR215      0.0417
     73  CE2        6.0580   20.9120  -14.9950 C.ar  215  TYR215      0.0417
     74  CZ         6.4030   21.3880  -16.2490 C.ar  215  TYR215      0.1957
     75  OH         7.6360   21.0890  -16.7650 O.3   215  TYR215     -0.2866
     76  N          1.1490   19.5630  -14.7650 N.am  216  THR216     -0.1953
     77  CA         1.1570   18.1190  -14.9360 C.3   216  THR216      0.1897
     78  C          0.1330   17.7270  -15.9900 C.2   216  THR216      0.2313
     79  O          0.3930   16.8650  -16.8280 O.2   216  THR216     -0.2863
     80  CB         0.8360   17.4100  -13.6210 C.3   216  THR216      0.1794
     81  OG1        1.7780   17.8220  -12.6290 O.3   216  THR216     -0.2208
     82  CG2        0.9370   15.9180  -13.7820 C.3   216  THR216      0.0378
     83  N          4.6380   12.9720  -19.2070 N.3   223  LEU223     -0.1245
     84  CA         4.8830   12.5430  -17.8350 C.3   223  LEU223      0.1561
     85  C          4.1920   11.2150  -17.5340 C.2   223  LEU223      0.2260
     86  O          4.4280   10.6100  -16.4850 O.2   223  LEU223     -0.2867
     87  CB         4.4350   13.6220  -16.8460 C.3   223  LEU223      0.0270
     88  CG         5.1920   14.9560  -16.8760 C.3   223  LEU223      0.0019
     89  CD1        4.4300   16.0050  -16.0720 C.3   223  LEU223      0.0001
     90  CD2        6.6230   14.8070  -16.3730 C.3   223  LEU223      0.0001
     91  N          1.0760   10.7310  -16.8400 N.3   225  VAL225     -0.1245
     92  CA         0.1830   10.8670  -15.6990 C.3   225  VAL225      0.1561
     93  C         -1.2550   10.8190  -16.1920 C.2   225  VAL225      0.2260
     94  O         -1.6590   11.6250  -17.0320 O.2   225  VAL225     -0.2867
     95  CB         0.4420   12.1730  -14.9210 C.3   225  VAL225      0.0252
     96  CG1       -0.5970   12.3680  -13.8270 C.3   225  VAL225      0.0019
     97  CG2        1.8370   12.1600  -14.3200 C.3   225  VAL225      0.0019
@<TRIPOS>BOND
     1    83    84    1
     2    84    85    1
     3    84    87    1
     4    85    86    2
     5    94    93    2
     6    72    70   ar
     7    72    74   ar
     8    67    66    2
     9    88    87    1
    10    88    90    1
    11    88    89    1
    12    91    92    1
    13    79    78    2
    14    75    74    1
    15    13    12   ar
    16    70    69   ar
    17    74    73   ar
    18    93    92    1
    19    78    77    1
    20    66    65    1
    21    66    76   am
    22    92    95    1
    23    14    12   ar
    24    12    11    1
    25    65    64    1
    26    65    68    1
    27    69    68    1
    28    69    71   ar
    29    73    71   ar
    30    77    76    1
    31    77    80    1
    32    95    97    1
    33    95    96    1
    34    10    11    1
    35    10     7    1
    36    82    80    1
    37    80    81    1
    38     7     8    1
    39     7     6    1
    40     9     8    2
    41     6     3   am
    42    56    55    2
    43    55    54    1
    44     3     4    2
    45     3     2    1
    46     5     2    1
    47    21    20    1
    48    54    53    1
    49    54    57    1
    50    19    20    1
    51    19    16    1
    52     1     2    1
    53    17    18    2
    54    17    16    1
    55    61    59   ar
    56    61    63   ar
    57    20    22    1
    58    59    58   ar
    59    16    15    1
    60    63    62   ar
    61    58    57    1
    62    58    60   ar
    63    27    24    1
    64    62    60   ar
    65    24    25    1
    66    24    23    1
    67    26    25    2
    68    25    28   am
    69    33    34    1
    70    33    32    1
    71    34    35    1
    72    51    50    1
    73    28    29    1
    74    29    32    1
    75    29    30    1
    76    50    52    1
    77    50    49    1
    78    44    42   ar
    79    43    42   ar
    80    42    41    1
    81    30    31    2
    82    49    46    1
    83    41    40    1
    84    40    37    1
    85    45    46    1
    86    45    38   am
    87    36    37    1
    88    46    47    1
    89    37    38    1
    90    38    39    2
    91    47    48    2
