@<TRIPOS>MOLECULE
tmp/3vi0A01.pdb
 98 91 0 0 0
SMALL
GASTEIGER

@<TRIPOS>ATOM
      1  N         28.3640   34.9520   30.2710 N.3    20  THR20      -0.1218
      2  CA        29.4190   35.7310   30.9210 C.3    20  THR20       0.1862
      3  C         28.8070   36.9330   31.6530 C.2    20  THR20       0.2287
      4  O         29.0940   37.1770   32.8400 O.2    20  THR20      -0.2866
      5  CB        30.4400   36.2480   29.8740 C.3    20  THR20       0.1770
      6  OG1       30.9610   35.1370   29.1370 O.3    20  THR20      -0.2211
      7  CG2       31.5900   36.9900   30.5420 C.3    20  THR20       0.0375
      8  N         27.1670   35.8160   34.8900 N.3    23  PHE23      -0.1227
      9  CA        28.1260   35.4400   35.9380 C.3    23  PHE23       0.1736
     10  C         28.8450   36.6620   36.4650 C.2    23  PHE23       0.2595
     11  O         29.0930   36.7730   37.6660 O.2    23  PHE23      -0.2718
     12  CB        29.1370   34.4060   35.4250 C.3    23  PHE23       0.0547
     13  CG        28.5220   33.0520   35.1510 C.ar   23  PHE23      -0.0202
     14  CD1       27.5480   32.5360   35.9980 C.ar   23  PHE23      -0.0042
     15  CD2       28.8970   32.3120   34.0430 C.ar   23  PHE23      -0.0042
     16  CE1       26.9490   31.2990   35.7340 C.ar   23  PHE23      -0.0003
     17  CE2       28.3090   31.0860   33.7750 C.ar   23  PHE23      -0.0003
     18  CZ        27.3300   30.5780   34.6220 C.ar   23  PHE23      -0.0000
     19  N         29.1700   37.5870   35.5660 N.am   24  LEU24      -0.1980
     20  CA        29.8130   38.8340   35.9760 C.3    24  LEU24       0.1596
     21  C         28.9050   39.5820   36.9510 C.2    24  LEU24       0.2287
     22  O         29.2890   39.8690   38.0900 O.2    24  LEU24      -0.2864
     23  CB        30.0780   39.7260   34.7660 C.3    24  LEU24       0.0297
     24  CG        31.3680   39.4320   34.0020 C.3    24  LEU24       0.0022
     25  CD1       31.4330   40.2900   32.7420 C.3    24  LEU24       0.0001
     26  CD2       32.5650   39.7030   34.9310 C.3    24  LEU24       0.0001
     27  N         28.5370   38.0440   40.2990 N.3    27  GLY27      -0.1210
     28  CA        29.6750   38.1240   41.1940 C.3    27  GLY27       0.1956
     29  C         30.0010   39.5280   41.6540 C.2    27  GLY27       0.2611
     30  O         30.8890   39.6980   42.4860 O.2    27  GLY27      -0.2717
     31  N         29.2750   40.5160   41.1200 N.am   28  MET28      -0.1979
     32  CA        29.4590   41.9520   41.4150 C.3    28  MET28       0.1605
     33  C         30.2350   42.3290   42.6770 C.2    28  MET28       0.2287
     34  O         31.4320   42.6350   42.6190 O.2    28  MET28      -0.2864
     35  CB        28.1050   42.6710   41.4590 C.3    28  MET28       0.0413
     36  CG        27.5340   43.1110   40.1140 C.3    28  MET28       0.0598
     37  SD        28.4790   44.4180   39.3050 S.3    28  MET28      -0.1393
     38  CE        28.2640   45.7730   40.4990 C.3    28  MET28       0.0692
     39  N         31.1580   40.5670   45.7070 N.3    30  VAL30      -0.1245
     40  CA        31.3640   39.3920   46.5490 C.3    30  VAL30       0.1561
     41  C         32.7430   39.5050   47.1930 C.2    30  VAL30       0.2260
     42  O         33.7670   39.4650   46.5050 O.2    30  VAL30      -0.2867
     43  CB        31.2930   38.1080   45.7100 C.3    30  VAL30       0.0252
     44  CG1       31.5260   36.8820   46.5930 C.3    30  VAL30       0.0019
     45  CG2       29.9400   38.0310   45.0210 C.3    30  VAL30       0.0019
     46  N         35.3790   34.5160   45.3370 N.3    36  LYS36      -0.1245
     47  CA        35.9740   35.3020   44.2520 C.3    36  LYS36       0.1561
     48  C         36.7340   34.4330   43.2550 C.2    36  LYS36       0.2260
     49  O         36.5920   34.5830   42.0400 O.2    36  LYS36      -0.2867
     50  CB        36.9650   36.3240   44.8030 C.3    36  LYS36       0.0271
     51  CG        36.3900   37.6410   45.2530 C.3    36  LYS36       0.0035
     52  CD        37.5540   38.6090   45.3830 C.3    36  LYS36       0.0206
     53  CE        37.1620   39.9350   45.9780 C.3    36  LYS36       0.1093
     54  NZ        38.3780   40.7900   46.0290 N.3    36  LYS36      -0.1314
     55  N         34.3330   32.5560   41.2910 N.3    39  TYR39      -0.1227
     56  CA        33.7050   33.4320   40.2970 C.3    39  TYR39       0.1736
     57  C         34.6750   33.8090   39.1810 C.2    39  TYR39       0.2595
     58  O         34.2960   33.8380   38.0100 O.2    39  TYR39      -0.2718
     59  CB        33.1670   34.7320   40.9370 C.3    39  TYR39       0.0548
     60  CG        31.7630   34.6070   41.4720 C.ar   39  TYR39      -0.0200
     61  CD1       31.5180   34.4900   42.8390 C.ar   39  TYR39      -0.0009
     62  CD2       30.6900   34.5050   40.6020 C.ar   39  TYR39      -0.0009
     63  CE1       30.2230   34.2650   43.3190 C.ar   39  TYR39       0.0417
     64  CE2       29.4080   34.2750   41.0620 C.ar   39  TYR39       0.0417
     65  CZ        29.1760   34.1560   42.4140 C.ar   39  TYR39       0.1957
     66  OH        27.8860   33.9180   42.8470 O.3    39  TYR39      -0.2866
     67  N         35.9260   34.0940   39.5340 N.am   40  ALA40      -0.1980
     68  CA        36.9030   34.4840   38.5260 C.3    40  ALA40       0.1597
     69  C         37.1800   33.3410   37.5510 C.2    40  ALA40       0.2287
     70  O         37.2680   33.5520   36.3370 O.2    40  ALA40      -0.2864
     71  CB        38.2070   34.9420   39.2000 C.3    40  ALA40       0.0319
     72  N         33.7240   32.5580   35.5680 N.3    43  THR43      -0.1203
     73  CA        33.3270   33.6430   34.6460 C.3    43  THR43       0.1994
     74  C         34.2740   33.7200   33.4330 C.2    43  THR43       0.2617
     75  O         33.8490   34.0600   32.3240 O.2    43  THR43      -0.2717
     76  CB        33.3220   35.0350   35.3590 C.3    43  THR43       0.1784
     77  OG1       32.4840   34.9890   36.5200 O.3    43  THR43      -0.2211
     78  CG2       32.7890   36.1250   34.4270 C.3    43  THR43       0.0376
     79  N         35.5550   33.3970   33.6460 N.am   44  LEU44      -0.1979
     80  CA        36.5490   33.4240   32.5710 C.3    44  LEU44       0.1596
     81  C         36.3410   32.3420   31.5250 C.2    44  LEU44       0.2287
     82  O         36.7380   32.5040   30.3690 O.2    44  LEU44      -0.2864
     83  CB        37.9660   33.2780   33.1440 C.3    44  LEU44       0.0297
     84  CG        38.8030   34.5460   33.2820 C.3    44  LEU44       0.0022
     85  CD1       40.0540   34.2840   34.1110 C.3    44  LEU44       0.0001
     86  CD2       39.1630   35.0420   31.8890 C.3    44  LEU44       0.0001
     87  N         33.7730   33.6230   28.9920 N.3    47  ALA47      -0.1245
     88  CA        34.3320   34.8280   28.3640 C.3    47  ALA47       0.1562
     89  C         35.2770   34.4460   27.2220 C.2    47  ALA47       0.2260
     90  O         35.2990   35.1070   26.1760 O.2    47  ALA47      -0.2867
     91  CB        35.0640   35.6780   29.3930 C.3    47  ALA47       0.0290
     92  N         34.7780   34.7250   22.8600 N.3    51  THR51      -0.1218
     93  CA        35.7390   35.2160   21.8700 C.3    51  THR51       0.1862
     94  C         36.0410   34.1690   20.8070 C.2    51  THR51       0.2287
     95  O         36.1500   34.4940   19.6220 O.2    51  THR51      -0.2866
     96  CB        37.0920   35.6170   22.5060 C.3    51  THR51       0.1770
     97  OG1       37.7980   34.4390   22.9380 O.3    51  THR51      -0.2211
     98  CG2       36.8660   36.5490   23.6850 C.3    51  THR51       0.0375
@<TRIPOS>BOND
     1    95    94    2
     2    94    93    1
     3    93    96    1
     4    93    92    1
     5    96    97    1
     6    96    98    1
     7    90    89    2
     8    89    88    1
     9    88    87    1
    10    88    91    1
    11     6     5    1
    12     5     7    1
    13     5     2    1
    14     1     2    1
    15    82    81    2
    16     2     3    1
    17    81    80    1
    18     3     4    2
    19    86    84    1
    20    75    74    2
    21    80    83    1
    22    80    79    1
    23    25    24    1
    24    83    84    1
    25    84    85    1
    26    74    79   am
    27    74    73    1
    28    17    15   ar
    29    17    18   ar
    30    24    23    1
    31    24    26    1
    32    15    13   ar
    33    78    76    1
    34    18    16   ar
    35    73    76    1
    36    73    72    1
    37    23    20    1
    38     8     9    1
    39    13    12    1
    40    13    14   ar
    41    76    77    1
    42    12     9    1
    43    19    20    1
    44    19    10   am
    45    16    14   ar
    46     9    10    1
    47    20    21    1
    48    70    69    2
    49    10    11    2
    50    21    22    2
    51    69    68    1
    52    58    57    2
    53    68    71    1
    54    68    67    1
    55    57    67   am
    56    57    56    1
    57    37    36    1
    58    37    38    1
    59    36    35    1
    60    56    59    1
    61    56    55    1
    62    27    28    1
    63    62    64   ar
    64    62    60   ar
    65    59    60    1
    66    64    65   ar
    67    31    32    1
    68    31    29   am
    69    28    29    1
    70    32    35    1
    71    32    33    1
    72    60    61   ar
    73    29    30    2
    74    49    48    2
    75    65    66    1
    76    65    63   ar
    77    34    33    2
    78    61    63   ar
    79    48    47    1
    80    47    50    1
    81    47    46    1
    82    50    51    1
    83    45    43    1
    84    51    52    1
    85    52    53    1
    86    39    40    1
    87    43    40    1
    88    43    44    1
    89    53    54    1
    90    42    41    2
    91    40    41    1
