@<TRIPOS>MOLECULE
tmp/3vi2B00.pdb
 112 107 0 0 0
SMALL
GASTEIGER

@<TRIPOS>ATOM
      1  N         39.0440   12.6870   -8.6920 N.3    21  GLY21      -0.1225
      2  CA        37.7760   13.3540   -8.4760 C.3    21  GLY21       0.1811
      3  C         36.5940   12.5800   -8.9770 C.2    21  GLY21       0.2280
      4  O         36.6500   11.9730  -10.0590 O.2    21  GLY21      -0.2866
      5  N         32.8800   13.4780   -9.7940 N.3    23  ASP23      -0.1239
      6  CA        31.9500   14.5530   -9.9820 C.3    23  ASP23       0.1674
      7  C         31.0470   14.1220  -11.0980 C.2    23  ASP23       0.2266
      8  O         31.2250   14.5820  -12.2420 O.2    23  ASP23      -0.2867
      9  CB        32.7030   15.8370  -10.4330 C.3    23  ASP23       0.1410
     10  CG        33.5960   16.4820   -9.3120 C.2    23  ASP23       0.3668
     11  OD1       33.6230   16.0610   -8.1280 O.co2  23  ASP23      -0.2456
     12  OD2       34.2910   17.4680   -9.6180 O.co2  23  ASP23      -0.2456
     13  N         38.2130   12.7680   -4.0770 N.3   102  LYS102     -0.1245
     14  CA        37.5660   14.0410   -3.8130 C.3   102  LYS102      0.1561
     15  C         36.2290   14.1050   -4.5090 C.2   102  LYS102      0.2260
     16  O         36.1710   14.1250   -5.7550 O.2   102  LYS102     -0.2867
     17  CB        38.4420   15.2180   -4.2650 C.3   102  LYS102      0.0271
     18  CG        37.8170   16.6070   -4.0290 C.3   102  LYS102      0.0035
     19  CD        38.8440   17.7510   -4.2680 C.3   102  LYS102      0.0206
     20  CE        39.0630   18.1050   -5.7630 C.3   102  LYS102      0.1093
     21  NZ        37.8480   18.7020   -6.4170 N.3   102  LYS102     -0.1314
     22  N         41.3080   27.6050   -9.9170 N.3   195  THR195     -0.1203
     23  CA        41.6320   27.4780  -11.3280 C.3   195  THR195      0.1994
     24  C         40.6640   28.2060  -12.3040 C.2   195  THR195      0.2618
     25  O         40.7930   28.0740  -13.5280 O.2   195  THR195     -0.2717
     26  CB        41.6180   26.0160  -11.6640 C.3   195  THR195      0.1784
     27  OG1       40.3000   25.5170  -11.4080 O.3   195  THR195     -0.2211
     28  CG2       42.5770   25.2830  -10.7680 C.3   195  THR195      0.0376
     29  N         39.6960   28.9600  -11.7920 N.am  196  ASN196     -0.1960
     30  CA        38.7580   29.6560  -12.7180 C.3   196  ASN196      0.1804
     31  C         39.5460   30.7310  -13.4300 C.2   196  ASN196      0.2463
     32  O         40.5270   31.2790  -12.8630 O.2   196  ASN196     -0.2730
     33  CB        37.5040   30.2330  -12.0260 C.3   196  ASN196      0.1195
     34  CG        37.8180   30.9050  -10.6850 C.2   196  ASN196      0.2630
     35  OD1       37.6240   32.0970  -10.5180 O.2   196  ASN196     -0.2716
     36  ND2       38.2940   30.1350   -9.7340 N.am  196  ASN196     -0.0877
     37  N         39.1850   30.9990  -14.6870 N.am  197  PRO197     -0.2727
     38  CA        40.0670   31.9330  -15.4290 C.3   197  PRO197      0.1402
     39  C         40.1630   33.3540  -14.8300 C.2   197  PRO197      0.2269
     40  O         41.1730   34.0320  -15.0400 O.2   197  PRO197     -0.2865
     41  CB        39.4760   31.9410  -16.8420 C.3   197  PRO197      0.0296
     42  CG        38.5490   30.6780  -16.8920 C.3   197  PRO197      0.0237
     43  CD        38.0550   30.4910  -15.5120 C.3   197  PRO197      0.0939
     44  N         43.8890   21.1390   -7.9200 N.3   264  PRO264     -0.2102
     45  CA        42.9790   20.8620   -9.0590 C.3   264  PRO264      0.1504
     46  C         43.4430   21.5570  -10.3520 C.2   264  PRO264      0.2576
     47  O         44.0810   22.6080  -10.2980 O.2   264  PRO264     -0.2718
     48  CB        41.6380   21.4500   -8.5750 C.3   264  PRO264      0.0282
     49  CG        42.0580   22.6940   -7.7300 C.3   264  PRO264      0.0208
     50  CD        43.4160   22.2700   -7.0850 C.3   264  PRO264      0.0893
     51  N         43.1150   20.9960  -11.5080 N.am  265  GLY265     -0.1943
     52  CA        43.3960   21.6970  -12.7690 C.3   265  GLY265      0.2014
     53  C         44.0460   20.9170  -13.8950 C.2   265  GLY265      0.2638
     54  O         44.0890   21.3830  -15.0340 O.2   265  GLY265     -0.2714
     55  N         44.5350   19.7220  -13.5800 N.am  266  ILE266     -0.1977
     56  CA        45.1880   18.8410  -14.5650 C.3   266  ILE266      0.1596
     57  C         44.1750   17.9710  -15.3210 C.2   266  ILE266      0.2287
     58  O         43.4320   17.2070  -14.7130 O.2   266  ILE266     -0.2864
     59  CB        46.2340   17.9460  -13.8350 C.3   266  ILE266      0.0276
     60  CG1       47.4550   18.7880  -13.4260 C.3   266  ILE266      0.0022
     61  CG2       46.6340   16.7450  -14.6500 C.3   266  ILE266      0.0022
     62  CD1       47.7280   19.9410  -14.3650 C.3   266  ILE266      0.0001
     63  N         41.0810   18.3640  -17.7290 N.3   268  ALA268     -0.1231
     64  CA        40.0780   19.1900  -18.4050 C.3   268  ALA268      0.1694
     65  C         40.4140   20.6990  -18.3520 C.2   268  ALA268      0.2591
     66  O         39.8240   21.4940  -19.0830 O.2   268  ALA268     -0.2718
     67  CB        38.6480   18.8870  -17.8760 C.3   268  ALA268      0.0304
     68  N         41.3640   21.0880  -17.5000 N.am  269  GLN269     -0.1979
     69  CA        42.0680   22.3810  -17.6690 C.3   269  GLN269      0.1601
     70  C         43.4120   22.1280  -18.3350 C.2   269  GLN269      0.2287
     71  O         43.9370   22.9660  -19.0770 O.2   269  GLN269     -0.2864
     72  CB        42.3190   23.0630  -16.3200 C.3   269  GLN269      0.0394
     73  CG        43.2760   24.2900  -16.3470 C.3   269  GLN269      0.0908
     74  CD        42.5690   25.6090  -16.6670 C.2   269  GLN269      0.2608
     75  OE1       42.7290   26.6120  -15.9510 O.2   269  GLN269     -0.2717
     76  NE2       41.7860   25.6150  -17.7460 N.am  269  GLN269     -0.0878
     77  N         44.6830   16.6140   -8.0810 N.3   291  ASN291     -0.1225
     78  CA        43.3380   16.1850   -8.4270 C.3   291  ASN291      0.1785
     79  C         43.1100   16.0150   -9.9300 C.2   291  ASN291      0.2597
     80  O         43.3850   16.9290  -10.6940 O.2   291  ASN291     -0.2718
     81  CB        42.2500   17.0930   -7.8340 C.3   291  ASN291      0.1169
     82  CG        40.8470   16.5550   -8.1330 C.2   291  ASN291      0.2627
     83  OD1       40.3900   15.6220   -7.4750 O.2   291  ASN291     -0.2716
     84  ND2       40.1910   17.1020   -9.1510 N.am  291  ASN291     -0.0877
     85  N         42.6010   14.8400  -10.3240 N.am  292  ILE292     -0.1966
     86  CA        42.1040   14.5870  -11.6640 C.3   292  ILE292      0.1727
     87  C         40.7290   13.9120  -11.6430 C.2   292  ILE292      0.2617
     88  O         40.5870   12.7710  -11.2140 O.2   292  ILE292     -0.2715
     89  CB        43.1090   13.7260  -12.4790 C.3   292  ILE292      0.0290
     90  CG1       44.4390   14.4460  -12.6420 C.3   292  ILE292      0.0022
     91  CG2       42.5730   13.3520  -13.8490 C.3   292  ILE292      0.0023
     92  CD1       45.4930   13.4950  -13.0170 C.3   292  ILE292      0.0001
     93  N         39.7220   14.6020  -12.1620 N.am  293  GLY293     -0.1940
     94  CA        38.4030   14.0380  -12.1690 C.3   293  GLY293      0.2014
     95  C         37.9830   13.5510  -13.5320 C.2   293  GLY293      0.2639
     96  O         38.0300   12.3460  -13.8150 O.2   293  GLY293     -0.2714
     97  N         37.5650   14.4940  -14.3670 N.am  294  ARG294     -0.1963
     98  CA        36.8920   14.1700  -15.5970 C.3   294  ARG294      0.1729
     99  C         37.7890   13.4620  -16.6400 C.2   294  ARG294      0.2616
    100  O         37.2940   12.7300  -17.5060 O.2   294  ARG294     -0.2715
    101  CB        36.2820   15.4300  -16.2050 C.3   294  ARG294      0.0348
    102  CG        35.1020   15.9510  -15.4760 C.3   294  ARG294      0.0492
    103  CD        34.7290   17.2860  -16.0770 C.3   294  ARG294      0.2205
    104  NE        35.6810   18.3230  -15.6690 N.pl3 294  ARG294     -0.0865
    105  CZ        35.6030   19.6230  -15.9790 C.cat 294  ARG294      0.5346
    106  NH1       34.6290   20.1100  -16.7560 N.pl3 294  ARG294      0.1354
    107  NH2       36.5220   20.4630  -15.5060 N.pl3 294  ARG294      0.1354
    108  N         39.0910   13.6750  -16.5390 N.am  295  ALA295     -0.1977
    109  CA        40.0460   12.9590  -17.3970 C.3   295  ALA295      0.1597
    110  C         40.0740   11.4530  -17.1240 C.2   295  ALA295      0.2287
    111  O         40.5660   10.6580  -17.9550 O.2   295  ALA295     -0.2864
    112  CB        41.4150   13.5450  -17.2430 C.3   295  ALA295      0.0319
@<TRIPOS>BOND
     1    66    65    2
     2    71    70    2
     3    64    65    1
     4    64    67    1
     5    64    63    1
     6    65    68   am
     7    70    69    1
     8   111   110    2
     9    76    74   am
    10    69    68    1
    11    69    72    1
    12   100    99    2
    13   109   112    1
    14   109   110    1
    15   109   108    1
    16    42    41    1
    17    42    43    1
    18    41    38    1
    19   106   105    1
    20    74    73    1
    21    74    75    2
    22    99   108   am
    23    99    98    1
    24    73    72    1
    25   101    98    1
    26   101   102    1
    27   103   104    1
    28   103   102    1
    29   105   104    2
    30   105   107    1
    31    98    97    1
    32    43    37    1
    33    38    39    1
    34    38    37    1
    35    57    58    2
    36    57    56    1
    37    40    39    2
    38    54    53    2
    39    37    31   am
    40    61    59    1
    41    56    59    1
    42    56    55    1
    43    97    95   am
    44    62    60    1
    45    53    55   am
    46    53    52    1
    47    91    89    1
    48    59    60    1
    49    96    95    2
    50    95    94    1
    51    25    24    2
    52    31    32    2
    53    31    30    1
    54    92    90    1
    55    52    51    1
    56    30    33    1
    57    30    29    1
    58    90    89    1
    59    89    86    1
    60    24    29   am
    61    24    23    1
    62     8     7    2
    63    94    93    1
    64    93    87   am
    65    33    34    1
    66    26    27    1
    67    26    23    1
    68    26    28    1
    69    86    87    1
    70    86    85    1
    71    87    88    2
    72    51    46   am
    73    23    22    1
    74     7     6    1
    75    80    79    2
    76    34    35    2
    77    34    36   am
    78     9     6    1
    79     9    10    1
    80    46    47    2
    81    46    45    1
    82    85    79   am
    83     4     3    2
    84     6     5    1
    85    79    78    1
    86    12    10   ar
    87    10    11   ar
    88    84    82   am
    89    45    48    1
    90    45    44    1
    91     3     2    1
    92     1     2    1
    93    48    49    1
    94    78    77    1
    95    78    81    1
    96    82    81    1
    97    82    83    2
    98    44    50    1
    99    49    50    1
   100    21    20    1
   101    20    19    1
   102    16    15    2
   103    15    14    1
   104    19    18    1
   105    17    18    1
   106    17    14    1
   107    13    14    1
