@<TRIPOS>MOLECULE
tmp/3vi4A05.pdb
 120 116 0 0 0
SMALL
GASTEIGER

@<TRIPOS>ATOM
      1  N        -16.1610   -8.9640   -8.9830 N.3   189  GLN189     -0.1245
      2  CA       -16.6410   -7.6050   -9.2450 C.3   189  GLN189      0.1566
      3  C        -16.2780   -6.7290   -8.0490 C.2   189  GLN189      0.2260
      4  O        -15.8510   -5.5760   -8.2080 O.2   189  GLN189     -0.2867
      5  CB       -18.1630   -7.5790   -9.4790 C.3   189  GLN189      0.0367
      6  CG       -18.5720   -7.9380  -10.8950 C.3   189  GLN189      0.0905
      7  CD       -20.0780   -8.0100  -11.1070 C.2   189  GLN189      0.2608
      8  OE1      -20.8610   -7.2630  -10.4970 O.2   189  GLN189     -0.2717
      9  NE2      -20.4950   -8.9080  -11.9980 N.am  189  GLN189     -0.0878
     10  N        -23.9990   -3.0210   -2.4480 N.3   219  THR219     -0.1203
     11  CA       -23.8550   -2.7580   -3.8830 C.3   219  THR219      0.1994
     12  C        -24.3720   -3.9720   -4.6750 C.2   219  THR219      0.2618
     13  O        -24.1130   -5.1320   -4.3210 O.2   219  THR219     -0.2717
     14  CB       -22.4340   -2.3000   -4.3110 C.3   219  THR219      0.1784
     15  OG1      -21.4350   -3.1900   -3.7980 O.3   219  THR219     -0.2211
     16  CG2      -22.1620   -0.8940   -3.8050 C.3   219  THR219      0.0376
     17  N        -25.1540   -3.6800   -5.7080 N.am  220  ARG220     -0.1965
     18  CA       -25.8570   -4.6920   -6.4660 C.3   220  ARG220      0.1729
     19  C        -24.9130   -5.2670   -7.5060 C.2   220  ARG220      0.2616
     20  O        -24.0050   -4.5830   -7.9590 O.2   220  ARG220     -0.2715
     21  CB       -27.0760   -4.0550   -7.1300 C.3   220  ARG220      0.0348
     22  CG       -28.2600   -4.9890   -7.3170 C.3   220  ARG220      0.0492
     23  CD       -29.5830   -4.2500   -7.1650 C.3   220  ARG220      0.2205
     24  NE       -29.7480   -3.1740   -8.1480 N.pl3 220  ARG220     -0.0865
     25  CZ       -29.6770   -1.8710   -7.8740 C.cat 220  ARG220      0.5346
     26  NH1      -29.4460   -1.4470   -6.6340 N.pl3 220  ARG220      0.1354
     27  NH2      -29.8430   -0.9840   -8.8480 N.pl3 220  ARG220      0.1354
     28  N        -25.1220   -6.5290   -7.8670 N.am  221  GLN221     -0.1963
     29  CA       -24.3130   -7.1990   -8.8800 C.3   221  GLN221      0.1733
     30  C        -24.5360   -6.6430  -10.2910 C.2   221  GLN221      0.2616
     31  O        -25.6800   -6.4930  -10.7380 O.2   221  GLN221     -0.2715
     32  CB       -24.5920   -8.6990   -8.8720 C.3   221  GLN221      0.0408
     33  CG       -23.8590   -9.4610   -9.9620 C.3   221  GLN221      0.0908
     34  CD       -24.2700  -10.9120  -10.0450 C.2   221  GLN221      0.2608
     35  OE1      -23.7960  -11.6470  -10.9120 O.2   221  GLN221     -0.2717
     36  NE2      -25.1490  -11.3400   -9.1410 N.am  221  GLN221     -0.0878
     37  N        -23.4280   -6.3610  -10.9800 N.am  222  ALA222     -0.1963
     38  CA       -23.4530   -5.8420  -12.3440 C.3   222  ALA222      0.1728
     39  C        -23.2100   -6.9560  -13.3670 C.2   222  ALA222      0.2616
     40  O        -22.8740   -8.0850  -12.9980 O.2   222  ALA222     -0.2715
     41  CB       -22.4240   -4.7350  -12.4990 C.3   222  ALA222      0.0334
     42  N        -23.3890   -6.6320  -14.6500 N.am  223  SER223     -0.1950
     43  CA       -23.1790   -7.5860  -15.7420 C.3   223  SER223      0.1924
     44  C        -21.7160   -8.0140  -15.7990 C.2   223  SER223      0.2314
     45  O        -20.8450   -7.2950  -15.3140 O.2   223  SER223     -0.2863
     46  CB       -23.6050   -6.9760  -17.0770 C.3   223  SER223      0.2116
     47  OG       -22.6780   -5.9900  -17.5030 O.3   223  SER223     -0.2180
     48  N        -18.0610   -6.4760  -15.9200 N.3   226  TYR226     -0.1241
     49  CA       -17.4810   -5.8110  -14.7450 C.3   226  TYR226      0.1605
     50  C        -16.6800   -6.7440  -13.8430 C.2   226  TYR226      0.2264
     51  O        -16.0190   -6.2850  -12.8990 O.2   226  TYR226     -0.2867
     52  CB       -18.5630   -5.1130  -13.9240 C.3   226  TYR226      0.0534
     53  CG       -19.1410   -3.8950  -14.5900 C.ar  226  TYR226     -0.0201
     54  CD1      -18.4850   -2.6690  -14.5230 C.ar  226  TYR226     -0.0009
     55  CD2      -20.3440   -3.9660  -15.2950 C.ar  226  TYR226     -0.0009
     56  CE1      -19.0080   -1.5410  -15.1300 C.ar  226  TYR226      0.0417
     57  CE2      -20.8780   -2.8450  -15.9100 C.ar  226  TYR226      0.0417
     58  CZ       -20.2050   -1.6340  -15.8200 C.ar  226  TYR226      0.1957
     59  OH       -20.7240   -0.5090  -16.4270 O.3   226  TYR226     -0.2866
     60  N        -13.8290   -4.3500   -6.3410 N.3   231  LEU231     -0.1245
     61  CA       -14.4330   -3.2640   -5.5860 C.3   231  LEU231      0.1561
     62  C        -14.2870   -3.5740   -4.1100 C.2   231  LEU231      0.2260
     63  O        -14.5180   -4.6990   -3.6780 O.2   231  LEU231     -0.2867
     64  CB       -15.9140   -3.0870   -5.9530 C.3   231  LEU231      0.0270
     65  CG       -16.8250   -2.2480   -5.0460 C.3   231  LEU231      0.0019
     66  CD1      -16.3180   -0.8240   -4.9720 C.3   231  LEU231      0.0001
     67  CD2      -18.2670   -2.2720   -5.5340 C.3   231  LEU231      0.0001
     68  N        -10.0460    2.6950  -10.5230 N.3   261  TYR261     -0.1241
     69  CA       -10.8780    3.8280  -10.1120 C.3   261  TYR261      0.1605
     70  C        -11.2980    3.7580   -8.6460 C.2   261  TYR261      0.2264
     71  O        -11.3090    2.6900   -8.0410 O.2   261  TYR261     -0.2867
     72  CB       -12.0690    4.0790  -11.0460 C.3   261  TYR261      0.0534
     73  CG       -13.1640    3.0620  -11.0080 C.ar  261  TYR261     -0.0201
     74  CD1      -13.0810    1.9030  -11.7710 C.ar  261  TYR261     -0.0009
     75  CD2      -14.3140    3.2740  -10.2440 C.ar  261  TYR261     -0.0009
     76  CE1      -14.0990    0.9630  -11.7600 C.ar  261  TYR261      0.0417
     77  CE2      -15.3370    2.3390  -10.2240 C.ar  261  TYR261      0.0417
     78  CZ       -15.2210    1.1840  -10.9860 C.ar  261  TYR261      0.1957
     79  OH       -16.2160    0.2390  -10.9850 O.3   261  TYR261     -0.2866
     80  N        -14.4940    4.8640   -6.1120 N.3   263  THR263     -0.1218
     81  CA       -15.8880    5.2890   -6.0970 C.3   263  THR263      0.1862
     82  C        -16.1690    5.9420   -4.7750 C.2   263  THR263      0.2287
     83  O        -15.5400    5.6110   -3.7650 O.2   263  THR263     -0.2866
     84  CB       -16.8820    4.1190   -6.2270 C.3   263  THR263      0.1770
     85  OG1      -16.2940    3.0550   -6.9780 O.3   263  THR263     -0.2211
     86  CG2      -18.1620    4.5790   -6.9220 C.3   263  THR263      0.0375
     87  N        -24.1660    5.3030   -6.3740 N.3   272  SER272     -0.1202
     88  CA       -22.9410    5.9150   -6.8860 C.3   272  SER272      0.2020
     89  C        -23.0470    7.4410   -7.0310 C.2   272  SER272      0.2619
     90  O        -24.0310    7.9520   -7.5720 O.2   272  SER272     -0.2717
     91  CB       -22.5730    5.2780   -8.2280 C.3   272  SER272      0.2103
     92  OG       -21.2470    5.6070   -8.5940 O.3   272  SER272     -0.2182
     93  N        -22.0320    8.1540   -6.5400 N.am  273  LEU273     -0.1965
     94  CA       -21.9710    9.6100   -6.6520 C.3   273  LEU273      0.1728
     95  C        -20.7790   10.0730   -7.4730 C.2   273  LEU273      0.2616
     96  O        -20.9320   10.9090   -8.3570 O.2   273  LEU273     -0.2715
     97  CB       -21.8950   10.2650   -5.2760 C.3   273  LEU273      0.0311
     98  CG       -22.9750   10.0550   -4.2110 C.3   273  LEU273      0.0022
     99  CD1      -22.4580   10.5790   -2.8720 C.3   273  LEU273      0.0001
    100  CD2      -24.3090   10.7010   -4.5850 C.3   273  LEU273      0.0001
    101  N        -19.5960    9.5340   -7.1680 N.am  274  TYR274     -0.1960
    102  CA       -18.3380    9.9160   -7.8320 C.3   274  TYR274      0.1771
    103  C        -17.4980    8.7300   -8.3380 C.2   274  TYR274      0.2619
    104  O        -17.4610    7.6590   -7.7180 O.2   274  TYR274     -0.2715
    105  CB       -17.4660   10.7490   -6.8830 C.3   274  TYR274      0.0574
    106  CG       -17.9260   12.1720   -6.6610 C.ar  274  TYR274     -0.0198
    107  CD1      -17.3390   13.2280   -7.3560 C.ar  274  TYR274     -0.0009
    108  CD2      -18.9380   12.4660   -5.7400 C.ar  274  TYR274     -0.0009
    109  CE1      -17.7560   14.5320   -7.1500 C.ar  274  TYR274      0.0417
    110  CE2      -19.3600   13.7670   -5.5260 C.ar  274  TYR274      0.0417
    111  CZ       -18.7650   14.7940   -6.2310 C.ar  274  TYR274      0.1957
    112  OH       -19.1770   16.0880   -6.0210 O.3   274  TYR274     -0.2866
    113  N        -16.8220    8.9400   -9.4670 N.am  275  ASN275     -0.1972
    114  CA       -15.7530    8.0550   -9.9180 C.3   275  ASN275      0.1688
    115  C        -14.4910    8.8380  -10.2650 C.2   275  ASN275      0.2292
    116  O        -14.5540    9.8510  -10.9560 O.2   275  ASN275     -0.2864
    117  CB       -16.1810    7.2470  -11.1370 C.3   275  ASN275      0.1181
    118  CG       -17.1430    6.1280  -10.8010 C.2   275  ASN275      0.2629
    119  OD1      -17.0410    5.4740   -9.7600 O.2   275  ASN275     -0.2716
    120  ND2      -18.0900    5.9020  -11.6960 N.am  275  ASN275     -0.0877
@<TRIPOS>BOND
     1    47    46    1
     2    46    43    1
     3    59    58    1
     4    48    49    1
     5    57    58   ar
     6    57    55   ar
     7    58    56   ar
     8    44    43    1
     9    44    45    2
    10    43    42    1
    11    55    53   ar
    12    56    54   ar
    13    49    52    1
    14    49    50    1
    15    42    39   am
    16    53    54   ar
    17    53    52    1
    18    50    51    2
    19    39    40    2
    20    39    38    1
    21    41    38    1
    22    38    37    1
    23     9     7   am
    24    74    76   ar
    25    74    73   ar
    26    76    78   ar
    27   120   118   am
    28   117   118    1
    29   117   114    1
    30     7     6    1
    31     7     8    2
    32    72    73    1
    33    72    69    1
    34    73    75   ar
    35    78    79    1
    36    78    77   ar
    37    37    30   am
    38   116   115    2
    39    35    34    2
    40     6     5    1
    41   118   119    2
    42    31    30    2
    43    68    69    1
    44    30    29    1
    45   115   114    1
    46    75    77   ar
    47    69    70    1
    48    34    33    1
    49    34    36   am
    50    33    32    1
    51   114   113    1
    52     5     2    1
    53   113   103   am
    54     2     1    1
    55     2     3    1
    56    29    32    1
    57    29    28    1
    58    27    25    1
    59    70    71    2
    60    92    91    1
    61    96    95    2
    62   103   102    1
    63   103   104    2
    64    91    88    1
    65     4     3    2
    66    24    25    2
    67    24    23    1
    68    20    19    2
    69    25    26    1
    70    28    19   am
    71   102   101    1
    72   102   105    1
    73    90    89    2
    74    19    18    1
    75    95   101   am
    76    95    94    1
    77   107   109   ar
    78   107   106   ar
    79    22    23    1
    80    22    21    1
    81   109   111   ar
    82    21    18    1
    83    89    88    1
    84    89    93   am
    85    85    84    1
    86    86    84    1
    87    88    87    1
    88   105   106    1
    89   106   108   ar
    90    94    93    1
    91    94    97    1
    92    18    17    1
    93    60    61    1
    94   111   112    1
    95   111   110   ar
    96    84    81    1
    97    80    81    1
    98    81    82    1
    99    64    61    1
   100    64    65    1
   101   108   110   ar
   102    17    12   am
   103    61    62    1
   104    67    65    1
   105    97    98    1
   106    65    66    1
   107    82    83    2
   108    12    13    2
   109    12    11    1
   110   100    98    1
   111    14    11    1
   112    14    16    1
   113    14    15    1
   114    98    99    1
   115    62    63    2
   116    11    10    1
