@<TRIPOS>MOLECULE
tmp/3vi5D00.pdb
 138 132 0 0 0
SMALL
GASTEIGER

@<TRIPOS>ATOM
      1  N         14.0750   -2.3710   69.7950 N.3     7  TYR7       -0.1227
      2  CA        15.5140   -2.2640   69.4170 C.3     7  TYR7        0.1736
      3  C         16.2670   -3.4580   69.9860 C.2     7  TYR7        0.2595
      4  O         15.6470   -4.3250   70.5560 O.2     7  TYR7       -0.2718
      5  CB        16.1280   -0.9600   69.9730 C.3     7  TYR7        0.0548
      6  CG        17.4200   -0.5670   69.3260 C.ar    7  TYR7       -0.0200
      7  CD1       17.4860   -0.3340   67.9400 C.ar    7  TYR7       -0.0009
      8  CD2       18.6040   -0.4460   70.0890 C.ar    7  TYR7       -0.0009
      9  CE1       18.7260    0.0240   67.3120 C.ar    7  TYR7        0.0417
     10  CE2       19.8380   -0.1010   69.4380 C.ar    7  TYR7        0.0417
     11  CZ        19.8690    0.1330   68.0790 C.ar    7  TYR7        0.1957
     12  OH        21.0340    0.5180   67.4740 O.3     7  TYR7       -0.2866
     13  N         17.5950   -3.5580   69.7270 N.am    8  PHE8       -0.1976
     14  CA        18.4550   -4.6120   70.3380 C.3     8  PHE8        0.1639
     15  C         18.6530   -4.2580   71.7740 C.2     8  PHE8        0.2290
     16  O         18.3690   -3.0870   72.1540 O.2     8  PHE8       -0.2864
     17  CB        19.8330   -4.6380   69.6190 C.3     8  PHE8        0.0560
     18  CG        19.7410   -5.1720   68.1850 C.ar    8  PHE8       -0.0200
     19  CD1       20.0120   -4.3440   67.0770 C.ar    8  PHE8       -0.0042
     20  CD2       19.3000   -6.4600   67.9620 C.ar    8  PHE8       -0.0042
     21  CE1       19.8920   -4.8640   65.7660 C.ar    8  PHE8       -0.0003
     22  CE2       19.1050   -6.9710   66.6850 C.ar    8  PHE8       -0.0003
     23  CZ        19.4150   -6.2040   65.5800 C.ar    8  PHE8       -0.0000
     24  N         20.9230   -2.8620   73.4080 N.3    10  MET10      -0.1301
     25  CA        22.0760   -1.9870   73.2720 C.3    10  MET10       0.1256
     26  C         21.5860   -0.5670   73.4660 C.3    10  MET10       0.2010
     27  O         20.3420   -0.2540   73.3300 O.3    10  MET10      -0.2188
     28  CB        22.6280   -1.9730   71.8360 C.3    10  MET10       0.0333
     29  CG        22.9190   -3.2480   71.0800 C.3    10  MET10       0.0592
     30  SD        23.8710   -2.7690   69.5220 S.3    10  MET10      -0.1393
     31  CE        25.3100   -3.7000   69.9310 C.3    10  MET10       0.0692
     32  N         22.9870    2.0970   71.3690 N.3    12  GLY12      -0.1210
     33  CA        22.8800    2.3730   69.9420 C.3    12  GLY12       0.1956
     34  C         21.9530    3.5500   69.5820 C.2    12  GLY12       0.2611
     35  O         22.0030    4.6350   70.1830 O.2    12  GLY12      -0.2717
     36  N         21.1660    3.3500   68.5570 N.am   13  ARG13      -0.1979
     37  CA        20.4050    4.4110   67.9400 C.3    13  ARG13       0.1597
     38  C         19.0610    4.5670   68.6770 C.2    13  ARG13       0.2287
     39  O         18.2680    5.4230   68.3030 O.2    13  ARG13      -0.2864
     40  CB        20.1150    4.0010   66.4950 C.3    13  ARG13       0.0334
     41  CG        21.3620    4.0370   65.5220 C.3    13  ARG13       0.0492
     42  CD        20.8890    4.2240   64.0450 C.3    13  ARG13       0.2205
     43  NE        21.8820    5.0780   63.4760 N.pl3  13  ARG13      -0.0865
     44  CZ        21.7850    6.3870   63.2780 C.cat  13  ARG13       0.5346
     45  NH1       20.6550    7.0430   63.4660 N.pl3  13  ARG13       0.1354
     46  NH2       22.8600    7.0130   62.8310 N.pl3  13  ARG13       0.1354
     47  N         14.3840   -1.8400   59.2770 N.3    49  LYS49      -0.1245
     48  CA        15.2950   -1.2490   60.2790 C.3    49  LYS49       0.1561
     49  C         14.6390   -0.9100   61.6160 C.2    49  LYS49       0.2260
     50  O         13.4440   -0.4790   61.6850 O.2    49  LYS49      -0.2867
     51  CB        16.0010    0.0330   59.7490 C.3    49  LYS49       0.0271
     52  CG        16.8130   -0.0660   58.4420 C.3    49  LYS49       0.0035
     53  CD        17.9080   -1.2150   58.4550 C.3    49  LYS49       0.0206
     54  CE        18.3910   -1.5440   57.0120 C.3    49  LYS49       0.1093
     55  NZ        18.3100   -3.0270   56.6410 N.3    49  LYS49      -0.1314
     56  N         28.8220    9.5510   63.1530 N.3    98  MET98      -0.1230
     57  CA        28.5760    8.1970   63.6750 C.3    98  MET98       0.1702
     58  C         28.3100    7.2300   62.4900 C.2    98  MET98       0.2593
     59  O         28.7030    6.0460   62.5640 O.2    98  MET98      -0.2718
     60  CB        27.3760    8.1520   64.6340 C.3    98  MET98       0.0401
     61  CG        27.5800    9.0360   65.9000 C.3    98  MET98       0.0596
     62  SD        29.1710    8.6920   66.7620 S.3    98  MET98      -0.1393
     63  CE        28.7010    7.1300   67.6000 C.3    98  MET98       0.0692
     64  N         27.6800    7.7460   61.4170 N.am   99  SER99      -0.1952
     65  CA        27.3370    6.9340   60.2400 C.3    99  SER99       0.1924
     66  C         28.5680    6.5510   59.3710 C.2    99  SER99       0.2314
     67  O         28.4900    5.5810   58.5810 O.2    99  SER99      -0.2863
     68  CB        26.3160    7.6700   59.3510 C.3    99  SER99       0.2116
     69  OG        25.0890    7.7040   60.0400 O.3    99  SER99      -0.2180
     70  N         30.1420   -0.1910   61.0610 N.3   103  TRP103     -0.1227
     71  CA        29.5200   -0.9690   62.1540 C.3   103  TRP103      0.1737
     72  C         29.2610   -2.4540   61.7870 C.2   103  TRP103      0.2595
     73  O         29.2400   -3.3080   62.6720 O.2   103  TRP103     -0.2718
     74  CB        28.1680   -0.3710   62.5980 C.3   103  TRP103      0.0564
     75  CG        28.2430    1.0740   63.0830 C.ar  103  TRP103      0.0003
     76  CD1       27.8240    2.1910   62.4030 C.ar  103  TRP103      0.0946
     77  CD2       28.7640    1.5320   64.3320 C.ar  103  TRP103      0.0152
     78  NE1       28.0530    3.3150   63.1550 N.ar  103  TRP103     -0.2442
     79  CE2       28.6540    2.9400   64.3360 C.ar  103  TRP103      0.0810
     80  CE3       29.3350    0.8900   65.4370 C.ar  103  TRP103      0.0012
     81  CZ2       29.0730    3.7170   65.4180 C.ar  103  TRP103      0.0191
     82  CZ3       29.7720    1.6640   66.5020 C.ar  103  TRP103      0.0001
     83  CH2       29.6420    3.0620   66.4830 C.ar  103  TRP103      0.0015
     84  N         29.0540   -2.7430   60.5150 N.am  104  ALA104     -0.1980
     85  CA        28.6960   -4.1250   60.1220 C.3   104  ALA104      0.1597
     86  C         29.8290   -4.9040   59.3980 C.2   104  ALA104      0.2287
     87  O         29.5940   -5.9700   58.8060 O.2   104  ALA104     -0.2864
     88  CB        27.3890   -4.1260   59.2950 C.3   104  ALA104      0.0319
     89  N         37.8000   -3.8570   60.3080 N.3   111  LYS111     -0.1245
     90  CA        36.8600   -2.9960   61.0830 C.3   111  LYS111      0.1561
     91  C         37.6080   -2.1030   62.0950 C.2   111  LYS111      0.2260
     92  O         37.3550   -0.8960   62.1900 O.2   111  LYS111     -0.2867
     93  CB        35.8460   -3.8240   61.8370 C.3   111  LYS111      0.0271
     94  CG        34.5210   -3.1020   62.2060 C.3   111  LYS111      0.0035
     95  CD        33.8820   -3.8060   63.4290 C.3   111  LYS111      0.0206
     96  CE        32.3630   -3.5890   63.4990 C.3   111  LYS111      0.1093
     97  NZ        31.7330   -4.2860   64.6940 N.3   111  LYS111     -0.1314
     98  N         22.1670   14.1400   72.7290 N.3   151  TYR151     -0.1241
     99  CA        22.7320   13.3110   71.6690 C.3   151  TYR151      0.1605
    100  C         24.2810   13.4490   71.6930 C.2   151  TYR151      0.2264
    101  O         25.0230   12.5240   71.3550 O.2   151  TYR151     -0.2867
    102  CB        22.2310   13.7670   70.3230 C.3   151  TYR151      0.0534
    103  CG        22.3560   12.6620   69.2270 C.ar  151  TYR151     -0.0201
    104  CD1       21.8370   11.3690   69.4360 C.ar  151  TYR151     -0.0009
    105  CD2       22.9250   12.9390   67.9660 C.ar  151  TYR151     -0.0009
    106  CE1       21.9630   10.3460   68.4610 C.ar  151  TYR151      0.0417
    107  CE2       22.9950   11.9440   66.9690 C.ar  151  TYR151      0.0417
    108  CZ        22.4980   10.6450   67.2340 C.ar  151  TYR151      0.1957
    109  OH        22.5540    9.5910   66.2860 O.3   151  TYR151     -0.2866
    110  N         25.3480   11.0620   74.3570 N.3   154  ILE154     -0.1231
    111  CA        25.1620    9.6920   73.8750 C.3   154  ILE154      0.1692
    112  C         26.2590    9.2840   72.8710 C.2   154  ILE154      0.2592
    113  O         26.8930    8.2000   73.0290 O.2   154  ILE154     -0.2718
    114  CB        23.7220    9.5570   73.2710 C.3   154  ILE154      0.0266
    115  CG1       22.7470    9.5900   74.4480 C.3   154  ILE154      0.0019
    116  CG2       23.5430    8.2320   72.4350 C.3   154  ILE154      0.0020
    117  CD1       21.2140    9.6580   73.9070 C.3   154  ILE154      0.0001
    118  N         26.4560   10.1070   71.8350 N.am  155  CYS155     -0.1970
    119  CA        27.4540    9.8180   70.8280 C.3   155  CYS155      0.1712
    120  C         28.8860    9.8170   71.4170 C.2   155  CYS155      0.2296
    121  O         29.6400    8.9230   71.1150 O.2   155  CYS155     -0.2864
    122  CB        27.4150   10.8480   69.6780 C.3   155  CYS155      0.0983
    123  SG        25.9390   10.7240   68.6380 S.3   155  CYS155     -0.0798
    124  N         29.7560    6.5800   73.3380 N.3   158  THR158     -0.1218
    125  CA        30.1730    5.4310   72.5300 C.3   158  THR158      0.1862
    126  C         31.6190    5.5940   71.9170 C.2   158  THR158      0.2287
    127  O         32.4310    4.6150   71.9160 O.2   158  THR158     -0.2866
    128  CB        29.1480    5.2130   71.4510 C.3   158  THR158      0.1770
    129  OG1       27.9820    4.6700   72.1080 O.3   158  THR158     -0.2211
    130  CG2       29.6820    4.1940   70.3910 C.3   158  THR158      0.0375
    131  N         27.8090   -1.3080   73.6070 N.3   198  LEU198     -0.1245
    132  CA        27.3440   -0.2790   72.6740 C.3   198  LEU198      0.1561
    133  C         25.8590    0.1650   72.9880 C.2   198  LEU198      0.2260
    134  O         25.1800   -0.3820   73.8290 O.2   198  LEU198     -0.2867
    135  CB        27.4240   -0.8160   71.2250 C.3   198  LEU198      0.0270
    136  CG        28.8250   -1.3330   70.7450 C.3   198  LEU198      0.0019
    137  CD1       28.8230   -1.9470   69.3250 C.3   198  LEU198      0.0001
    138  CD2       29.8780   -0.2700   70.8070 C.3   198  LEU198      0.0001
@<TRIPOS>BOND
     1    55    54    1
     2    54    53    1
     3    52    53    1
     4    52    51    1
     5    67    66    2
     6    87    86    2
     7    47    48    1
     8    88    85    1
     9    68    69    1
    10    68    65    1
    11    66    65    1
    12    86    85    1
    13    51    48    1
    14    85    84    1
    15    65    64    1
    16    48    49    1
    17    89    90    1
    18    84    72   am
    19    70    71    1
    20    90    93    1
    21    90    91    1
    22    64    58   am
    23    49    50    2
    24    72    71    1
    25    72    73    2
    26    93    94    1
    27    91    92    2
    28    71    74    1
    29    94    95    1
    30    76    75   ar
    31    76    78   ar
    32    58    59    2
    33    58    57    1
    34    74    75    1
    35    46    44    1
    36    75    77   ar
    37    56    57    1
    38    78    79   ar
    39    44    45    1
    40    44    43    2
    41    95    96    1
    42    43    42    1
    43    96    97    1
    44    57    60    1
    45    42    41    1
    46    77    79   ar
    47    77    80   ar
    48    79    81   ar
    49    60    61    1
    50    81    83   ar
    51    80    82   ar
    52    41    40    1
    53    23    21   ar
    54    23    22   ar
    55    21    19   ar
    56    61    62    1
    57   109   108    1
    58    83    82   ar
    59    40    37    1
    60    22    20   ar
    61    62    63    1
    62   107   108   ar
    63   107   105   ar
    64    19    18   ar
    65   108   106   ar
    66     9     7   ar
    67     9    11   ar
    68    12    11    1
    69     7     6   ar
    70    37    36    1
    71    37    38    1
    72    20    18   ar
    73   105   103   ar
    74    11    10   ar
    75    18    17    1
    76    39    38    2
    77   106   104   ar
    78    36    34   am
    79   123   122    1
    80   103   104   ar
    81   103   102    1
    82   137   136    1
    83     6     5    1
    84     6     8   ar
    85     2     1    1
    86     2     5    1
    87     2     3    1
    88    10     8   ar
    89    30    31    1
    90    30    29    1
    91    34    33    1
    92    34    35    2
    93    17    14    1
    94   122   119    1
    95    13     3   am
    96    13    14    1
    97    33    32    1
    98     3     4    2
    99   102    99    1
   100    14    15    1
   101   130   128    1
   102   136   138    1
   103   136   135    1
   104   119   120    1
   105   119   118    1
   106    29    28    1
   107   121   120    2
   108   135   132    1
   109   101   100    2
   110   128   129    1
   111   128   125    1
   112    99   100    1
   113    99    98    1
   114    15    16    2
   115   118   112   am
   116    28    25    1
   117   127   126    2
   118   126   125    1
   119   116   114    1
   120   125   124    1
   121   132   133    1
   122   132   131    1
   123   112   113    2
   124   112   111    1
   125   133   134    2
   126   114   111    1
   127   114   115    1
   128    25    24    1
   129    25    26    1
   130    27    26    1
   131   111   110    1
   132   117   115    1
