@<TRIPOS>MOLECULE
tmp/3vi7B01.pdb
 222 215 0 0 0
SMALL
GASTEIGER

@<TRIPOS>ATOM
      1  N         -2.8000  -27.5850   10.8550 N.3     7  TYR7       -0.1227
      2  CA        -2.7750  -26.2190   11.3200 C.3     7  TYR7        0.1736
      3  C         -3.9310  -25.4550   10.7040 C.2     7  TYR7        0.2595
      4  O         -4.7380  -26.0200    9.9700 O.2     7  TYR7       -0.2718
      5  CB        -1.4390  -25.5390   10.9030 C.3     7  TYR7        0.0548
      6  CG        -1.1500  -24.2150   11.6180 C.ar    7  TYR7       -0.0200
      7  CD1       -1.0280  -24.1370   13.0090 C.ar    7  TYR7       -0.0009
      8  CD2       -0.9710  -23.0310   10.8840 C.ar    7  TYR7       -0.0009
      9  CE1       -0.7310  -22.8910   13.6580 C.ar    7  TYR7        0.0417
     10  CE2       -0.6900  -21.8430   11.5260 C.ar    7  TYR7        0.0417
     11  CZ        -0.5580  -21.7840   12.9010 C.ar    7  TYR7        0.1957
     12  OH        -0.2610  -20.5830   13.4930 O.3     7  TYR7       -0.2866
     13  N         -4.0320  -24.1620   11.0400 N.am    8  PHE8       -0.1976
     14  CA        -5.0010  -23.2990   10.3930 C.3     8  PHE8        0.1639
     15  C         -4.6000  -23.0380    8.9620 C.2     8  PHE8        0.2290
     16  O         -3.4360  -23.2690    8.5820 O.2     8  PHE8       -0.2864
     17  CB        -5.0650  -21.9170   11.0940 C.3     8  PHE8        0.0560
     18  CG        -5.6330  -22.0030   12.4830 C.ar    8  PHE8       -0.0200
     19  CD1       -4.8800  -21.6620   13.5810 C.ar    8  PHE8       -0.0042
     20  CD2       -6.9180  -22.5000   12.6780 C.ar    8  PHE8       -0.0042
     21  CE1       -5.4320  -21.8110   14.9040 C.ar    8  PHE8       -0.0003
     22  CE2       -7.4580  -22.6790   13.9770 C.ar    8  PHE8       -0.0003
     23  CZ        -6.7440  -22.2870   15.0570 C.ar    8  PHE8       -0.0000
     24  N         -3.1730  -20.7930    7.2850 N.3    10  MET10      -0.1230
     25  CA        -2.2830  -19.6080    7.3850 C.3    10  MET10       0.1702
     26  C         -0.8610  -20.1380    7.4920 C.2    10  MET10       0.2592
     27  O         -0.6550  -21.3580    7.7040 O.2    10  MET10      -0.2718
     28  CB        -2.6070  -18.6570    8.5660 C.3    10  MET10       0.0401
     29  CG        -2.6070  -19.1450    9.9320 C.3    10  MET10       0.0596
     30  SD        -3.0560  -17.7300   11.1650 S.3    10  MET10      -0.1393
     31  CE        -4.6420  -17.3230   10.5780 C.3    10  MET10       0.0692
     32  N          0.0860  -19.2430    7.2730 N.am   11  ARG11      -0.1966
     33  CA         1.5130  -19.5970    7.4010 C.3    11  ARG11       0.1729
     34  C          1.7340  -19.7950    8.8840 C.2    11  ARG11       0.2617
     35  O          2.0780  -20.8960    9.3440 O.2    11  ARG11      -0.2715
     36  CB         2.3770  -18.4040    6.8720 C.3    11  ARG11       0.0348
     37  CG         2.2200  -18.1240    5.3350 C.3    11  ARG11       0.0492
     38  CD         3.2750  -17.1160    4.7920 C.3    11  ARG11       0.2205
     39  NE         3.2600  -15.9070    5.5900 N.pl3  11  ARG11      -0.0865
     40  CZ         2.3500  -14.9190    5.4860 C.cat  11  ARG11       0.5346
     41  NH1        1.3610  -15.0070    4.6040 N.pl3  11  ARG11       0.1354
     42  NH2        2.4170  -13.8370    6.2970 N.pl3  11  ARG11       0.1354
     43  N          1.5250  -18.7230    9.6470 N.am   12  GLY12      -0.1940
     44  CA         1.7830  -18.7630   11.1350 C.3    12  GLY12       0.2014
     45  C          2.8820  -19.7150   11.5840 C.2    12  GLY12       0.2638
     46  O          4.0420  -19.6970   11.0450 O.2    12  GLY12      -0.2714
     47  N          2.5700  -20.5360   12.5830 N.am   13  ARG13      -0.1977
     48  CA         3.5880  -21.3330   13.2700 C.3    13  ARG13       0.1597
     49  C          3.8030  -22.6320   12.5310 C.2    13  ARG13       0.2287
     50  O          4.7300  -23.3810   12.8320 O.2    13  ARG13      -0.2864
     51  CB         3.1320  -21.6340   14.6860 C.3    13  ARG13       0.0334
     52  CG         3.0670  -20.3410   15.5690 C.3    13  ARG13       0.0492
     53  CD         3.0240  -20.7330   17.0880 C.3    13  ARG13       0.2205
     54  NE         4.1350  -19.9970   17.6120 N.pl3  13  ARG13      -0.0865
     55  CZ         5.3650  -20.4330   17.8640 C.cat  13  ARG13       0.5346
     56  NH1        5.7140  -21.6860   17.8440 N.pl3  13  ARG13       0.1354
     57  NH2        6.2410  -19.5640   18.1840 N.pl3  13  ARG13       0.1354
     58  N        -11.3910  -22.2420   11.3800 N.3    35  GLN35      -0.1245
     59  CA       -11.5100  -21.9210   12.7710 C.3    35  GLN35       0.1566
     60  C        -12.6510  -22.7240   13.4470 C.2    35  GLN35       0.2260
     61  O        -12.5010  -23.1760   14.5770 O.2    35  GLN35      -0.2867
     62  CB       -11.6500  -20.4040   12.9790 C.3    35  GLN35       0.0367
     63  CG       -11.3310  -19.9270   14.4140 C.3    35  GLN35       0.0905
     64  CD        -9.8190  -19.7800   14.7110 C.2    35  GLN35       0.2608
     65  OE1       -9.0060  -19.5730   13.8230 O.2    35  GLN35      -0.2717
     66  NE2       -9.4570  -19.8910   15.9830 N.am   35  GLN35      -0.0878
     67  N         11.7230  -16.3940   17.8260 N.3    95  ASP95      -0.1239
     68  CA        10.4430  -16.8500   18.3580 C.3    95  ASP95       0.1674
     69  C         10.0180  -16.0080   19.6100 C.2    95  ASP95       0.2266
     70  O          8.8300  -15.7020   19.7680 O.2    95  ASP95      -0.2867
     71  CB        10.5350  -18.3310   18.7760 C.3    95  ASP95       0.1410
     72  CG         9.1650  -18.9770   18.7910 C.2    95  ASP95       0.3668
     73  OD1        8.5350  -18.8590   17.7280 O.co2  95  ASP95      -0.2456
     74  OD2        8.7560  -19.5530   19.8190 O.co2  95  ASP95      -0.2456
     75  N          8.5770  -12.7560   18.1890 N.3    98  MET98      -0.1230
     76  CA         7.2670  -12.9970   17.6270 C.3    98  MET98       0.1702
     77  C          6.2290  -13.2320   18.7730 C.2    98  MET98       0.2593
     78  O          5.1100  -12.7580   18.6780 O.2    98  MET98      -0.2718
     79  CB         7.2230  -14.1940   16.6370 C.3    98  MET98       0.0401
     80  CG         8.1270  -14.0430   15.4210 C.3    98  MET98       0.0596
     81  SD         7.9270  -12.5050   14.5390 S.3    98  MET98      -0.1393
     82  CE         6.4170  -12.9000   13.7210 C.3    98  MET98       0.0692
     83  N          6.5850  -13.9920   19.8060 N.am   99  SER99      -0.1952
     84  CA         5.6370  -14.2490   20.9100 C.3    99  SER99       0.1924
     85  C          5.2520  -13.0160   21.7520 C.2    99  SER99       0.2314
     86  O          4.2920  -13.0450   22.4910 O.2    99  SER99      -0.2863
     87  CB         6.1590  -15.3990   21.8070 C.3    99  SER99       0.2116
     88  OG         6.3570  -16.5500   20.9370 O.3    99  SER99      -0.2180
     89  N          3.9620  -10.3280   20.4680 N.3   101  PHE101     -0.1241
     90  CA         2.8350   -9.6210   19.8100 C.3   101  PHE101      0.1605
     91  C          1.5070  -10.2230   20.2770 C.2   101  PHE101      0.2264
     92  O          1.3950  -11.4930   20.4290 O.2   101  PHE101     -0.2867
     93  CB         2.9360   -9.7490   18.2860 C.3   101  PHE101      0.0534
     94  CG         4.0250   -8.9260   17.7070 C.ar  101  PHE101     -0.0203
     95  CD1        5.3590   -9.4140   17.6560 C.ar  101  PHE101     -0.0042
     96  CD2        3.7390   -7.6560   17.2350 C.ar  101  PHE101     -0.0042
     97  CE1        6.3660   -8.6160   17.2140 C.ar  101  PHE101     -0.0003
     98  CE2        4.7220   -6.8630   16.6940 C.ar  101  PHE101     -0.0003
     99  CZ         6.0620   -7.3220   16.7160 C.ar  101  PHE101     -0.0000
    100  N         -1.2530  -11.6740   19.4220 N.3   103  TRP103     -0.1227
    101  CA        -1.9560  -12.1620   18.2280 C.3   103  TRP103      0.1737
    102  C         -3.4430  -12.3840   18.5060 C.2   103  TRP103      0.2595
    103  O         -4.2570  -12.1760   17.6330 O.2   103  TRP103     -0.2718
    104  CB        -1.3290  -13.4560   17.7130 C.3   103  TRP103      0.0564
    105  CG         0.1230  -13.2580   17.3630 C.ar  103  TRP103      0.0003
    106  CD1        1.1800  -13.5590   18.1240 C.ar  103  TRP103      0.0946
    107  CD2        0.6250  -12.6560   16.1860 C.ar  103  TRP103      0.0152
    108  NE1        2.3340  -13.2040   17.4930 N.ar  103  TRP103     -0.2442
    109  CE2        2.0210  -12.6340   16.2990 C.ar  103  TRP103      0.0810
    110  CE3        0.0200  -12.1120   15.0400 C.ar  103  TRP103      0.0012
    111  CZ2        2.8370  -12.1080   15.3170 C.ar  103  TRP103      0.0191
    112  CZ3        0.8290  -11.5840   14.0600 C.ar  103  TRP103      0.0001
    113  CH2        2.2200  -11.5930   14.1960 C.ar  103  TRP103      0.0015
    114  N         -3.7560  -12.7970   19.7390 N.am  104  ALA104     -0.1966
    115  CA        -5.0680  -13.3600   20.1180 C.3   104  ALA104      0.1728
    116  C         -6.0110  -12.2600   20.6350 C.2   104  ALA104      0.2616
    117  O         -7.2070  -12.4400   20.6100 O.2   104  ALA104     -0.2715
    118  CB        -4.8930  -14.4470   21.1500 C.3   104  ALA104      0.0334
    119  N         -5.4440  -11.1370   21.0860 N.am  105  GLU105     -0.1963
    120  CA        -6.1570   -9.9580   21.5830 C.3   105  GLU105      0.1733
    121  C         -7.3970   -9.5080   20.8100 C.2   105  GLU105      0.2616
    122  O         -7.3590   -9.1700   19.6050 O.2   105  GLU105     -0.2715
    123  CB        -5.1810   -8.7890   21.7270 C.3   105  GLU105      0.0429
    124  CG        -5.7580   -7.4890   22.1410 C.3   105  GLU105      0.1163
    125  CD        -6.5770   -7.5990   23.4230 C.2   105  GLU105      0.3649
    126  OE1       -6.0190   -7.8440   24.5010 O.co2 105  GLU105     -0.2457
    127  OE2       -7.7900   -7.4670   23.3240 O.co2 105  GLU105     -0.2457
    128  N         -8.5030   -9.4520   21.5470 N.am  106  LYS106     -0.1977
    129  CA        -9.8430   -9.2260   20.9460 C.3   106  LYS106      0.1596
    130  C        -10.1610   -7.7650   20.6170 C.2   106  LYS106      0.2287
    131  O        -10.7170   -7.4870   19.5720 O.2   106  LYS106     -0.2864
    132  CB       -10.9560   -9.9070   21.7810 C.3   106  LYS106      0.0298
    133  CG       -10.9970  -11.4440   21.6110 C.3   106  LYS106      0.0038
    134  CD       -12.1210  -12.0970   22.4540 C.3   106  LYS106      0.0206
    135  CE       -12.7990  -13.2230   21.7080 C.3   106  LYS106      0.1093
    136  NZ       -12.2030  -14.5800   21.9910 N.3   106  LYS106     -0.1314
    137  N         -9.4700   -4.6390   18.9190 N.3   108  GLN108     -0.1245
    138  CA        -8.6270   -4.2320   17.8000 C.3   108  GLN108      0.1566
    139  C         -7.7070   -2.9870   18.0210 C.2   108  GLN108      0.2260
    140  O         -6.5480   -2.9750   17.5920 O.2   108  GLN108     -0.2867
    141  CB        -9.4490   -4.1360   16.4860 C.3   108  GLN108      0.0367
    142  CG        -8.7360   -3.4090   15.3020 C.3   108  GLN108      0.0905
    143  CD        -7.6530   -4.2880   14.6280 C.2   108  GLN108      0.2608
    144  OE1       -7.5840   -5.5120   14.8560 O.2   108  GLN108     -0.2717
    145  NE2       -6.8090   -3.6570   13.7950 N.am  108  GLN108     -0.0878
    146  N         -4.8870   -4.0000   20.3670 N.3   111  LYS111     -0.1245
    147  CA        -4.0080   -4.9200   19.6370 C.3   111  LYS111      0.1561
    148  C         -3.1350   -4.0890   18.7250 C.2   111  LYS111      0.2260
    149  O         -1.9250   -4.2210   18.7530 O.2   111  LYS111     -0.2867
    150  CB        -4.8200   -5.9360   18.8420 C.3   111  LYS111      0.0271
    151  CG        -4.0020   -6.8310   17.9500 C.3   111  LYS111      0.0035
    152  CD        -4.9240   -7.8100   17.2420 C.3   111  LYS111      0.0206
    153  CE        -4.1020   -8.8650   16.5370 C.3   111  LYS111      0.1093
    154  NZ        -4.9370   -9.9640   15.9700 N.3   111  LYS111     -0.1314
    155  N         13.6270  -19.4620    9.0960 N.3   151  TYR151     -0.1241
    156  CA        12.7980  -18.8510   10.0960 C.3   151  TYR151      0.1605
    157  C         12.9080  -17.3460   10.0460 C.2   151  TYR151      0.2264
    158  O         11.9000  -16.6610   10.2230 O.2   151  TYR151     -0.2867
    159  CB        13.1370  -19.3930   11.4540 C.3   151  TYR151      0.0534
    160  CG        12.0000  -19.3370   12.4330 C.ar  151  TYR151     -0.0201
    161  CD1       10.7810  -19.9210   12.1210 C.ar  151  TYR151     -0.0009
    162  CD2       12.1220  -18.7090   13.6650 C.ar  151  TYR151     -0.0009
    163  CE1        9.6890  -19.8920   13.0330 C.ar  151  TYR151      0.0417
    164  CE2       11.0490  -18.7120   14.5910 C.ar  151  TYR151      0.0417
    165  CZ         9.8280  -19.3230   14.2540 C.ar  151  TYR151      0.1957
    166  OH         8.7140  -19.3430   15.1220 O.3   151  TYR151     -0.2866
    167  N         10.6780  -16.2820    7.2510 N.3   154  ILE154     -0.1231
    168  CA         9.2730  -16.4500    7.5780 C.3   154  ILE154      0.1692
    169  C          8.8030  -15.3720    8.5810 C.2   154  ILE154      0.2592
    170  O          7.7520  -14.7390    8.3810 O.2   154  ILE154     -0.2718
    171  CB         9.0450  -17.8780    8.1490 C.3   154  ILE154      0.0266
    172  CG1        9.0440  -18.8800    6.9640 C.3   154  ILE154      0.0019
    173  CG2        7.7580  -17.9640    8.9030 C.3   154  ILE154      0.0020
    174  CD1        9.1920  -20.4680    7.3820 C.3   154  ILE154      0.0001
    175  N          9.5860  -15.1430    9.6310 N.am  155  CYS155     -0.1970
    176  CA         9.2180  -14.1480   10.6690 C.3   155  CYS155      0.1712
    177  C          9.2320  -12.7640   10.0540 C.2   155  CYS155      0.2296
    178  O          8.3110  -11.9640   10.2910 O.2   155  CYS155     -0.2864
    179  CB        10.2420  -14.1540   11.8270 C.3   155  CYS155      0.0983
    180  SG        10.0570  -15.6760   12.8810 S.3   155  CYS155     -0.0798
    181  N          6.1170  -11.8130    7.9230 N.3   158  THR158     -0.1218
    182  CA         4.9430  -11.3900    8.6690 C.3   158  THR158      0.1862
    183  C          5.0920   -9.9990    9.2960 C.2   158  THR158      0.2287
    184  O          4.1470   -9.2010    9.1710 O.2   158  THR158     -0.2866
    185  CB         4.5890  -12.4520    9.6740 C.3   158  THR158      0.1770
    186  OG1        4.1170  -13.5710    8.9050 O.3   158  THR158     -0.2211
    187  CG2        3.4670  -11.9600   10.6550 C.3   158  THR158      0.0375
    188  N          3.1180   -5.5880    8.9030 N.3   162  PHE162     -0.1241
    189  CA         2.6700   -4.5490    9.8270 C.3   162  PHE162      0.1605
    190  C          3.6080   -3.3810    9.8920 C.2   162  PHE162      0.2264
    191  O          3.2150   -2.3610   10.4030 O.2   162  PHE162     -0.2867
    192  CB         2.5160   -5.1410   11.2050 C.3   162  PHE162      0.0534
    193  CG         1.5350   -6.2910   11.2360 C.ar  162  PHE162     -0.0203
    194  CD1        1.9930   -7.5960   11.1980 C.ar  162  PHE162     -0.0042
    195  CD2        0.1510   -6.0410   11.3160 C.ar  162  PHE162     -0.0042
    196  CE1        1.0620   -8.6870   11.2230 C.ar  162  PHE162     -0.0003
    197  CE2       -0.7890   -7.0960   11.3740 C.ar  162  PHE162     -0.0003
    198  CZ        -0.3320   -8.4420   11.3070 C.ar  162  PHE162     -0.0000
    199  N         -2.3480  -16.1030    2.2720 N.3   196  THR196     -0.1203
    200  CA        -3.0450  -15.7290    3.4520 C.3   196  THR196      0.1994
    201  C         -2.3320  -14.5440    4.0120 C.2   196  THR196      0.2618
    202  O         -1.1190  -14.3120    3.7420 O.2   196  THR196     -0.2717
    203  CB        -3.0710  -16.8630    4.5020 C.3   196  THR196      0.1784
    204  OG1       -1.7280  -17.2400    4.8160 O.3   196  THR196     -0.2211
    205  CG2       -3.8230  -18.0410    3.9190 C.3   196  THR196      0.0376
    206  N         -3.0470  -13.7730    4.7880 N.am  197  LYS197     -0.1965
    207  CA        -2.4430  -12.6110    5.4140 C.3   197  LYS197      0.1728
    208  C         -1.2820  -12.9970    6.3240 C.2   197  LYS197      0.2616
    209  O         -0.1510  -12.4910    6.1650 O.2   197  LYS197     -0.2715
    210  CB        -3.4390  -11.8140    6.2690 C.3   197  LYS197      0.0311
    211  CG        -2.8760  -10.4270    6.6500 C.3   197  LYS197      0.0038
    212  CD        -3.7160   -9.7660    7.7090 C.3   197  LYS197      0.0206
    213  CE        -3.2760   -8.2700    7.9310 C.3   197  LYS197      0.1093
    214  NZ        -4.1300   -7.5950    8.9600 N.3   197  LYS197     -0.1314
    215  N         -1.5430  -13.9310    7.2310 N.am  198  LEU198     -0.1977
    216  CA        -0.5820  -14.2990    8.1660 C.3   198  LEU198      0.1596
    217  C         -0.2100  -15.7830    7.9210 C.2   198  LEU198      0.2287
    218  O          0.5610  -16.2830    8.7470 O.2   198  LEU198     -0.2864
    219  CB        -1.1650  -14.1410    9.6020 C.3   198  LEU198      0.0297
    220  CG        -1.7450  -12.7540    9.9640 C.3   198  LEU198      0.0022
    221  CD1       -2.4240  -12.7640   11.3380 C.3   198  LEU198      0.0001
    222  CD2       -0.7370  -11.5930    9.8310 C.3   198  LEU198      0.0001
@<TRIPOS>BOND
     1   199   200    1
     2   200   201    1
     3   200   203    1
     4   202   201    2
     5   205   203    1
     6   201   206   am
     7   203   204    1
     8    41    40    1
     9   206   207    1
    10    38    37    1
    11    38    39    1
    12    37    36    1
    13   207   210    1
    14   207   208    1
    15    40    39    2
    16    40    42    1
    17   209   208    2
    18   210   211    1
    19   208   215   am
    20   211   212    1
    21    36    33    1
    22   172   174    1
    23   172   171    1
    24   215   216    1
    25   167   168    1
    26    32    33    1
    27    32    26   am
    28    24    25    1
    29    25    26    1
    30    25    28    1
    31    33    34    1
    32    26    27    2
    33   168   171    1
    34   168   169    1
    35   212   213    1
    36   217   216    1
    37   217   218    2
    38   181   182    1
    39   213   214    1
    40   171   173    1
    41   216   219    1
    42   170   169    2
    43    28    29    1
    44   169   175   am
    45    16    15    2
    46   182   183    1
    47   182   185    1
    48    34    35    2
    49    34    43   am
    50   188   189    1
    51   186   185    1
    52    15    14    1
    53   155   156    1
    54   184   183    2
    55   219   220    1
    56   175   176    1
    57    43    44    1
    58   185   187    1
    59   189   190    1
    60   189   192    1
    61   222   220    1
    62   190   191    2
    63    29    30    1
    64   220   221    1
    65     4     3    2
    66   157   156    1
    67   157   158    2
    68   177   178    2
    69   177   176    1
    70   156   159    1
    71    14    13    1
    72    14    17    1
    73    31    30    1
    74   176   179    1
    75     3    13   am
    76     3     2    1
    77     1     2    1
    78     8    10   ar
    79     8     6   ar
    80     5     2    1
    81     5     6    1
    82    46    45    2
    83    17    18    1
    84    44    45    1
    85   194   196   ar
    86   194   193   ar
    87   192   193    1
    88   196   198   ar
    89   193   195   ar
    90   198   197   ar
    91   195   197   ar
    92    58    59    1
    93   159   160    1
    94    10    11   ar
    95    45    47   am
    96     6     7   ar
    97   179   180    1
    98   161   160   ar
    99   161   163   ar
   100   160   162   ar
   101    18    20   ar
   102    18    19   ar
   103    49    50    2
   104    49    48    1
   105    47    48    1
   106    20    22   ar
   107    59    62    1
   108    59    60    1
   109    11    12    1
   110    11     9   ar
   111    62    63    1
   112     7     9   ar
   113   163   165   ar
   114    48    51    1
   115    60    61    2
   116    19    21   ar
   117   162   164   ar
   118    82    81    1
   119   145   143   am
   120    65    64    2
   121    22    23   ar
   122   112   113   ar
   123   112   110   ar
   124   113   111   ar
   125   165   164   ar
   126   165   166    1
   127    63    64    1
   128    81    80    1
   129   143   144    2
   130   143   142    1
   131    51    52    1
   132    64    66   am
   133    21    23   ar
   134   110   107   ar
   135   142   141    1
   136   111   109   ar
   137    80    79    1
   138    52    53    1
   139   154   153    1
   140   107   109   ar
   141   107   105   ar
   142   109   108   ar
   143   141   138    1
   144   153   152    1
   145    79    76    1
   146    98    99   ar
   147    98    96   ar
   148    99    97   ar
   149    53    54    1
   150    97    95   ar
   151    96    94   ar
   152   152   151    1
   153   105   104    1
   154   105   106   ar
   155   108   106   ar
   156   140   139    2
   157    54    55    2
   158    76    75    1
   159    76    77    1
   160   103   102    2
   161    95    94   ar
   162    94    93    1
   163   104   101    1
   164    73    72   ar
   165   138   139    1
   166   138   137    1
   167    67    68    1
   168    56    55    1
   169    55    57    1
   170   151   150    1
   171   101   102    1
   172   101   100    1
   173    93    90    1
   174    68    71    1
   175    68    69    1
   176   102   114   am
   177    78    77    2
   178   148   149    2
   179   148   147    1
   180    77    83   am
   181    71    72    1
   182    72    74   ar
   183   150   147    1
   184   131   130    2
   185   122   121    2
   186    69    70    2
   187   147   146    1
   188   114   115    1
   189    83    84    1
   190    90    91    1
   191    90    89    1
   192   115   116    1
   193   115   118    1
   194    91    92    2
   195   117   116    2
   196   130   129    1
   197   116   119   am
   198   121   128   am
   199   121   120    1
   200    84    85    1
   201    84    87    1
   202    88    87    1
   203   129   128    1
   204   129   132    1
   205   119   120    1
   206   120   123    1
   207   133   132    1
   208   133   134    1
   209   135   136    1
   210   135   134    1
   211   123   124    1
   212    85    86    2
   213   124   125    1
   214   127   125   ar
   215   125   126   ar
