@<TRIPOS>MOLECULE
tmp/3vibC00.pdb
 158 152 0 0 0
SMALL
GASTEIGER

@<TRIPOS>ATOM
      1  N         -2.5600   17.3640   19.5850 N.3    58  PHE58      -0.1241
      2  CA        -1.9780   16.5930   20.6710 C.3    58  PHE58       0.1605
      3  C         -2.9990   15.6110   21.2170 C.2    58  PHE58       0.2264
      4  O         -2.6830   14.4430   21.4310 O.2    58  PHE58      -0.2867
      5  CB        -1.4750   17.5060   21.8000 C.3    58  PHE58       0.0534
      6  CG        -0.1470   17.0800   22.3680 C.ar   58  PHE58      -0.0203
      7  CD1        0.0950   15.7420   22.6810 C.ar   58  PHE58      -0.0042
      8  CD2        0.8760   18.0040   22.5620 C.ar   58  PHE58      -0.0042
      9  CE1        1.3290   15.3330   23.1740 C.ar   58  PHE58      -0.0003
     10  CE2        2.1150   17.6030   23.0540 C.ar   58  PHE58      -0.0003
     11  CZ         2.3400   16.2640   23.3590 C.ar   58  PHE58      -0.0000
     12  N         -3.4810    6.6280   21.0200 N.3    65  ILE65      -0.1245
     13  CA        -2.7120    5.7270   21.8700 C.3    65  ILE65       0.1561
     14  C         -3.5900    5.0600   22.9220 C.2    65  ILE65       0.2260
     15  O         -3.4680    3.8600   23.1640 O.2    65  ILE65      -0.2867
     16  CB        -1.5560    6.4750   22.5670 C.3    65  ILE65       0.0252
     17  CG1       -0.5570    6.9710   21.5210 C.3    65  ILE65       0.0019
     18  CG2       -0.8610    5.5590   23.5400 C.3    65  ILE65       0.0019
     19  CD1        0.5690    7.8110   22.0780 C.3    65  ILE65       0.0001
     20  N          1.6700   -2.2380   29.3490 N.3    81  PHE81      -0.1241
     21  CA         2.6020   -1.1150   29.2000 C.3    81  PHE81       0.1605
     22  C          3.6600   -1.4900   28.1640 C.2    81  PHE81       0.2264
     23  O          3.9150   -0.7410   27.2210 O.2    81  PHE81      -0.2867
     24  CB         3.2950   -0.8080   30.5290 C.3    81  PHE81       0.0534
     25  CG         4.1690    0.4230   30.4990 C.ar   81  PHE81      -0.0203
     26  CD1        3.6470    1.6540   30.1130 C.ar   81  PHE81      -0.0042
     27  CD2        5.4930    0.3620   30.9210 C.ar   81  PHE81      -0.0042
     28  CE1        4.4250    2.8150   30.1570 C.ar   81  PHE81      -0.0003
     29  CE2        6.2840    1.5180   30.9690 C.ar   81  PHE81      -0.0003
     30  CZ         5.7470    2.7450   30.5880 C.ar   81  PHE81      -0.0000
     31  N          2.1230   -1.3280   24.9020 N.3    84  THR84      -0.1203
     32  CA         1.8190    0.0400   24.5160 C.3    84  THR84       0.1994
     33  C          3.0710    0.7830   24.0540 C.2    84  THR84       0.2617
     34  O          3.0050    1.5940   23.1330 O.2    84  THR84      -0.2717
     35  CB         1.1410    0.8050   25.6710 C.3    84  THR84       0.1784
     36  OG1       -0.0170    0.0800   26.1010 O.3    84  THR84      -0.2211
     37  CG2        0.6950    2.1810   25.2120 C.3    84  THR84       0.0376
     38  N          4.2140    0.4990   24.6730 N.am   85  LEU85      -0.1979
     39  CA         5.4580    1.1580   24.2730 C.3    85  LEU85       0.1596
     40  C          5.9120    0.6350   22.9150 C.2    85  LEU85       0.2287
     41  O          6.2790    1.4100   22.0330 O.2    85  LEU85      -0.2864
     42  CB         6.5640    0.9280   25.3130 C.3    85  LEU85       0.0297
     43  CG         6.3220    1.5130   26.7090 C.3    85  LEU85       0.0022
     44  CD1        7.5380    1.2290   27.5540 C.3    85  LEU85       0.0001
     45  CD2        6.0550    3.0070   26.6420 C.3    85  LEU85       0.0001
     46  N          3.7660    2.0400   20.3450 N.3    88  PHE88      -0.1241
     47  CA         4.0860    3.4420   20.1050 C.3    88  PHE88       0.1605
     48  C          5.1430    3.6670   19.0400 C.2    88  PHE88       0.2264
     49  O          4.9420    4.4670   18.1280 O.2    88  PHE88      -0.2867
     50  CB         4.5250    4.1210   21.3990 C.3    88  PHE88       0.0534
     51  CG         4.9660    5.5540   21.2120 C.ar   88  PHE88      -0.0203
     52  CD1        6.3080    5.8700   21.0500 C.ar   88  PHE88      -0.0042
     53  CD2        4.0300    6.5860   21.2010 C.ar   88  PHE88      -0.0042
     54  CE1        6.7160    7.1940   20.8820 C.ar   88  PHE88      -0.0003
     55  CE2        4.4250    7.9080   21.0340 C.ar   88  PHE88      -0.0003
     56  CZ         5.7720    8.2120   20.8760 C.ar   88  PHE88      -0.0000
     57  N          5.1550   14.0800   16.3420 N.3   102  HIS102     -0.1241
     58  CA         6.2910   13.9320   17.2360 C.3   102  HIS102      0.1621
     59  C          7.5330   14.5650   16.6310 C.2   102  HIS102      0.2264
     60  O          8.4020   15.0630   17.3360 O.2   102  HIS102     -0.2867
     61  CB         6.4960   12.4510   17.5710 C.3   102  HIS102      0.0745
     62  CG         5.3860   11.8750   18.4010 C.ar  102  HIS102      0.0817
     63  ND1        4.3210   11.1850   17.8590 N.ar  102  HIS102     -0.2268
     64  CD2        5.1510   11.9340   19.7370 C.ar  102  HIS102      0.1154
     65  CE1        3.4810   10.8440   18.8230 C.ar  102  HIS102      0.1986
     66  NE2        3.9610   11.2870   19.9730 N.ar  102  HIS102     -0.2212
     67  N          7.0280   18.0890   17.5400 N.3   105  LEU105     -0.1231
     68  CA         7.2610   18.2590   18.9710 C.3   105  LEU105      0.1693
     69  C          8.7410   18.3450   19.3250 C.2   105  LEU105      0.2592
     70  O          9.1740   19.2750   19.9900 O.2   105  LEU105     -0.2718
     71  CB         6.6450   17.1010   19.7500 C.3   105  LEU105      0.0284
     72  CG         5.5610   17.3980   20.7810 C.3   105  LEU105      0.0019
     73  CD1        5.5330   16.2390   21.7890 C.3   105  LEU105      0.0001
     74  CD2        5.8310   18.7160   21.4960 C.3   105  LEU105      0.0001
     75  N          9.5130   17.3620   18.8860 N.am  106  PHE106     -0.1976
     76  CA        10.9340   17.3270   19.1790 C.3   106  PHE106      0.1639
     77  C         11.8010   18.2670   18.3370 C.2   106  PHE106      0.2290
     78  O         12.7420   18.8590   18.8600 O.2   106  PHE106     -0.2864
     79  CB        11.4710   15.8870   19.0320 C.3   106  PHE106      0.0560
     80  CG        11.0880   14.9780   20.1670 C.ar  106  PHE106     -0.0200
     81  CD1        9.7820   14.5050   20.2960 C.ar  106  PHE106     -0.0042
     82  CD2       12.0140   14.6550   21.1530 C.ar  106  PHE106     -0.0042
     83  CE1        9.4120   13.7320   21.3930 C.ar  106  PHE106     -0.0003
     84  CE2       11.6520   13.8880   22.2460 C.ar  106  PHE106     -0.0003
     85  CZ        10.3480   13.4260   22.3690 C.ar  106  PHE106     -0.0000
     86  N          2.5410   16.8560   28.7490 N.3   126  GLN126     -0.1245
     87  CA         3.7420   16.2180   29.2670 C.3   126  GLN126      0.1566
     88  C          3.4560   15.8160   30.7210 C.2   126  GLN126      0.2260
     89  O          3.9590   14.8040   31.2210 O.2   126  GLN126     -0.2867
     90  CB         4.9360   17.1860   29.1650 C.3   126  GLN126      0.0367
     91  CG         5.8520   17.2410   30.3830 C.3   126  GLN126      0.0905
     92  CD         7.2280   17.8480   30.0770 C.2   126  GLN126      0.2608
     93  OE1        7.8340   18.5010   30.9330 O.2   126  GLN126     -0.2717
     94  NE2        7.7310   17.6120   28.8690 N.am  126  GLN126     -0.0878
     95  N          0.9800   12.6410   30.5960 N.3   129  TRP129     -0.1241
     96  CA         1.6990   11.4050   30.3040 C.3   129  TRP129      0.1605
     97  C          2.5300   10.9910   31.5110 C.2   129  TRP129      0.2264
     98  O          2.6320    9.8120   31.8320 O.2   129  TRP129     -0.2867
     99  CB         2.5830   11.5760   29.0620 C.3   129  TRP129      0.0550
    100  CG         1.8590   11.3430   27.7360 C.ar  129  TRP129      0.0003
    101  CD1        2.3930   11.4730   26.4760 C.ar  129  TRP129      0.0946
    102  CD2        0.5100   10.8700   27.5450 C.ar  129  TRP129      0.0152
    103  NE1        1.4690   11.1040   25.5240 N.ar  129  TRP129     -0.2442
    104  CE2        0.3090   10.7280   26.1510 C.ar  129  TRP129      0.0810
    105  CE3       -0.5410   10.5480   28.4120 C.ar  129  TRP129      0.0012
    106  CZ2       -0.9040   10.2790   25.6100 C.ar  129  TRP129      0.0191
    107  CZ3       -1.7430   10.1060   27.8690 C.ar  129  TRP129      0.0001
    108  CH2       -1.9120    9.9720   26.4820 C.ar  129  TRP129      0.0015
    109  N          0.3830    9.1780   33.8670 N.3   132  LYS132     -0.1231
    110  CA        -0.0370    7.8610   33.4230 C.3   132  LYS132      0.1693
    111  C          1.0830    6.8850   33.7910 C.2   132  LYS132      0.2591
    112  O          0.8290    5.7590   34.2260 O.2   132  LYS132     -0.2718
    113  CB        -0.2700    7.8260   31.9110 C.3   132  LYS132      0.0285
    114  CG        -1.5490    8.5070   31.4810 C.3   132  LYS132      0.0035
    115  CD        -2.1270    7.8550   30.2370 C.3   132  LYS132      0.0206
    116  CE        -3.4050    8.5550   29.8090 C.3   132  LYS132      0.1093
    117  NZ        -4.4150    8.6360   30.8950 N.3   132  LYS132     -0.1314
    118  N          2.3240    7.3250   33.6160 N.am  133  ILE133     -0.1980
    119  CA         3.4770    6.4950   33.9350 C.3   133  ILE133      0.1595
    120  C          3.4940    6.1770   35.4210 C.2   133  ILE133      0.2287
    121  O          3.6800    5.0250   35.8190 O.2   133  ILE133     -0.2864
    122  CB         4.8000    7.1970   33.5630 C.3   133  ILE133      0.0276
    123  CG1        4.8690    7.3770   32.0440 C.3   133  ILE133      0.0022
    124  CG2        5.9890    6.3700   34.0590 C.3   133  ILE133      0.0022
    125  CD1        6.0780    8.1610   31.5640 C.3   133  ILE133      0.0001
    126  N         10.8720    8.4160   31.0670 N.3   160  LYS160     -0.1245
    127  CA        10.7160    9.5090   30.1120 C.3   160  LYS160      0.1561
    128  C         12.0120    9.7920   29.3790 C.2   160  LYS160      0.2260
    129  O         12.0230    9.9650   28.1720 O.2   160  LYS160     -0.2867
    130  CB        10.2860   10.7890   30.8220 C.3   160  LYS160      0.0271
    131  CG         8.9000   10.7390   31.4020 C.3   160  LYS160      0.0035
    132  CD         8.5240   12.1190   31.8770 C.3   160  LYS160      0.0206
    133  CE         7.0260   12.2930   31.8800 C.3   160  LYS160      0.1093
    134  NZ         6.6880   13.7140   31.5970 N.3   160  LYS160     -0.1314
    135  N         12.6890    7.1000   26.6940 N.3   163  LEU163     -0.1231
    136  CA        11.8380    7.1690   25.5170 C.3   163  LEU163      0.1693
    137  C         12.1990    8.4040   24.7060 C.2   163  LEU163      0.2592
    138  O         12.3670    8.3100   23.4970 O.2   163  LEU163     -0.2718
    139  CB        10.3570    7.1700   25.9270 C.3   163  LEU163      0.0284
    140  CG        10.0060    6.0410   26.9250 C.3   163  LEU163      0.0019
    141  CD1        8.4940    6.0270   27.2130 C.3   163  LEU163      0.0001
    142  CD2       10.4680    4.6890   26.3760 C.3   163  LEU163      0.0001
    143  N         12.3300    9.5560   25.3660 N.am  164  ASP164     -0.1974
    144  CA        12.7260   10.7770   24.6770 C.3   164  ASP164      0.1709
    145  C         14.0210   10.5240   23.9350 C.2   164  ASP164      0.2293
    146  O         14.2030   10.9710   22.8140 O.2   164  ASP164     -0.2864
    147  CB        12.9700   11.9150   25.6640 C.3   164  ASP164      0.1436
    148  CG        11.6930   12.4220   26.2700 C.2   164  ASP164      0.3671
    149  OD1       10.6520   12.0130   25.7300 O.co2 164  ASP164     -0.2456
    150  OD2       11.7290   13.2070   27.2520 O.co2 164  ASP164     -0.2456
    151  N         13.3870    8.5920   20.6780 N.3   167  ILE167     -0.1245
    152  CA        12.7080    9.4650   19.7420 C.3   167  ILE167      0.1561
    153  C         13.6240   10.5680   19.2190 C.2   167  ILE167      0.2260
    154  O         13.7220   10.7780   18.0130 O.2   167  ILE167     -0.2867
    155  CB        11.4650   10.0890   20.3770 C.3   167  ILE167      0.0252
    156  CG1       10.5270    8.9800   20.8580 C.3   167  ILE167      0.0019
    157  CG2       10.7560   10.9820   19.3530 C.3   167  ILE167      0.0019
    158  CD1        9.3170    9.4860   21.6030 C.3   167  ILE167      0.0001
@<TRIPOS>BOND
     1    57    58    1
     2    59    58    1
     3    59    60    2
     4    58    61    1
     5    67    68    1
     6    61    62    1
     7    63    62   ar
     8    63    65   ar
     9   154   153    2
    10    49    48    2
    11    77    78    2
    12    77    76    1
    13    62    64   ar
    14    65    66   ar
    15    75    76    1
    16    75    69   am
    17    68    69    1
    18    68    71    1
    19    79    76    1
    20    79    80    1
    21    48    47    1
    22   153   152    1
    23    69    70    2
    24   157   155    1
    25     1     2    1
    26    64    66   ar
    27   152   155    1
    28   152   151    1
    29    71    72    1
    30    47    46    1
    31    47    50    1
    32    80    81   ar
    33    80    82   ar
    34    81    83   ar
    35   155   156    1
    36     2     3    1
    37     2     5    1
    38    72    74    1
    39    72    73    1
    40   156   158    1
    41    56    54   ar
    42    56    55   ar
    43    54    52   ar
    44    12    13    1
    45    55    53   ar
    46    52    51   ar
    47    82    84   ar
    48    53    51   ar
    49    51    50    1
    50     3     4    2
    51    83    85   ar
    52    17    19    1
    53    17    16    1
    54     5     6    1
    55    13    16    1
    56    13    14    1
    57    41    40    2
    58    84    85   ar
    59     6     8   ar
    60     6     7   ar
    61     8    10   ar
    62    16    18    1
    63     7     9   ar
    64   146   145    2
    65    40    39    1
    66    14    15    2
    67    10    11   ar
    68    34    33    2
    69     9    11   ar
    70   138   137    2
    71   145   144    1
    72    33    32    1
    73    33    38   am
    74    39    38    1
    75    39    42    1
    76    32    31    1
    77    32    35    1
    78   144   143    1
    79   144   147    1
    80   137   143   am
    81   137   136    1
    82    37    35    1
    83    42    43    1
    84   136   139    1
    85   136   135    1
    86   103   104   ar
    87   103   101   ar
    88   106   104   ar
    89   106   108   ar
    90   147   148    1
    91    35    36    1
    92   149   148   ar
    93   139   140    1
    94   104   102   ar
    95   148   150   ar
    96   142   140    1
    97   101   100   ar
    98   108   107   ar
    99    45    43    1
   100    43    44    1
   101   140   141    1
   102    23    22    2
   103   102   100   ar
   104   102   105   ar
   105   100    99    1
   106   107   105   ar
   107    22    21    1
   108   129   128    2
   109    86    87    1
   110    94    92   am
   111    99    96    1
   112    90    87    1
   113    90    91    1
   114    21    20    1
   115    21    24    1
   116    87    88    1
   117   128   127    1
   118   116   115    1
   119   116   117    1
   120    92    91    1
   121    92    93    2
   122   127   130    1
   123   127   126    1
   124    26    28   ar
   125    26    25   ar
   126    28    30   ar
   127   115   114    1
   128    96    95    1
   129    96    97    1
   130    25    24    1
   131    25    27   ar
   132    30    29   ar
   133    88    89    2
   134   130   131    1
   135    27    29   ar
   136   131   132    1
   137   114   113    1
   138    97    98    2
   139   125   123    1
   140   134   133    1
   141   132   133    1
   142   113   110    1
   143   123   122    1
   144   110   111    1
   145   110   109    1
   146   122   119    1
   147   122   124    1
   148   118   111   am
   149   118   119    1
   150   111   112    2
   151   119   120    1
   152   120   121    2
