@<TRIPOS>MOLECULE
tmp/3vidA00.pdb
 110 105 0 0 0
SMALL
GASTEIGER

@<TRIPOS>ATOM
      1  N          3.4740   21.5630  -32.4780 N.3    28  LEU28      -0.1231
      2  CA         2.6600   21.2970  -31.2960 C.3    28  LEU28       0.1693
      3  C          3.3570   20.3210  -30.3540 C.2    28  LEU28       0.2592
      4  O          3.1620   20.3820  -29.1450 O.2    28  LEU28      -0.2718
      5  CB         1.3090   20.7140  -31.7060 C.3    28  LEU28       0.0284
      6  CG         0.3380   21.6740  -32.3860 C.3    28  LEU28       0.0019
      7  CD1       -0.8220   20.8980  -32.9760 C.3    28  LEU28       0.0001
      8  CD2       -0.1440   22.7490  -31.4060 C.3    28  LEU28       0.0001
      9  N          4.1550   19.4170  -30.9150 N.am   29  GLY29      -0.1957
     10  CA         4.8240   18.3840  -30.1400 C.3    29  GLY29       0.1869
     11  C          6.0230   17.8060  -30.8640 C.2    29  GLY29       0.2309
     12  O          5.9770   17.5520  -32.0690 O.2    29  GLY29      -0.2863
     13  N          4.6160   16.6710  -34.5270 N.3    36  VAL36      -0.1245
     14  CA         3.2610   17.0420  -34.8980 C.3    36  VAL36       0.1561
     15  C          3.2520   18.5660  -35.0570 C.2    36  VAL36       0.2260
     16  O          3.5950   19.2920  -34.1310 O.2    36  VAL36      -0.2867
     17  CB         2.2290   16.5870  -33.8320 C.3    36  VAL36       0.0252
     18  CG1        0.8010   16.8990  -34.2770 C.3    36  VAL36       0.0019
     19  CG2        2.3770   15.0940  -33.5510 C.3    36  VAL36       0.0019
     20  N         -3.7870   18.8370  -37.4640 N.3    54  ALA54      -0.1245
     21  CA        -2.5120   18.4360  -36.8870 C.3    54  ALA54       0.1562
     22  C         -1.8000   17.5000  -37.8580 C.2    54  ALA54       0.2260
     23  O         -2.3900   16.5370  -38.3610 O.2    54  ALA54      -0.2867
     24  CB        -2.7360   17.7400  -35.5400 C.3    54  ALA54       0.0290
     25  N         -8.5020   10.3980  -31.7790 N.3    87  VAL87      -0.1245
     26  CA        -7.9160   11.3580  -32.6940 C.3    87  VAL87       0.1561
     27  C         -7.9660   10.7240  -34.0810 C.2    87  VAL87       0.2260
     28  O         -7.2210    9.8040  -34.3610 O.2    87  VAL87      -0.2867
     29  CB        -6.4530   11.6850  -32.3200 C.3    87  VAL87       0.0252
     30  CG1       -5.7860   12.4900  -33.4240 C.3    87  VAL87       0.0019
     31  CG2       -6.3880   12.4210  -30.9930 C.3    87  VAL87       0.0019
     32  N         -4.2320   14.5990  -39.0350 N.3   104  VAL104     -0.1231
     33  CA        -5.2300   14.1780  -38.0600 C.3   104  VAL104      0.1692
     34  C         -5.9490   15.3620  -37.4450 C.2   104  VAL104      0.2592
     35  O         -5.6010   16.5220  -37.7260 O.2   104  VAL104     -0.2718
     36  CB        -4.6130   13.2870  -36.9500 C.3   104  VAL104      0.0266
     37  CG1       -3.8680   12.1050  -37.5900 C.3   104  VAL104      0.0020
     38  CG2       -3.7050   14.0870  -36.0140 C.3   104  VAL104      0.0020
     39  N         -6.9620   15.0590  -36.6320 N.am  105  GLU105     -0.1966
     40  CA        -7.7400   16.0690  -35.9290 C.3   105  GLU105      0.1733
     41  C         -6.9050   16.8930  -34.9430 C.2   105  GLU105      0.2616
     42  O         -6.1530   16.3470  -34.1470 O.2   105  GLU105     -0.2715
     43  CB        -8.9190   15.4180  -35.1830 C.3   105  GLU105      0.0429
     44  CG        -9.9980   14.8380  -36.1070 C.3   105  GLU105      0.1163
     45  CD       -11.1920   14.2720  -35.3570 C.2   105  GLU105      0.3649
     46  OE1      -12.2970   14.8220  -35.5230 O.co2 105  GLU105     -0.2457
     47  OE2      -11.0330   13.2960  -34.5920 O.co2 105  GLU105     -0.2457
     48  N         -7.0460   18.2100  -35.0240 N.am  106  PHE106     -0.1960
     49  CA        -6.4790   19.1500  -34.0480 C.3   106  PHE106      0.1771
     50  C         -7.3920   19.2340  -32.8200 C.2   106  PHE106      0.2620
     51  O         -8.5990   19.3380  -32.9510 O.2   106  PHE106     -0.2715
     52  CB        -6.3350   20.5370  -34.6880 C.3   106  PHE106      0.0574
     53  CG        -5.7480   21.5890  -33.7720 C.ar  106  PHE106     -0.0200
     54  CD1       -4.4720   21.4360  -33.2420 C.ar  106  PHE106     -0.0042
     55  CD2       -6.4660   22.7460  -33.4690 C.ar  106  PHE106     -0.0042
     56  CE1       -3.9200   22.4080  -32.4220 C.ar  106  PHE106     -0.0003
     57  CE2       -5.9270   23.7240  -32.6360 C.ar  106  PHE106     -0.0003
     58  CZ        -4.6510   23.5550  -32.1140 C.ar  106  PHE106     -0.0000
     59  N         -6.7950   19.1490  -31.6380 N.am  107  CYS107     -0.1954
     60  CA        -7.4900   19.3240  -30.3650 C.3   107  CYS107      0.1843
     61  C         -6.8310   20.5330  -29.6850 C.2   107  CYS107      0.2625
     62  O         -5.6880   20.4660  -29.2210 O.2   107  CYS107     -0.2714
     63  CB        -7.3630   18.0720  -29.5190 C.3   107  CYS107      0.0997
     64  SG        -7.9520   16.5500  -30.3090 S.3   107  CYS107     -0.0797
     65  N         -7.5490   21.6450  -29.6730 N.am  108  LYS108     -0.1963
     66  CA        -6.9620   22.9430  -29.3580 C.3   108  LYS108      0.1728
     67  C         -6.5440   23.1460  -27.8980 C.2   108  LYS108      0.2616
     68  O         -5.6450   23.9300  -27.6230 O.2   108  LYS108     -0.2715
     69  CB        -7.9200   24.0650  -29.7800 C.3   108  LYS108      0.0311
     70  CG        -9.3080   23.9510  -29.1650 C.3   108  LYS108      0.0038
     71  CD        -9.9270   25.3190  -28.9170 C.3   108  LYS108      0.0206
     72  CE       -10.1140   26.1170  -30.1760 C.3   108  LYS108      0.1093
     73  NZ       -10.8640   27.3600  -29.8530 N.3   108  LYS108     -0.1314
     74  N         -7.1820   22.4410  -26.9730 N.am  109  PHE109     -0.1960
     75  CA        -6.9180   22.6490  -25.5450 C.3   109  PHE109      0.1771
     76  C         -5.8230   21.7530  -24.9890 C.2   109  PHE109      0.2620
     77  O         -5.4400   21.8920  -23.8260 O.2   109  PHE109     -0.2715
     78  CB        -8.2120   22.5210  -24.7450 C.3   109  PHE109      0.0574
     79  CG        -9.2090   23.5680  -25.0960 C.ar  109  PHE109     -0.0200
     80  CD1       -8.9740   24.8980  -24.7640 C.ar  109  PHE109     -0.0042
     81  CD2      -10.3480   23.2510  -25.8120 C.ar  109  PHE109     -0.0042
     82  CE1       -9.8820   25.8980  -25.1290 C.ar  109  PHE109     -0.0003
     83  CE2      -11.2580   24.2360  -26.1720 C.ar  109  PHE109     -0.0003
     84  CZ       -11.0290   25.5600  -25.8320 C.ar  109  PHE109     -0.0000
     85  N         -5.3120   20.8520  -25.8240 N.am  110  GLY110     -0.1940
     86  CA        -4.1920   20.0080  -25.4480 C.3   110  GLY110      0.2014
     87  C         -4.6150   18.8880  -24.5290 C.2   110  GLY110      0.2638
     88  O         -5.8100   18.6000  -24.4000 O.2   110  GLY110     -0.2714
     89  N         -3.6360   18.2710  -23.8720 N.am  111  ASN111     -0.1972
     90  CA        -3.8880   17.0380  -23.1330 C.3   111  ASN111      0.1688
     91  C         -4.7160   17.2430  -21.8520 C.2   111  ASN111      0.2292
     92  O         -4.7170   18.3280  -21.2530 O.2   111  ASN111     -0.2864
     93  CB        -2.5760   16.2880  -22.8590 C.3   111  ASN111      0.1181
     94  CG        -1.7680   16.9000  -21.7540 C.2   111  ASN111      0.2629
     95  OD1       -2.0700   16.7070  -20.5800 O.2   111  ASN111     -0.2716
     96  ND2       -0.7170   17.6230  -22.1130 N.am  111  ASN111     -0.0877
     97  N         -6.7080   13.9990  -25.4360 N.3   173  LEU173     -0.1245
     98  CA        -6.6920   15.3700  -25.9430 C.3   173  LEU173      0.1561
     99  C         -8.0930   15.9520  -25.8570 C.2   173  LEU173      0.2260
    100  O         -9.0780   15.2240  -25.9780 O.2   173  LEU173     -0.2867
    101  CB        -6.1530   15.4250  -27.3750 C.3   173  LEU173      0.0270
    102  CG        -4.6310   15.5550  -27.5280 C.3   173  LEU173      0.0019
    103  CD1       -3.8540   14.6730  -26.5780 C.3   173  LEU173      0.0001
    104  CD2       -4.2000   15.3000  -28.9660 C.3   173  LEU173      0.0001
    105  N         -5.4150    9.4680  -28.0990 N.3   183  CYS183     -0.1235
    106  CA        -4.3450    9.3590  -29.0820 C.3   183  CYS183      0.1677
    107  C         -3.2570    8.4390  -28.5600 C.2   183  CYS183      0.2270
    108  O         -3.2470    8.0840  -27.3840 O.2   183  CYS183     -0.2867
    109  CB        -3.7410   10.7330  -29.3600 C.3   183  CYS183      0.0956
    110  SG        -3.0090   11.5140  -27.9110 S.3   183  CYS183     -0.0801
@<TRIPOS>BOND
     1    32    33    1
     2    23    22    2
     3    33    34    1
     4    33    36    1
     5    22    21    1
     6    35    34    2
     7    37    36    1
     8    20    21    1
     9    34    39   am
    10    36    38    1
    11    21    24    1
    12    39    40    1
    13    44    45    1
    14    44    43    1
    15    40    43    1
    16    40    41    1
    17    46    45   ar
    18    45    47   ar
    19    15    14    1
    20    15    16    2
    21    48    41   am
    22    48    49    1
    23    41    42    2
    24    14    13    1
    25    14    17    1
    26    52    49    1
    27    52    53    1
    28    28    27    2
    29    18    17    1
    30    27    26    1
    31    49    50    1
    32    17    19    1
    33    53    55   ar
    34    53    54   ar
    35    55    57   ar
    36    30    29    1
    37    54    56   ar
    38     7     6    1
    39    51    50    2
    40    50    59   am
    41    26    29    1
    42    26    25    1
    43    57    58   ar
    44     1     2    1
    45    56    58   ar
    46     6     5    1
    47     6     8    1
    48    29    31    1
    49    12    11    2
    50     5     2    1
    51    59    60    1
    52     2     3    1
    53     9     3   am
    54     9    10    1
    55    11    10    1
    56    60    61    1
    57    60    63    1
    58     3     4    2
    59    64    63    1
    60    72    73    1
    61    72    71    1
    62    69    66    1
    63    69    70    1
    64    61    65   am
    65    61    62    2
    66    65    66    1
    67   109   106    1
    68   109   110    1
    69    66    67    1
    70    70    71    1
    71   106   107    1
    72   106   105    1
    73   104   102    1
    74   107   108    2
    75    67    68    2
    76    67    74   am
    77   102   101    1
    78   102   103    1
    79   101    98    1
    80    74    75    1
    81    83    84   ar
    82    83    81   ar
    83   100    99    2
    84    98    99    1
    85    98    97    1
    86    84    82   ar
    87    85    86    1
    88    85    76   am
    89    81    79   ar
    90    75    76    1
    91    75    78    1
    92    86    87    1
    93    82    80   ar
    94    79    80   ar
    95    79    78    1
    96    76    77    2
    97    87    88    2
    98    87    89   am
    99    89    90    1
   100    90    93    1
   101    90    91    1
   102    93    94    1
   103    96    94   am
   104    91    92    2
   105    94    95    2
