@<TRIPOS>MOLECULE
tmp/3vifA00.pdb
 133 135 0 0 0
SMALL
GASTEIGER

@<TRIPOS>ATOM
      1  N        -35.8040   77.9320   19.4600 N.3    20  GLN20      -0.1245
      2  CA       -34.6860   77.0480   19.7420 C.3    20  GLN20       0.1566
      3  C        -34.7960   76.3160   21.0780 C.2    20  GLN20       0.2260
      4  O        -34.1990   75.2440   21.2180 O.2    20  GLN20      -0.2867
      5  CB       -33.3470   77.7670   19.5940 C.3    20  GLN20       0.0367
      6  CG       -33.2320   78.4100   18.2180 C.3    20  GLN20       0.0905
      7  CD       -31.8700   79.0040   17.9480 C.2    20  GLN20       0.2608
      8  OE1      -31.6960   80.2270   18.0270 O.2    20  GLN20      -0.2717
      9  NE2      -30.8960   78.1530   17.6460 N.am   20  GLN20      -0.0878
     10  N        -37.0420   86.7260   16.5920 N.3   123  HIS123     -0.1226
     11  CA       -35.9110   85.8240   16.3350 C.3   123  HIS123      0.1752
     12  C        -36.3870   84.6530   15.4630 C.2   123  HIS123      0.2596
     13  O        -36.1670   83.4830   15.7800 O.2   123  HIS123     -0.2718
     14  CB       -35.2660   85.3800   17.6520 C.3   123  HIS123      0.0759
     15  CG       -33.8630   84.8790   17.5450 C.ar  123  HIS123      0.0818
     16  ND1      -32.8700   85.3190   18.3920 N.ar  123  HIS123     -0.2268
     17  CD2      -33.3170   83.9240   16.7540 C.ar  123  HIS123      0.1154
     18  CE1      -31.7710   84.6290   18.1340 C.ar  123  HIS123      0.1986
     19  NE2      -32.0080   83.7870   17.1400 N.ar  123  HIS123     -0.2212
     20  N        -37.0130   85.0070   14.3330 N.am  124  TRP124     -0.1976
     21  CA       -37.1690   84.1590   13.1360 C.3   124  TRP124      0.1640
     22  C        -38.4870   83.3910   13.0540 C.2   124  TRP124      0.2290
     23  O        -38.7410   82.7390   12.0360 O.2   124  TRP124     -0.2864
     24  CB       -35.9960   83.2100   12.8810 C.3   124  TRP124      0.0576
     25  CG       -34.6490   83.8570   12.8440 C.ar  124  TRP124      0.0006
     26  CD1      -34.3200   85.1890   12.9380 C.ar  124  TRP124      0.0946
     27  CD2      -33.4310   83.1520   12.6600 C.ar  124  TRP124      0.0152
     28  NE1      -32.9500   85.3300   12.8510 N.ar  124  TRP124     -0.2442
     29  CE2      -32.3820   84.0930   12.6670 C.ar  124  TRP124      0.0810
     30  CE3      -33.1310   81.7950   12.4950 C.ar  124  TRP124      0.0012
     31  CZ2      -31.0390   83.7150   12.5170 C.ar  124  TRP124      0.0191
     32  CZ3      -31.8080   81.4200   12.3320 C.ar  124  TRP124      0.0001
     33  CH2      -30.7770   82.3750   12.3450 C.ar  124  TRP124      0.0015
     34  N        -33.5040   90.0030   15.3420 N.3   167  ASN167     -0.1225
     35  CA       -32.2510   89.2750   15.3270 C.3   167  ASN167      0.1785
     36  C        -31.8910   88.8490   13.9130 C.2   167  ASN167      0.2597
     37  O        -32.6500   88.1270   13.2560 O.2   167  ASN167     -0.2718
     38  CB       -32.3620   88.0140   16.1880 C.3   167  ASN167      0.1169
     39  CG       -31.0810   87.2170   16.1590 C.2   167  ASN167      0.2627
     40  OD1      -30.0960   87.6110   16.7770 O.2   167  ASN167     -0.2716
     41  ND2      -31.0600   86.1260   15.3910 N.am  167  ASN167     -0.0877
     42  N        -30.7140   89.2890   13.4710 N.am  168  GLU168     -0.1979
     43  CA       -30.1130   88.8300   12.2180 C.3   168  GLU168      0.1602
     44  C        -31.0550   88.8210   11.0180 C.2   168  GLU168      0.2287
     45  O        -31.2160   87.7930   10.3600 O.2   168  GLU168     -0.2864
     46  CB       -29.5030   87.4360   12.3670 C.3   168  GLU168      0.0415
     47  CG       -28.4190   87.3650   13.4090 C.3   168  GLU168      0.1163
     48  CD       -27.5500   86.1570   13.2470 C.2   168  GLU168      0.3649
     49  OE1      -27.7970   85.2640   12.4130 O.co2 168  GLU168     -0.2457
     50  OE2      -26.5630   86.1020   13.9950 O.co2 168  GLU168     -0.2457
     51  N        -19.2600   85.7530   15.0360 N.3   312  TYR312     -0.1241
     52  CA       -18.8070   84.3730   15.1330 C.3   312  TYR312      0.1605
     53  C        -17.4910   84.0790   14.4100 C.2   312  TYR312      0.2264
     54  O        -16.7550   83.1970   14.8720 O.2   312  TYR312     -0.2867
     55  CB       -19.8600   83.4350   14.5370 C.3   312  TYR312      0.0534
     56  CG       -21.0610   83.2690   15.4170 C.ar  312  TYR312     -0.0201
     57  CD1      -22.1810   84.0830   15.2820 C.ar  312  TYR312     -0.0009
     58  CD2      -21.0670   82.3100   16.4270 C.ar  312  TYR312     -0.0009
     59  CE1      -23.2820   83.9300   16.1230 C.ar  312  TYR312      0.0417
     60  CE2      -22.1500   82.1480   17.2670 C.ar  312  TYR312      0.0417
     61  CZ       -23.2620   82.9470   17.1050 C.ar  312  TYR312      0.1957
     62  OH       -24.3030   82.7240   17.9730 O.3   312  TYR312     -0.2866
     63  N        -19.6180   76.7490    8.3920 N.3   349  TRP349     -0.1241
     64  CA       -19.4690   78.1750    8.1880 C.3   349  TRP349      0.1605
     65  C        -18.6010   78.8480    9.2530 C.2   349  TRP349      0.2264
     66  O        -18.2050   80.0040    9.0840 O.2   349  TRP349     -0.2867
     67  CB       -20.8520   78.8200    8.1350 C.3   349  TRP349      0.0550
     68  CG       -21.6620   78.6030    9.3880 C.ar  349  TRP349      0.0003
     69  CD1      -22.5400   77.5870    9.6410 C.ar  349  TRP349      0.0946
     70  CD2      -21.6730   79.4300   10.5630 C.ar  349  TRP349      0.0152
     71  NE1      -23.0820   77.7170   10.9010 N.ar  349  TRP349     -0.2442
     72  CE2      -22.5650   78.8380   11.4860 C.ar  349  TRP349      0.0810
     73  CE3      -21.0260   80.6210   10.9240 C.ar  349  TRP349      0.0012
     74  CZ2      -22.8270   79.3910   12.7380 C.ar  349  TRP349      0.0191
     75  CZ3      -21.2810   81.1590   12.1820 C.ar  349  TRP349      0.0001
     76  CH2      -22.1750   80.5490   13.0680 C.ar  349  TRP349      0.0015
     77  N        -24.5220   87.9380   20.6080 N.3   377  GLU377     -0.1245
     78  CA       -24.1500   86.5330   20.4340 C.3   377  GLU377      0.1567
     79  C        -22.6800   86.4240   20.0910 C.2   377  GLU377      0.2260
     80  O        -22.1510   87.2000   19.2980 O.2   377  GLU377     -0.2867
     81  CB       -24.9110   85.8200   19.3040 C.3   377  GLU377      0.0388
     82  CG       -26.3970   85.7550   19.5240 C.3   377  GLU377      0.1160
     83  CD       -27.1540   84.9220   18.5060 C.2   377  GLU377      0.3649
     84  OE1      -26.5480   84.0780   17.8090 O.co2 377  GLU377     -0.2457
     85  OE2      -28.3900   85.1210   18.4210 O.co2 377  GLU377     -0.2457
     86  N        -23.6310   82.9880   23.1540 N.3   419  TRP419     -0.1241
     87  CA       -24.5460   82.0460   22.5040 C.3   419  TRP419      0.1605
     88  C        -23.9770   80.6410   22.6730 C.2   419  TRP419      0.2264
     89  O        -22.9100   80.3730   22.1080 O.2   419  TRP419     -0.2867
     90  CB       -24.7110   82.3260   20.9960 C.3   419  TRP419      0.0550
     91  CG       -25.7410   81.3860   20.4630 C.ar  419  TRP419      0.0003
     92  CD1      -25.5430   80.1550   19.9090 C.ar  419  TRP419      0.0946
     93  CD2      -27.1570   81.5660   20.5540 C.ar  419  TRP419      0.0152
     94  NE1      -26.7540   79.5600   19.6410 N.ar  419  TRP419     -0.2442
     95  CE2      -27.7630   80.4040   20.0270 C.ar  419  TRP419      0.0810
     96  CE3      -27.9730   82.6100   21.0120 C.ar  419  TRP419      0.0012
     97  CZ2      -29.1490   80.2570   19.9420 C.ar  419  TRP419      0.0191
     98  CZ3      -29.3520   82.4640   20.9310 C.ar  419  TRP419      0.0001
     99  CH2      -29.9280   81.2950   20.3960 C.ar  419  TRP419      0.0015
    100  N        -30.7010   73.8910   16.6770 N.3   426  GLU426     -0.1231
    101  CA       -29.8510   74.6970   15.8070 C.3   426  GLU426      0.1699
    102  C        -30.3960   74.7230   14.3720 C.2   426  GLU426      0.2592
    103  O        -29.7230   74.3680   13.4000 O.2   426  GLU426     -0.2718
    104  CB       -28.3950   74.2150   15.9360 C.3   426  GLU426      0.0402
    105  CG       -27.3760   74.9410   15.0690 C.3   426  GLU426      0.1161
    106  CD       -27.3400   76.4570   15.2010 C.2   426  GLU426      0.3649
    107  OE1      -27.7510   77.0170   16.2450 O.co2 426  GLU426     -0.2457
    108  OE2      -26.8470   77.0920   14.2380 O.co2 426  GLU426     -0.2457
    109  N        -31.6540   75.1540   14.2670 N.am  427  TRP427     -0.1976
    110  CA       -32.2570   75.4390   12.9700 C.3   427  TRP427      0.1640
    111  C        -32.1320   74.2280   12.0310 C.2   427  TRP427      0.2290
    112  O        -32.5110   73.1190   12.4170 O.2   427  TRP427     -0.2864
    113  CB       -31.7390   76.7670   12.4030 C.3   427  TRP427      0.0576
    114  CG       -31.9030   77.8940   13.3900 C.ar  427  TRP427      0.0006
    115  CD1      -30.8820   78.5800   13.9920 C.ar  427  TRP427      0.0946
    116  CD2      -33.1260   78.4500   13.9070 C.ar  427  TRP427      0.0152
    117  NE1      -31.3910   79.5470   14.8150 N.ar  427  TRP427     -0.2442
    118  CE2      -32.7610   79.4910   14.7860 C.ar  427  TRP427      0.0810
    119  CE3      -34.4890   78.1890   13.6830 C.ar  427  TRP427      0.0012
    120  CZ2      -33.7070   80.2630   15.4570 C.ar  427  TRP427      0.0191
    121  CZ3      -35.4300   78.9670   14.3290 C.ar  427  TRP427      0.0001
    122  CH2      -35.0340   79.9970   15.2030 C.ar  427  TRP427      0.0015
    123  N        -24.1250   74.3240   20.6550 N.3   435  PHE435     -0.1241
    124  CA       -23.5750   75.6480   20.9550 C.3   435  PHE435      0.1605
    125  C        -23.6420   75.9980   22.4420 C.2   435  PHE435      0.2264
    126  O        -23.2350   77.0950   22.8300 O.2   435  PHE435     -0.2867
    127  CB       -24.3040   76.7480   20.1650 C.3   435  PHE435      0.0534
    128  CG       -23.8260   76.9250   18.7460 C.ar  435  PHE435     -0.0203
    129  CD1      -22.8030   77.8220   18.4620 C.ar  435  PHE435     -0.0042
    130  CD2      -24.3950   76.2180   17.6830 C.ar  435  PHE435     -0.0042
    131  CE1      -22.3560   78.0110   17.1620 C.ar  435  PHE435     -0.0003
    132  CE2      -23.9550   76.4000   16.3840 C.ar  435  PHE435     -0.0003
    133  CZ       -22.9290   77.3030   16.1150 C.ar  435  PHE435     -0.0000
@<TRIPOS>BOND
     1    67    64    1
     2    67    68    1
     3    64    63    1
     4    64    65    1
     5    66    65    2
     6    68    69   ar
     7    68    70   ar
     8    69    71   ar
     9    45    44    2
    10    70    73   ar
    11    70    72   ar
    12    71    72   ar
    13    73    75   ar
    14    44    43    1
    15    72    74   ar
    16   111   112    2
    17   111   110    1
    18    23    22    2
    19    75    76   ar
    20    43    46    1
    21    43    42    1
    22    32    33   ar
    23    32    30   ar
    24    33    31   ar
    25    46    47    1
    26   113   110    1
    27   113   114    1
    28    49    48   ar
    29    30    27   ar
    30    31    29   ar
    31    27    29   ar
    32    27    25   ar
    33    29    28   ar
    34    74    76   ar
    35    25    24    1
    36    25    26   ar
    37    28    26   ar
    38    24    21    1
    39   110   109    1
    40    22    21    1
    41    21    20    1
    42    48    47    1
    43    48    50   ar
    44    37    36    2
    45   114   116   ar
    46   114   115   ar
    47   103   102    2
    48    42    36   am
    49   119   116   ar
    50   119   121   ar
    51   116   118   ar
    52    36    35    1
    53   115   117   ar
    54   108   106   ar
    55   109   102   am
    56   121   122   ar
    57    20    12   am
    58   102   101    1
    59    53    54    2
    60    53    52    1
    61    55    52    1
    62    55    56    1
    63   118   117   ar
    64   118   120   ar
    65    51    52    1
    66   105   106    1
    67   105   104    1
    68   106   107   ar
    69   122   120   ar
    70    57    56   ar
    71    57    59   ar
    72    35    34    1
    73    35    38    1
    74    41    39   am
    75    56    58   ar
    76    12    13    2
    77    12    11    1
    78   101   104    1
    79   101   100    1
    80   133   132   ar
    81   133   131   ar
    82    59    61   ar
    83    39    38    1
    84    39    40    2
    85    11    10    1
    86    11    14    1
    87   132   130   ar
    88    58    60   ar
    89    17    19   ar
    90    17    15   ar
    91    61    60   ar
    92    61    62    1
    93    19    18   ar
    94   131   129   ar
    95    15    14    1
    96    15    16   ar
    97     9     7   am
    98   130   128   ar
    99    84    83   ar
   100     7     8    2
   101     7     6    1
   102    18    16   ar
   103     6     5    1
   104    85    83   ar
   105   129   128   ar
   106    83    82    1
   107   128   127    1
   108    80    79    2
   109    81    82    1
   110    81    78    1
   111     1     2    1
   112     5     2    1
   113    94    92   ar
   114    94    95   ar
   115     2     3    1
   116    92    91   ar
   117    97    95   ar
   118    97    99   ar
   119    95    93   ar
   120    79    78    1
   121   127   124    1
   122    99    98   ar
   123    78    77    1
   124    91    93   ar
   125    91    90    1
   126    93    96   ar
   127   123   124    1
   128    98    96   ar
   129   124   125    1
   130    90    87    1
   131     3     4    2
   132    89    88    2
   133   125   126    2
   134    87    88    1
   135    87    86    1
