@<TRIPOS>MOLECULE
tmp/3vifA01.pdb
 131 124 0 0 0
SMALL
GASTEIGER

@<TRIPOS>ATOM
      1  N        -37.0130   85.0070   14.3330 N.3   124  TRP124     -0.1241
      2  CA       -37.1690   84.1590   13.1360 C.3   124  TRP124      0.1605
      3  C        -38.4870   83.3910   13.0540 C.2   124  TRP124      0.2264
      4  O        -38.7410   82.7390   12.0360 O.2   124  TRP124     -0.2867
      5  CB       -35.9960   83.2100   12.8810 C.3   124  TRP124      0.0550
      6  CG       -34.6490   83.8570   12.8440 C.ar  124  TRP124      0.0003
      7  CD1      -34.3200   85.1890   12.9380 C.ar  124  TRP124      0.0946
      8  CD2      -33.4310   83.1520   12.6600 C.ar  124  TRP124      0.0152
      9  NE1      -32.9500   85.3300   12.8510 N.ar  124  TRP124     -0.2442
     10  CE2      -32.3820   84.0930   12.6670 C.ar  124  TRP124      0.0810
     11  CE3      -33.1310   81.7950   12.4950 C.ar  124  TRP124      0.0012
     12  CZ2      -31.0390   83.7150   12.5170 C.ar  124  TRP124      0.0191
     13  CZ3      -31.8080   81.4200   12.3320 C.ar  124  TRP124      0.0001
     14  CH2      -30.7770   82.3750   12.3450 C.ar  124  TRP124      0.0015
     15  N        -30.7140   89.2890   13.4710 N.3   168  GLU168     -0.1245
     16  CA       -30.1130   88.8300   12.2180 C.3   168  GLU168      0.1567
     17  C        -31.0550   88.8210   11.0180 C.2   168  GLU168      0.2260
     18  O        -31.2160   87.7930   10.3600 O.2   168  GLU168     -0.2867
     19  CB       -29.5030   87.4360   12.3670 C.3   168  GLU168      0.0388
     20  CG       -28.4190   87.3650   13.4090 C.3   168  GLU168      0.1160
     21  CD       -27.5500   86.1570   13.2470 C.2   168  GLU168      0.3649
     22  OE1      -27.7970   85.2640   12.4130 O.co2 168  GLU168     -0.2457
     23  OE2      -26.5630   86.1020   13.9950 O.co2 168  GLU168     -0.2457
     24  N        -29.5600   87.1280    8.0610 N.3   171  THR171     -0.1218
     25  CA       -29.8020   85.6910    7.9660 C.3   171  THR171      0.1862
     26  C        -31.2370   85.3830    7.5770 C.2   171  THR171      0.2287
     27  O        -31.4530   84.6270    6.6180 O.2   171  THR171     -0.2866
     28  CB       -29.4440   85.0010    9.2810 C.3   171  THR171      0.1770
     29  OG1      -28.0680   85.2600    9.5600 O.3   171  THR171     -0.2211
     30  CG2      -29.7030   83.5110    9.1740 C.3   171  THR171      0.0375
     31  N        -33.6020   78.2180    5.2300 N.3   182  MET182     -0.1245
     32  CA       -34.2580   78.8590    6.3760 C.3   182  MET182      0.1570
     33  C        -35.7300   79.0880    6.0710 C.2   182  MET182      0.2261
     34  O        -36.0380   79.5050    4.9420 O.2   182  MET182     -0.2867
     35  CB       -33.6050   80.2310    6.6480 C.3   182  MET182      0.0387
     36  CG       -32.1960   80.1970    7.2500 C.3   182  MET182      0.0595
     37  SD       -32.1760   79.4600    8.9020 S.3   182  MET182     -0.1393
     38  CE       -30.4430   79.5970    9.2990 C.3   182  MET182      0.0692
     39  N        -25.8710   90.5360   12.6060 N.3   228  ASN228     -0.1240
     40  CA       -24.6970   89.6860   12.4380 C.3   228  ASN228      0.1653
     41  C        -23.7490   90.2420   11.3440 C.2   228  ASN228      0.2266
     42  O        -24.1750   90.8600   10.3470 O.2   228  ASN228     -0.2867
     43  CB       -25.0600   88.2300   12.1400 C.3   228  ASN228      0.1155
     44  CG       -25.9550   88.1010   10.9510 C.2   228  ASN228      0.2627
     45  OD1      -26.9820   88.7820   10.8470 O.2   228  ASN228     -0.2716
     46  ND2      -25.5950   87.2000   10.0490 N.am  228  ASN228     -0.0877
     47  N        -19.7060   88.8860    9.6460 N.3   230  ASN230     -0.1240
     48  CA       -18.3900   88.2590    9.6440 C.3   230  ASN230      0.1653
     49  C        -17.3160   89.2850    9.3200 C.2   230  ASN230      0.2266
     50  O        -17.5130   90.1440    8.4550 O.2   230  ASN230     -0.2867
     51  CB       -18.3190   87.1780    8.5660 C.3   230  ASN230      0.1155
     52  CG       -19.3140   86.0450    8.7780 C.2   230  ASN230      0.2627
     53  OD1      -19.7240   85.7410    9.8930 O.2   230  ASN230     -0.2716
     54  ND2      -19.7130   85.4110    7.6820 N.am  230  ASN230     -0.0877
     55  N        -23.9640   90.2790   16.5710 N.3   310  ASN310     -0.1240
     56  CA       -23.6830   88.8550   16.6600 C.3   310  ASN310      0.1653
     57  C        -22.4340   88.5990   15.8440 C.2   310  ASN310      0.2266
     58  O        -22.4080   88.8630   14.6400 O.2   310  ASN310     -0.2867
     59  CB       -24.8400   88.0220   16.1070 C.3   310  ASN310      0.1155
     60  CG       -26.1090   88.1120   16.9250 C.2   310  ASN310      0.2627
     61  OD1      -26.1810   88.8320   17.9160 O.2   310  ASN310     -0.2716
     62  ND2      -27.1120   87.3570   16.5040 N.am  310  ASN310     -0.0877
     63  N        -19.2600   85.7530   15.0360 N.3   312  TYR312     -0.1241
     64  CA       -18.8070   84.3730   15.1330 C.3   312  TYR312      0.1605
     65  C        -17.4910   84.0790   14.4100 C.2   312  TYR312      0.2264
     66  O        -16.7550   83.1970   14.8720 O.2   312  TYR312     -0.2867
     67  CB       -19.8600   83.4350   14.5370 C.3   312  TYR312      0.0534
     68  CG       -21.0610   83.2690   15.4170 C.ar  312  TYR312     -0.0201
     69  CD1      -22.1810   84.0830   15.2820 C.ar  312  TYR312     -0.0009
     70  CD2      -21.0670   82.3100   16.4270 C.ar  312  TYR312     -0.0009
     71  CE1      -23.2820   83.9300   16.1230 C.ar  312  TYR312      0.0417
     72  CE2      -22.1500   82.1480   17.2670 C.ar  312  TYR312      0.0417
     73  CZ       -23.2620   82.9470   17.1050 C.ar  312  TYR312      0.1957
     74  OH       -24.3030   82.7240   17.9730 O.3   312  TYR312     -0.2866
     75  N        -19.9000   74.1380    9.3510 N.3   348  SER348     -0.1202
     76  CA       -19.1130   74.3960    8.1510 C.3   348  SER348      0.2020
     77  C        -18.7290   75.8620    7.9670 C.2   348  SER348      0.2618
     78  O        -17.6760   76.1840    7.4190 O.2   348  SER348     -0.2717
     79  CB       -19.8770   73.9070    6.9080 C.3   348  SER348      0.2103
     80  OG       -21.1450   74.5390    6.8110 O.3   348  SER348     -0.2182
     81  N        -19.6180   76.7490    8.3920 N.am  349  TRP349     -0.1975
     82  CA       -19.4690   78.1750    8.1880 C.3   349  TRP349      0.1640
     83  C        -18.6010   78.8480    9.2530 C.2   349  TRP349      0.2290
     84  O        -18.2050   80.0040    9.0840 O.2   349  TRP349     -0.2864
     85  CB       -20.8520   78.8200    8.1350 C.3   349  TRP349      0.0576
     86  CG       -21.6620   78.6030    9.3880 C.ar  349  TRP349      0.0006
     87  CD1      -22.5400   77.5870    9.6410 C.ar  349  TRP349      0.0946
     88  CD2      -21.6730   79.4300   10.5630 C.ar  349  TRP349      0.0152
     89  NE1      -23.0820   77.7170   10.9010 N.ar  349  TRP349     -0.2442
     90  CE2      -22.5650   78.8380   11.4860 C.ar  349  TRP349      0.0810
     91  CE3      -21.0260   80.6210   10.9240 C.ar  349  TRP349      0.0012
     92  CZ2      -22.8270   79.3910   12.7380 C.ar  349  TRP349      0.0191
     93  CZ3      -21.2810   81.1590   12.1820 C.ar  349  TRP349      0.0001
     94  CH2      -22.1750   80.5490   13.0680 C.ar  349  TRP349      0.0015
     95  N        -30.7010   73.8910   16.6770 N.3   426  GLU426     -0.1245
     96  CA       -29.8510   74.6970   15.8070 C.3   426  GLU426      0.1567
     97  C        -30.3960   74.7230   14.3720 C.2   426  GLU426      0.2260
     98  O        -29.7230   74.3680   13.4000 O.2   426  GLU426     -0.2867
     99  CB       -28.3950   74.2150   15.9360 C.3   426  GLU426      0.0388
    100  CG       -27.3760   74.9410   15.0690 C.3   426  GLU426      0.1160
    101  CD       -27.3400   76.4570   15.2010 C.2   426  GLU426      0.3649
    102  OE1      -27.7510   77.0170   16.2450 O.co2 426  GLU426     -0.2457
    103  OE2      -26.8470   77.0920   14.2380 O.co2 426  GLU426     -0.2457
    104  N        -31.6350   74.4210   10.8150 N.3   428  LEU428     -0.1231
    105  CA       -31.5820   73.3170    9.8600 C.3   428  LEU428      0.1693
    106  C        -30.6140   72.2160   10.2790 C.2   428  LEU428      0.2591
    107  O        -30.6110   71.1420    9.6810 O.2   428  LEU428     -0.2718
    108  CB       -31.2140   73.8250    8.4660 C.3   428  LEU428      0.0284
    109  CG       -32.1070   74.9140    7.8570 C.3   428  LEU428      0.0019
    110  CD1      -31.5300   75.3460    6.5260 C.3   428  LEU428      0.0001
    111  CD2      -33.5530   74.4400    7.7450 C.3   428  LEU428      0.0001
    112  N        -29.7820   72.4850   11.2760 N.am  429  ARG429     -0.1980
    113  CA       -28.8430   71.4830   11.7890 C.3   429  ARG429      0.1597
    114  C        -29.4670   70.6630   12.9090 C.2   429  ARG429      0.2287
    115  O        -28.8190   69.7520   13.4270 O.2   429  ARG429     -0.2864
    116  CB       -27.5370   72.1440   12.2340 C.3   429  ARG429      0.0334
    117  CG       -26.9940   73.2150   11.2630 C.3   429  ARG429      0.0492
    118  CD       -26.8570   72.7230    9.8500 C.3   429  ARG429      0.2205
    119  NE       -26.0150   71.5280    9.7810 N.pl3 429  ARG429     -0.0865
    120  CZ       -25.9860   70.6760    8.7620 C.cat 429  ARG429      0.5346
    121  NH1      -25.2120   69.6060    8.8310 N.pl3 429  ARG429      0.1354
    122  NH2      -26.7290   70.8800    7.6820 N.pl3 429  ARG429      0.1354
    123  N        -25.5780   70.0360   16.0750 N.3   433  GLU433     -0.1245
    124  CA       -24.5220   70.9810   16.3800 C.3   433  GLU433      0.1567
    125  C        -24.8600   71.6260   17.7160 C.2   433  GLU433      0.2260
    126  O        -25.9790   72.1070   17.9500 O.2   433  GLU433     -0.2867
    127  CB       -24.3730   72.0070   15.2520 C.3   433  GLU433      0.0388
    128  CG       -23.9210   71.3660   13.9530 C.3   433  GLU433      0.1160
    129  CD       -23.8480   72.2980   12.7610 C.2   433  GLU433      0.3649
    130  OE1      -23.8340   71.7720   11.6200 O.co2 433  GLU433     -0.2457
    131  OE2      -23.8200   73.5310   12.9550 O.co2 433  GLU433     -0.2457
@<TRIPOS>BOND
     1    34    33    2
     2    31    32    1
     3    33    32    1
     4    32    35    1
     5   110   109    1
     6    27    26    2
     7    35    36    1
     8    80    79    1
     9    79    76    1
    10    36    37    1
    11    78    77    2
    12    26    25    1
    13   122   120    1
    14    54    52   am
    15   111   109    1
    16   109   108    1
    17    25    24    1
    18    25    28    1
    19    77    76    1
    20    77    81   am
    21    85    82    1
    22    85    86    1
    23    76    75    1
    24    82    81    1
    25    82    83    1
    26    50    49    2
    27   108   105    1
    28    51    52    1
    29    51    48    1
    30   120   121    1
    31   120   119    2
    32    52    53    2
    33    37    38    1
    34    84    83    2
    35    30    28    1
    36    28    29    1
    37    49    48    1
    38    86    87   ar
    39    86    88   ar
    40    87    89   ar
    41    48    47    1
    42   107   106    2
    43   119   118    1
    44   118   117    1
    45   105   106    1
    46   105   104    1
    47    46    44   am
    48   106   112   am
    49    42    41    2
    50    18    17    2
    51    88    91   ar
    52    88    90   ar
    53    45    44    2
    54    89    90   ar
    55    91    93   ar
    56    44    43    1
    57    17    16    1
    58   117   116    1
    59   112   113    1
    60    41    40    1
    61    90    92   ar
    62   130   129   ar
    63   113   116    1
    64   113   114    1
    65     4     3    2
    66    43    40    1
    67    93    94   ar
    68    16    19    1
    69    16    15    1
    70    13    14   ar
    71    13    11   ar
    72    14    12   ar
    73    19    20    1
    74    22    21   ar
    75    40    39    1
    76    11     8   ar
    77    12    10   ar
    78     8    10   ar
    79     8     6   ar
    80    10     9   ar
    81    92    94   ar
    82   129   131   ar
    83   129   128    1
    84     6     5    1
    85     6     7   ar
    86     9     7   ar
    87     5     2    1
    88   114   115    2
    89     3     2    1
    90     2     1    1
    91    21    20    1
    92    21    23   ar
    93    98    97    2
    94   128   127    1
    95   103   101   ar
    96    97    96    1
    97    65    66    2
    98    65    64    1
    99    67    64    1
   100    67    68    1
   101    58    57    2
   102    63    64    1
   103   100   101    1
   104   100    99    1
   105   101   102   ar
   106   127   124    1
   107    69    68   ar
   108    69    71   ar
   109    68    70   ar
   110    96    99    1
   111    96    95    1
   112    57    56    1
   113   123   124    1
   114    59    56    1
   115    59    60    1
   116    71    73   ar
   117   124   125    1
   118    70    72   ar
   119    62    60   am
   120    55    56    1
   121    60    61    2
   122    73    72   ar
   123    73    74    1
   124   125   126    2
