@<TRIPOS>MOLECULE
tmp/3vigA00.pdb
 133 135 0 0 0
SMALL
GASTEIGER

@<TRIPOS>ATOM
      1  N        -35.9130   77.9320   19.4350 N.3    19  GLN19      -0.1245
      2  CA       -34.8000   77.0430   19.7300 C.3    19  GLN19       0.1566
      3  C        -34.9100   76.3170   21.0620 C.2    19  GLN19       0.2260
      4  O        -34.3050   75.2470   21.2050 O.2    19  GLN19      -0.2867
      5  CB       -33.4680   77.7730   19.5790 C.3    19  GLN19       0.0367
      6  CG       -33.3510   78.4120   18.2000 C.3    19  GLN19       0.0905
      7  CD       -31.9970   79.0080   17.9620 C.2    19  GLN19       0.2608
      8  OE1      -31.8170   80.2270   18.0640 O.2    19  GLN19      -0.2717
      9  NE2      -31.0200   78.1620   17.6270 N.am   19  GLN19      -0.0878
     10  N        -37.1190   86.7580   16.5700 N.3   122  HIS122     -0.1226
     11  CA       -35.9850   85.8580   16.3050 C.3   122  HIS122      0.1752
     12  C        -36.4710   84.6860   15.4460 C.2   122  HIS122      0.2596
     13  O        -36.2660   83.5080   15.7720 O.2   122  HIS122     -0.2718
     14  CB       -35.3420   85.4140   17.6260 C.3   122  HIS122      0.0759
     15  CG       -33.9430   84.9000   17.5180 C.ar  122  HIS122      0.0818
     16  ND1      -32.9510   85.3490   18.3650 N.ar  122  HIS122     -0.2268
     17  CD2      -33.4010   83.9350   16.7340 C.ar  122  HIS122      0.1154
     18  CE1      -31.8500   84.6650   18.0990 C.ar  122  HIS122      0.1986
     19  NE2      -32.0920   83.8040   17.1250 N.ar  122  HIS122     -0.2212
     20  N        -37.1110   85.0430   14.3270 N.am  123  TRP123     -0.1976
     21  CA       -37.2670   84.2080   13.1170 C.3   123  TRP123      0.1640
     22  C        -38.5710   83.4140   13.0400 C.2   123  TRP123      0.2290
     23  O        -38.8390   82.7650   12.0370 O.2   123  TRP123     -0.2864
     24  CB       -36.0980   83.2540   12.8910 C.3   123  TRP123      0.0576
     25  CG       -34.7550   83.8970   12.8440 C.ar  123  TRP123      0.0006
     26  CD1      -34.4220   85.2210   12.9690 C.ar  123  TRP123      0.0946
     27  CD2      -33.5350   83.1800   12.6620 C.ar  123  TRP123      0.0152
     28  NE1      -33.0460   85.3630   12.8520 N.ar  123  TRP123     -0.2442
     29  CE2      -32.4790   84.1250   12.6690 C.ar  123  TRP123      0.0810
     30  CE3      -33.2370   81.8230   12.4910 C.ar  123  TRP123      0.0012
     31  CZ2      -31.1310   83.7410   12.5090 C.ar  123  TRP123      0.0191
     32  CZ3      -31.9120   81.4470   12.3130 C.ar  123  TRP123      0.0001
     33  CH2      -30.8800   82.4000   12.3400 C.ar  123  TRP123      0.0015
     34  N        -33.5900   90.0550   15.3320 N.3   166  ASN166     -0.1225
     35  CA       -32.3280   89.3190   15.3100 C.3   166  ASN166      0.1785
     36  C        -31.9610   88.8800   13.8990 C.2   166  ASN166      0.2597
     37  O        -32.7360   88.1650   13.2420 O.2   166  ASN166     -0.2718
     38  CB       -32.4380   88.0610   16.1800 C.3   166  ASN166      0.1169
     39  CG       -31.1660   87.2540   16.1500 C.2   166  ASN166      0.2627
     40  OD1      -30.1790   87.6540   16.7560 O.2   166  ASN166     -0.2716
     41  ND2      -31.1750   86.1490   15.4040 N.am  166  ASN166     -0.0877
     42  N        -30.7820   89.2880   13.4580 N.am  167  GLU167     -0.1979
     43  CA       -30.1890   88.8190   12.2210 C.3   167  GLU167      0.1602
     44  C        -31.1270   88.8400   11.0140 C.2   167  GLU167      0.2287
     45  O        -31.3190   87.8160   10.3510 O.2   167  GLU167     -0.2864
     46  CB       -29.6000   87.4140   12.3540 C.3   167  GLU167      0.0415
     47  CG       -28.5130   87.2960   13.4020 C.3   167  GLU167      0.1163
     48  CD       -27.6150   86.0850   13.2320 C.2   167  GLU167      0.3649
     49  OE1      -27.9090   85.2260   12.3700 O.co2 167  GLU167     -0.2457
     50  OE2      -26.6280   85.9880   13.9910 O.co2 167  GLU167     -0.2457
     51  N        -19.3560   85.7990   15.0390 N.3   311  TYR311     -0.1241
     52  CA       -18.9140   84.4150   15.1400 C.3   311  TYR311      0.1605
     53  C        -17.6040   84.1110   14.4240 C.2   311  TYR311      0.2264
     54  O        -16.8670   83.2360   14.8840 O.2   311  TYR311     -0.2867
     55  CB       -19.9830   83.4810   14.5620 C.3   311  TYR311      0.0534
     56  CG       -21.1930   83.3420   15.4340 C.ar  311  TYR311     -0.0201
     57  CD1      -22.3050   84.1680   15.2910 C.ar  311  TYR311     -0.0009
     58  CD2      -21.2340   82.3520   16.4120 C.ar  311  TYR311     -0.0009
     59  CE1      -23.4120   84.0310   16.1160 C.ar  311  TYR311      0.0417
     60  CE2      -22.3280   82.1920   17.2260 C.ar  311  TYR311      0.0417
     61  CZ       -23.4270   83.0300   17.0830 C.ar  311  TYR311      0.1957
     62  OH       -24.4980   82.8310   17.9010 O.3   311  TYR311     -0.2866
     63  N        -19.6860   76.7920    8.3770 N.3   348  TRP348     -0.1241
     64  CA       -19.5410   78.2210    8.1810 C.3   348  TRP348      0.1605
     65  C        -18.6870   78.8820    9.2600 C.2   348  TRP348      0.2264
     66  O        -18.2850   80.0340    9.0950 O.2   348  TRP348     -0.2867
     67  CB       -20.9350   78.8600    8.1420 C.3   348  TRP348      0.0550
     68  CG       -21.7360   78.6240    9.3760 C.ar  348  TRP348      0.0003
     69  CD1      -22.6100   77.6050    9.6130 C.ar  348  TRP348      0.0946
     70  CD2      -21.7290   79.4300   10.5550 C.ar  348  TRP348      0.0152
     71  NE1      -23.1340   77.7170   10.8690 N.ar  348  TRP348     -0.2442
     72  CE2      -22.6080   78.8300   11.4740 C.ar  348  TRP348      0.0810
     73  CE3      -21.0700   80.6130   10.9170 C.ar  348  TRP348      0.0012
     74  CZ2      -22.8620   79.3740   12.7330 C.ar  348  TRP348      0.0191
     75  CZ3      -21.3010   81.1370   12.1710 C.ar  348  TRP348      0.0001
     76  CH2      -22.1870   80.5190   13.0660 C.ar  348  TRP348      0.0015
     77  N        -24.6030   88.0150   20.5870 N.3   376  GLU376     -0.1245
     78  CA       -24.2320   86.6110   20.4050 C.3   376  GLU376      0.1567
     79  C        -22.7590   86.5050   20.0560 C.2   376  GLU376      0.2260
     80  O        -22.2170   87.2820   19.2690 O.2   376  GLU376     -0.2867
     81  CB       -24.9880   85.9180   19.2630 C.3   376  GLU376      0.0388
     82  CG       -26.4910   85.8710   19.4470 C.3   376  GLU376      0.1160
     83  CD       -27.2440   85.0950   18.3840 C.2   376  GLU376      0.3649
     84  OE1      -26.6320   84.3180   17.6220 O.co2 376  GLU376     -0.2457
     85  OE2      -28.4800   85.2840   18.3360 O.co2 376  GLU376     -0.2457
     86  N        -23.7080   83.0370   23.1460 N.3   418  TRP418     -0.1241
     87  CA       -24.6280   82.1080   22.4740 C.3   418  TRP418      0.1605
     88  C        -24.0570   80.6980   22.6390 C.2   418  TRP418      0.2264
     89  O        -23.0080   80.4270   22.0670 O.2   418  TRP418     -0.2867
     90  CB       -24.7780   82.3930   20.9620 C.3   418  TRP418      0.0550
     91  CG       -25.8170   81.4660   20.4090 C.ar  418  TRP418      0.0003
     92  CD1      -25.6330   80.2250   19.8710 C.ar  418  TRP418      0.0946
     93  CD2      -27.2370   81.6590   20.5080 C.ar  418  TRP418      0.0152
     94  NE1      -26.8560   79.6380   19.6090 N.ar  418  TRP418     -0.2442
     95  CE2      -27.8560   80.5110   19.9730 C.ar  418  TRP418      0.0810
     96  CE3      -28.0390   82.7190   20.9590 C.ar  418  TRP418      0.0012
     97  CZ2      -29.2490   80.3820   19.9020 C.ar  418  TRP418      0.0191
     98  CZ3      -29.4250   82.6020   20.8770 C.ar  418  TRP418      0.0001
     99  CH2      -30.0110   81.4440   20.3400 C.ar  418  TRP418      0.0015
    100  N        -30.7950   73.9080   16.6490 N.3   425  GLU425     -0.1231
    101  CA       -29.9310   74.6980   15.7820 C.3   425  GLU425      0.1699
    102  C        -30.4730   74.7190   14.3440 C.2   425  GLU425      0.2592
    103  O        -29.8000   74.3800   13.3740 O.2   425  GLU425     -0.2718
    104  CB       -28.4830   74.2120   15.9180 C.3   425  GLU425      0.0402
    105  CG       -27.4530   74.9260   15.0550 C.3   425  GLU425      0.1161
    106  CD       -27.4030   76.4410   15.1490 C.2   425  GLU425      0.3649
    107  OE1      -27.8240   77.0180   16.1700 O.co2 425  GLU425     -0.2457
    108  OE2      -26.8920   77.0440   14.1810 O.co2 425  GLU425     -0.2457
    109  N        -31.7220   75.1730   14.2330 N.am  426  TRP426     -0.1976
    110  CA       -32.3410   75.4580   12.9510 C.3   426  TRP426      0.1640
    111  C        -32.2110   74.2520   12.0020 C.2   426  TRP426      0.2290
    112  O        -32.5850   73.1360   12.3850 O.2   426  TRP426     -0.2864
    113  CB       -31.8070   76.7830   12.3860 C.3   426  TRP426      0.0576
    114  CG       -31.9720   77.9100   13.3680 C.ar  426  TRP426      0.0006
    115  CD1      -30.9670   78.6090   13.9620 C.ar  426  TRP426      0.0946
    116  CD2      -33.2060   78.4670   13.8780 C.ar  426  TRP426      0.0152
    117  NE1      -31.4880   79.5690   14.8000 N.ar  426  TRP426     -0.2442
    118  CE2      -32.8540   79.5000   14.7740 C.ar  426  TRP426      0.0810
    119  CE3      -34.5720   78.1890   13.6690 C.ar  426  TRP426      0.0012
    120  CZ2      -33.8060   80.2810   15.4340 C.ar  426  TRP426      0.0191
    121  CZ3      -35.5210   78.9710   14.3200 C.ar  426  TRP426      0.0001
    122  CH2      -35.1320   80.0010   15.1970 C.ar  426  TRP426      0.0015
    123  N        -24.2230   74.3700   20.6120 N.3   434  PHE434     -0.1241
    124  CA       -23.6820   75.6980   20.9190 C.3   434  PHE434      0.1605
    125  C        -23.7430   76.0410   22.4000 C.2   434  PHE434      0.2264
    126  O        -23.3270   77.1310   22.7940 O.2   434  PHE434     -0.2867
    127  CB       -24.3980   76.8060   20.1290 C.3   434  PHE434      0.0534
    128  CG       -23.9210   76.9810   18.7080 C.ar  434  PHE434     -0.0203
    129  CD1      -22.8960   77.8810   18.4140 C.ar  434  PHE434     -0.0042
    130  CD2      -24.4790   76.2630   17.6460 C.ar  434  PHE434     -0.0042
    131  CE1      -22.4430   78.0640   17.1160 C.ar  434  PHE434     -0.0003
    132  CE2      -24.0210   76.4390   16.3480 C.ar  434  PHE434     -0.0003
    133  CZ       -23.0070   77.3510   16.0770 C.ar  434  PHE434     -0.0000
@<TRIPOS>BOND
     1    67    64    1
     2    67    68    1
     3    64    63    1
     4    64    65    1
     5    66    65    2
     6    68    69   ar
     7    68    70   ar
     8    69    71   ar
     9    45    44    2
    10    70    73   ar
    11    70    72   ar
    12    71    72   ar
    13    73    75   ar
    14    44    43    1
    15    72    74   ar
    16   111   112    2
    17   111   110    1
    18    23    22    2
    19    75    76   ar
    20    43    46    1
    21    43    42    1
    22    32    33   ar
    23    32    30   ar
    24    33    31   ar
    25    46    47    1
    26    49    48   ar
    27   113   110    1
    28   113   114    1
    29    30    27   ar
    30    31    29   ar
    31    27    29   ar
    32    27    25   ar
    33    29    28   ar
    34    74    76   ar
    35    25    24    1
    36    25    26   ar
    37    28    26   ar
    38    24    21    1
    39   110   109    1
    40    22    21    1
    41    21    20    1
    42    48    47    1
    43    48    50   ar
    44    37    36    2
    45   114   116   ar
    46   114   115   ar
    47   103   102    2
    48    42    36   am
    49   119   116   ar
    50   119   121   ar
    51   116   118   ar
    52    36    35    1
    53   115   117   ar
    54   108   106   ar
    55   109   102   am
    56   121   122   ar
    57    20    12   am
    58   102   101    1
    59    53    54    2
    60    53    52    1
    61    55    52    1
    62    55    56    1
    63   118   117   ar
    64   118   120   ar
    65    51    52    1
    66   105   106    1
    67   105   104    1
    68   106   107   ar
    69   122   120   ar
    70    57    56   ar
    71    57    59   ar
    72    35    34    1
    73    35    38    1
    74    41    39   am
    75    56    58   ar
    76    12    13    2
    77    12    11    1
    78   101   104    1
    79   101   100    1
    80   133   132   ar
    81   133   131   ar
    82    59    61   ar
    83    39    38    1
    84    39    40    2
    85    11    10    1
    86    11    14    1
    87   132   130   ar
    88    58    60   ar
    89    17    19   ar
    90    17    15   ar
    91    61    60   ar
    92    61    62    1
    93   131   129   ar
    94    19    18   ar
    95    15    14    1
    96    15    16   ar
    97    84    83   ar
    98     9     7   am
    99   130   128   ar
   100     7     8    2
   101     7     6    1
   102    18    16   ar
   103     6     5    1
   104    85    83   ar
   105    83    82    1
   106   129   128   ar
   107   128   127    1
   108    81    82    1
   109    81    78    1
   110    80    79    2
   111     1     2    1
   112     5     2    1
   113    94    92   ar
   114    94    95   ar
   115     2     3    1
   116    92    91   ar
   117    97    95   ar
   118    97    99   ar
   119    95    93   ar
   120    79    78    1
   121   127   124    1
   122    99    98   ar
   123    78    77    1
   124    91    93   ar
   125    91    90    1
   126    93    96   ar
   127   123   124    1
   128    98    96   ar
   129   124   125    1
   130    90    87    1
   131     3     4    2
   132    89    88    2
   133   125   126    2
   134    87    88    1
   135    87    86    1
