@<TRIPOS>MOLECULE
tmp/3viiA00.pdb
 149 149 0 0 0
SMALL
GASTEIGER

@<TRIPOS>ATOM
      1  N        -35.8410   77.8560   19.4670 N.3    19  GLN19      -0.1245
      2  CA       -34.7230   76.9580   19.7340 C.3    19  GLN19       0.1566
      3  C        -34.8270   76.2400   21.0690 C.2    19  GLN19       0.2260
      4  O        -34.2170   75.1770   21.2240 O.2    19  GLN19      -0.2867
      5  CB       -33.3870   77.6870   19.5790 C.3    19  GLN19       0.0367
      6  CG       -33.2720   78.3080   18.1910 C.3    19  GLN19       0.0905
      7  CD       -31.9150   78.9050   17.9240 C.2    19  GLN19       0.2608
      8  OE1      -31.7340   80.1170   18.0620 O.2    19  GLN19      -0.2717
      9  NE2      -30.9500   78.0600   17.5690 N.am   19  GLN19      -0.0878
     10  N        -37.0850   86.7170   16.5790 N.3   122  HIS122     -0.1226
     11  CA       -35.9650   85.8130   16.3380 C.3   122  HIS122      0.1752
     12  C        -36.4550   84.6370   15.4750 C.2   122  HIS122      0.2596
     13  O        -36.2400   83.4650   15.7910 O.2   122  HIS122     -0.2718
     14  CB       -35.3220   85.3720   17.6560 C.3   122  HIS122      0.0759
     15  CG       -33.9140   84.8770   17.5360 C.ar  122  HIS122      0.0818
     16  ND1      -32.9280   85.3170   18.3970 N.ar  122  HIS122     -0.2268
     17  CD2      -33.3590   83.9330   16.7340 C.ar  122  HIS122      0.1154
     18  CE1      -31.8200   84.6480   18.1200 C.ar  122  HIS122      0.1986
     19  NE2      -32.0550   83.8010   17.1310 N.ar  122  HIS122     -0.2212
     20  N        -37.0910   84.9920   14.3550 N.am  123  TRP123     -0.1976
     21  CA       -37.2600   84.1540   13.1490 C.3   123  TRP123      0.1640
     22  C        -38.5680   83.3670   13.0830 C.2   123  TRP123      0.2290
     23  O        -38.8340   82.7420   12.0580 O.2   123  TRP123     -0.2864
     24  CB       -36.0920   83.1980   12.9050 C.3   123  TRP123      0.0576
     25  CG       -34.7440   83.8280   12.8370 C.ar  123  TRP123      0.0006
     26  CD1      -34.3940   85.1470   12.9680 C.ar  123  TRP123      0.0946
     27  CD2      -33.5350   83.1000   12.6320 C.ar  123  TRP123      0.0152
     28  NE1      -33.0180   85.2740   12.8340 N.ar  123  TRP123     -0.2442
     29  CE2      -32.4740   84.0280   12.6350 C.ar  123  TRP123      0.0810
     30  CE3      -33.2570   81.7370   12.4560 C.ar  123  TRP123      0.0012
     31  CZ2      -31.1470   83.6250   12.4550 C.ar  123  TRP123      0.0191
     32  CZ3      -31.9560   81.3390   12.2570 C.ar  123  TRP123      0.0001
     33  CH2      -30.9170   82.2750   12.2780 C.ar  123  TRP123      0.0015
     34  N        -33.5360   90.0090   15.2910 N.3   166  ASN166     -0.1225
     35  CA       -32.2790   89.2710   15.3020 C.3   166  ASN166      0.1785
     36  C        -31.9150   88.8030   13.9010 C.2   166  ASN166      0.2597
     37  O        -32.6890   88.0870   13.2490 O.2   166  ASN166     -0.2718
     38  CB       -32.3970   88.0460   16.2100 C.3   166  ASN166      0.1169
     39  CG       -31.1280   87.2320   16.1820 C.2   166  ASN166      0.2627
     40  OD1      -30.1380   87.6270   16.7930 O.2   166  ASN166     -0.2716
     41  ND2      -31.1220   86.1420   15.4120 N.am  166  ASN166     -0.0877
     42  N        -30.7230   89.1850   13.4580 N.am  167  GLU167     -0.1979
     43  CA       -30.1280   88.6900   12.2190 C.3   167  GLU167      0.1602
     44  C        -31.0700   88.7170   11.0200 C.2   167  GLU167      0.2287
     45  O        -31.2640   87.6900   10.3610 O.2   167  GLU167     -0.2864
     46  CB       -29.5470   87.2820   12.3700 C.3   167  GLU167      0.0415
     47  CG       -28.4480   87.1710   13.4140 C.3   167  GLU167      0.1163
     48  CD       -27.5960   85.9260   13.2600 C.2   167  GLU167      0.3649
     49  OE1      -27.8340   85.1240   12.3220 O.co2 167  GLU167     -0.2457
     50  OE2      -26.6480   85.7960   14.0490 O.co2 167  GLU167     -0.2457
     51  N        -33.6430   78.1560    5.2220 N.3   181  MET181     -0.1245
     52  CA       -34.3100   78.8040    6.3580 C.3   181  MET181      0.1570
     53  C        -35.7860   79.0360    6.0510 C.2   181  MET181      0.2261
     54  O        -36.1030   79.4400    4.9230 O.2   181  MET181     -0.2867
     55  CB       -33.6480   80.1760    6.6330 C.3   181  MET181      0.0387
     56  CG       -32.2430   80.1380    7.2540 C.3   181  MET181      0.0595
     57  SD       -32.2220   79.3760    8.8940 S.3   181  MET181     -0.1393
     58  CE       -30.4850   79.4720    9.3230 C.3   181  MET181      0.0692
     59  N        -25.8740   90.4560   12.6260 N.3   227  ASN227     -0.1240
     60  CA       -24.7160   89.6010   12.4520 C.3   227  ASN227      0.1653
     61  C        -23.7920   90.1330   11.3770 C.2   227  ASN227      0.2266
     62  O        -24.2290   90.6850   10.3590 O.2   227  ASN227     -0.2867
     63  CB       -25.1020   88.1480   12.1520 C.3   227  ASN227      0.1155
     64  CG       -25.9630   88.0010   10.9200 C.2   227  ASN227      0.2627
     65  OD1      -27.0370   88.6090   10.8170 O.2   227  ASN227     -0.2716
     66  ND2      -25.5210   87.1610    9.9870 N.am  227  ASN227     -0.0877
     67  N        -19.2520   85.7310   15.0310 N.3   311  TYR311     -0.1241
     68  CA       -18.8030   84.3450   15.1090 C.3   311  TYR311      0.1605
     69  C        -17.4890   84.0410   14.4020 C.2   311  TYR311      0.2264
     70  O        -16.7590   83.1700   14.8820 O.2   311  TYR311     -0.2867
     71  CB       -19.8740   83.4050   14.5450 C.3   311  TYR311      0.0534
     72  CG       -21.0670   83.2690   15.4460 C.ar  311  TYR311     -0.0201
     73  CD1      -21.0950   82.2970   16.4420 C.ar  311  TYR311     -0.0009
     74  CD2      -22.1710   84.1090   15.3170 C.ar  311  TYR311     -0.0009
     75  CE1      -22.1810   82.1640   17.2800 C.ar  311  TYR311      0.0417
     76  CE2      -23.2600   83.9860   16.1570 C.ar  311  TYR311      0.0417
     77  CZ       -23.2640   82.9990   17.1340 C.ar  311  TYR311      0.1957
     78  OH       -24.3110   82.8070   17.9920 O.3   311  TYR311     -0.2866
     79  N        -19.5420   76.6480    8.3710 N.3   348  TRP348     -0.1241
     80  CA       -19.3850   78.0720    8.1580 C.3   348  TRP348      0.1605
     81  C        -18.5300   78.7620    9.2250 C.2   348  TRP348      0.2264
     82  O        -18.1170   79.9090    9.0360 O.2   348  TRP348     -0.2867
     83  CB       -20.7730   78.7150    8.0930 C.3   348  TRP348      0.0550
     84  CG       -21.5800   78.5430    9.3570 C.ar  348  TRP348      0.0003
     85  CD1      -22.4590   77.5400    9.6640 C.ar  348  TRP348      0.0946
     86  CD2      -21.5540   79.4000   10.5020 C.ar  348  TRP348      0.0152
     87  NE1      -22.9720   77.7170   10.9210 N.ar  348  TRP348     -0.2442
     88  CE2      -22.4400   78.8590   11.4550 C.ar  348  TRP348      0.0810
     89  CE3      -20.8810   80.5930   10.8000 C.ar  348  TRP348      0.0012
     90  CZ2      -22.6510   79.4510   12.6940 C.ar  348  TRP348      0.0191
     91  CZ3      -21.0870   81.1790   12.0230 C.ar  348  TRP348      0.0001
     92  CH2      -21.9650   80.6090   12.9560 C.ar  348  TRP348      0.0015
     93  N        -24.5310   87.9430   20.5930 N.3   376  GLU376     -0.1245
     94  CA       -24.1530   86.5400   20.4200 C.3   376  GLU376      0.1567
     95  C        -22.6850   86.4250   20.0730 C.2   376  GLU376      0.2260
     96  O        -22.1430   87.2000   19.2740 O.2   376  GLU376     -0.2867
     97  CB       -24.9080   85.8390   19.2850 C.3   376  GLU376      0.0388
     98  CG       -26.4010   85.7890   19.4560 C.3   376  GLU376      0.1160
     99  CD       -27.1430   84.9860   18.4290 C.2   376  GLU376      0.3649
    100  OE1      -26.5190   84.1970   17.6830 O.co2 376  GLU376     -0.2457
    101  OE2      -28.3750   85.1720   18.3420 O.co2 376  GLU376     -0.2457
    102  N        -23.6470   82.9660   23.1640 N.3   418  TRP418     -0.1241
    103  CA       -24.5560   82.0210   22.5000 C.3   418  TRP418      0.1605
    104  C        -23.9900   80.6160   22.6750 C.2   418  TRP418      0.2264
    105  O        -22.9260   80.3520   22.1150 O.2   418  TRP418     -0.2867
    106  CB       -24.7210   82.3010   20.9940 C.3   418  TRP418      0.0550
    107  CG       -25.7490   81.3560   20.4430 C.ar  418  TRP418      0.0003
    108  CD1      -25.5380   80.1120   19.9030 C.ar  418  TRP418      0.0946
    109  CD2      -27.1680   81.5320   20.5120 C.ar  418  TRP418      0.0152
    110  NE1      -26.7460   79.5140   19.6260 N.ar  418  TRP418     -0.2442
    111  CE2      -27.7620   80.3650   19.9820 C.ar  418  TRP418      0.0810
    112  CE3      -27.9920   82.5730   20.9620 C.ar  418  TRP418      0.0012
    113  CZ2      -29.1490   80.2090   19.8990 C.ar  418  TRP418      0.0191
    114  CZ3      -29.3680   82.4270   20.8570 C.ar  418  TRP418      0.0001
    115  CH2      -29.9390   81.2510   20.3390 C.ar  418  TRP418      0.0015
    116  N        -30.7190   73.8410   16.6840 N.3   425  GLU425     -0.1231
    117  CA       -29.8920   74.6720   15.8120 C.3   425  GLU425      0.1699
    118  C        -30.4410   74.6940   14.3870 C.2   425  GLU425      0.2592
    119  O        -29.7650   74.3500   13.4080 O.2   425  GLU425     -0.2718
    120  CB       -28.4260   74.2250   15.9070 C.3   425  GLU425      0.0402
    121  CG       -27.4100   74.9850   15.0550 C.3   425  GLU425      0.1161
    122  CD       -27.3580   76.4840   15.2410 C.2   425  GLU425      0.3649
    123  OE1      -27.7910   76.9990   16.2880 O.co2 425  GLU425     -0.2457
    124  OE2      -26.8380   77.1510   14.3230 O.co2 425  GLU425     -0.2457
    125  N        -31.7020   75.1180   14.2840 N.am  426  TRP426     -0.1976
    126  CA       -32.3250   75.3830   12.9910 C.3   426  TRP426      0.1640
    127  C        -32.1680   74.1720   12.0530 C.2   426  TRP426      0.2290
    128  O        -32.5420   73.0510   12.4230 O.2   426  TRP426     -0.2864
    129  CB       -31.8440   76.7180   12.4160 C.3   426  TRP426      0.0576
    130  CG       -32.0060   77.8520   13.3860 C.ar  426  TRP426      0.0006
    131  CD1      -30.9850   78.5500   13.9710 C.ar  426  TRP426      0.0946
    132  CD2      -33.2290   78.4020   13.9100 C.ar  426  TRP426      0.0152
    133  NE1      -31.4930   79.5250   14.7980 N.ar  426  TRP426     -0.2442
    134  CE2      -32.8590   79.4510   14.7820 C.ar  426  TRP426      0.0810
    135  CE3      -34.5910   78.1290   13.7150 C.ar  426  TRP426      0.0012
    136  CZ2      -33.7990   80.2310   15.4520 C.ar  426  TRP426      0.0191
    137  CZ3      -35.5280   78.9020   14.3830 C.ar  426  TRP426      0.0001
    138  CH2      -35.1230   79.9480   15.2340 C.ar  426  TRP426      0.0015
    139  N        -24.1240   74.2820   20.6520 N.3   434  PHE434     -0.1241
    140  CA       -23.5730   75.6010   20.9630 C.3   434  PHE434      0.1605
    141  C        -23.6520   75.9590   22.4460 C.2   434  PHE434      0.2264
    142  O        -23.2430   77.0600   22.8330 O.2   434  PHE434     -0.2867
    143  CB       -24.2880   76.7090   20.1710 C.3   434  PHE434      0.0534
    144  CG       -23.8000   76.8770   18.7590 C.ar  434  PHE434     -0.0203
    145  CD1      -22.7650   77.7630   18.4810 C.ar  434  PHE434     -0.0042
    146  CD2      -24.3730   76.1750   17.7040 C.ar  434  PHE434     -0.0042
    147  CE1      -22.3120   77.9580   17.1930 C.ar  434  PHE434     -0.0003
    148  CE2      -23.9150   76.3580   16.4150 C.ar  434  PHE434     -0.0003
    149  CZ       -22.8910   77.2700   16.1530 C.ar  434  PHE434     -0.0000
@<TRIPOS>BOND
     1    54    53    2
     2    51    52    1
     3    53    52    1
     4    52    55    1
     5    55    56    1
     6    56    57    1
     7    83    80    1
     8    83    84    1
     9    80    79    1
    10    80    81    1
    11    57    58    1
    12    82    81    2
    13    84    85   ar
    14    84    86   ar
    15    85    87   ar
    16    66    64   am
    17    62    61    2
    18    45    44    2
    19    86    89   ar
    20    86    88   ar
    21    89    91   ar
    22    65    64    2
    23    64    63    1
    24    87    88   ar
    25    44    43    1
    26    61    60    1
    27    88    90   ar
    28    91    92   ar
    29   127   128    2
    30   127   126    1
    31    23    22    2
    32    63    60    1
    33    43    46    1
    34    43    42    1
    35    32    33   ar
    36    32    30   ar
    37    33    31   ar
    38    49    48   ar
    39    46    47    1
    40   129   126    1
    41   129   130    1
    42    60    59    1
    43    31    29   ar
    44    30    27   ar
    45    27    29   ar
    46    27    25   ar
    47    29    28   ar
    48    90    92   ar
    49    28    26   ar
    50    25    24    1
    51    25    26   ar
    52    24    21    1
    53   126   125    1
    54    22    21    1
    55    21    20    1
    56    37    36    2
    57    48    47    1
    58    48    50   ar
    59   130   132   ar
    60   130   131   ar
    61   119   118    2
    62    42    36   am
    63   135   132   ar
    64   135   137   ar
    65    36    35    1
    66   132   134   ar
    67   131   133   ar
    68   125   118   am
    69   124   122   ar
    70    20    12   am
    71   137   138   ar
    72   118   117    1
    73    69    70    2
    74    69    68    1
    75    71    68    1
    76    71    72    1
    77   134   133   ar
    78   134   136   ar
    79    67    68    1
    80   121   122    1
    81   121   120    1
    82   138   136   ar
    83   122   123   ar
    84    34    35    1
    85    35    38    1
    86    74    72   ar
    87    74    76   ar
    88    41    39   am
    89    72    73   ar
    90    12    13    2
    91    12    11    1
    92   117   120    1
    93   117   116    1
    94   149   148   ar
    95   149   147   ar
    96    76    77   ar
    97    39    38    1
    98    39    40    2
    99    11    10    1
   100    11    14    1
   101   148   146   ar
   102    73    75   ar
   103    17    19   ar
   104    17    15   ar
   105    19    18   ar
   106    77    75   ar
   107    77    78    1
   108   147   145   ar
   109    15    14    1
   110    15    16   ar
   111     9     7   am
   112   100    99   ar
   113   146   144   ar
   114     7     8    2
   115     7     6    1
   116    18    16   ar
   117     6     5    1
   118   101    99   ar
   119    99    98    1
   120   145   144   ar
   121   144   143    1
   122    96    95    2
   123    97    98    1
   124    97    94    1
   125     1     2    1
   126     5     2    1
   127   110   108   ar
   128   110   111   ar
   129     2     3    1
   130   113   111   ar
   131   113   115   ar
   132   108   107   ar
   133   111   109   ar
   134    95    94    1
   135   143   140    1
   136   115   114   ar
   137    94    93    1
   138   107   109   ar
   139   107   106    1
   140   109   112   ar
   141   139   140    1
   142   114   112   ar
   143   140   141    1
   144   106   103    1
   145     3     4    2
   146   105   104    2
   147   141   142    2
   148   103   104    1
   149   103   102    1
