@<TRIPOS>MOLECULE
tmp/3vikA00.pdb
 185 182 0 0 0
SMALL
GASTEIGER

@<TRIPOS>ATOM
      1  N        -35.9430   78.2300   19.4850 N.3    19  GLN19      -0.1245
      2  CA       -34.8300   77.3250   19.7380 C.3    19  GLN19       0.1566
      3  C        -34.9510   76.5970   21.0670 C.2    19  GLN19       0.2260
      4  O        -34.3560   75.5180   21.2190 O.2    19  GLN19      -0.2867
      5  CB       -33.5010   78.0760   19.6210 C.3    19  GLN19       0.0367
      6  CG       -33.3370   78.6660   18.2290 C.3    19  GLN19       0.0905
      7  CD       -31.9580   79.2270   18.0150 C.2    19  GLN19       0.2608
      8  OE1      -31.7460   80.4400   18.1340 O.2    19  GLN19      -0.2717
      9  NE2      -31.0080   78.3490   17.7100 N.am   19  GLN19      -0.0878
     10  N        -37.0180   87.0490   16.6640 N.3   122  HIS122     -0.1226
     11  CA       -35.9080   86.1500   16.3930 C.3   122  HIS122      0.1752
     12  C        -36.4090   84.9900   15.5200 C.2   122  HIS122      0.2596
     13  O        -36.2280   83.8160   15.8400 O.2   122  HIS122     -0.2718
     14  CB       -35.2320   85.7280   17.7030 C.3   122  HIS122      0.0759
     15  CG       -33.8500   85.1780   17.5620 C.ar  122  HIS122      0.0818
     16  ND1      -32.8620   85.4420   18.4880 N.ar  122  HIS122     -0.2268
     17  CD2      -33.3020   84.3490   16.6420 C.ar  122  HIS122      0.1154
     18  CE1      -31.7640   84.7950   18.1430 C.ar  122  HIS122      0.1986
     19  NE2      -32.0030   84.1150   17.0360 N.ar  122  HIS122     -0.2212
     20  N        -37.0270   85.3460   14.3890 N.am  123  TRP123     -0.1976
     21  CA       -37.1790   84.5180   13.1830 C.3   123  TRP123      0.1640
     22  C        -38.4950   83.7450   13.1150 C.2   123  TRP123      0.2290
     23  O        -38.7430   83.0970   12.0970 O.2   123  TRP123     -0.2864
     24  CB       -36.0100   83.5580   12.9670 C.3   123  TRP123      0.0576
     25  CG       -34.6460   84.1720   12.9500 C.ar  123  TRP123      0.0006
     26  CD1      -34.2780   85.4760   13.1560 C.ar  123  TRP123      0.0946
     27  CD2      -33.4410   83.4400   12.7290 C.ar  123  TRP123      0.0152
     28  NE1      -32.9030   85.5890   13.0610 N.ar  123  TRP123     -0.2442
     29  CE2      -32.3710   84.3500   12.8250 C.ar  123  TRP123      0.0810
     30  CE3      -33.1700   82.0930   12.4620 C.ar  123  TRP123      0.0012
     31  CZ2      -31.0350   83.9550   12.6330 C.ar  123  TRP123      0.0191
     32  CZ3      -31.8570   81.7040   12.2470 C.ar  123  TRP123      0.0001
     33  CH2      -30.8090   82.6260   12.3700 C.ar  123  TRP123      0.0015
     34  N        -33.5210   90.4460   15.4130 N.3   166  ASN166     -0.1225
     35  CA       -32.2610   89.7330   15.5400 C.3   166  ASN166      0.1785
     36  C        -31.7770   89.1870   14.1950 C.2   166  ASN166      0.2597
     37  O        -32.4780   88.3880   13.5710 O.2   166  ASN166     -0.2718
     38  CB       -32.4000   88.5830   16.5290 C.3   166  ASN166      0.1169
     39  CG       -31.0460   88.0220   16.8930 C.2   166  ASN166      0.2627
     40  OD1      -30.3050   88.6640   17.6400 O.2   166  ASN166     -0.2716
     41  ND2      -30.6880   86.8710   16.3330 N.am  166  ASN166     -0.0877
     42  N        -30.5610   89.5550   13.8090 N.am  167  SER167     -0.1952
     43  CA       -29.9220   89.0090   12.6170 C.3   167  SER167      0.1924
     44  C        -30.7950   89.0040   11.3550 C.2   167  SER167      0.2314
     45  O        -30.9610   87.9670   10.7110 O.2   167  SER167     -0.2863
     46  CB       -29.3860   87.5980   12.8890 C.3   167  SER167      0.2116
     47  OG       -28.3840   87.6410   13.8980 O.3   167  SER167     -0.2180
     48  N        -29.4020   87.4150    8.2490 N.3   170  THR170     -0.1218
     49  CA       -29.6230   85.9730    8.1470 C.3   170  THR170      0.1862
     50  C        -31.0680   85.6470    7.7700 C.2   170  THR170      0.2287
     51  O        -31.2990   84.8960    6.8250 O.2   170  THR170     -0.2866
     52  CB       -29.2240   85.2510    9.4440 C.3   170  THR170      0.1770
     53  OG1      -27.8580   85.5790    9.7610 O.3   170  THR170     -0.2211
     54  CG2      -29.3690   83.7400    9.2960 C.3   170  THR170      0.0375
     55  N        -33.6940   78.4180    5.1930 N.3   181  MET181     -0.1245
     56  CA       -34.3320   79.0190    6.3690 C.3   181  MET181      0.1570
     57  C        -35.7940   79.3280    6.0930 C.2   181  MET181      0.2261
     58  O        -36.1060   79.7730    4.9940 O.2   181  MET181     -0.2867
     59  CB       -33.6450   80.3560    6.7130 C.3   181  MET181      0.0387
     60  CG       -32.2290   80.2730    7.2850 C.3   181  MET181      0.0595
     61  SD       -32.1570   79.6710    8.9890 S.3   181  MET181     -0.1393
     62  CE       -30.4090   79.8200    9.3460 C.3   181  MET181      0.0692
     63  N        -26.0750   90.8800   12.7730 N.3   227  ASN227     -0.1225
     64  CA       -24.9580   89.9620   12.5970 C.3   227  ASN227      0.1785
     65  C        -24.0360   90.4250   11.4780 C.2   227  ASN227      0.2597
     66  O        -24.4790   91.0010   10.4880 O.2   227  ASN227     -0.2718
     67  CB       -25.4260   88.5200   12.3560 C.3   227  ASN227      0.1169
     68  CG       -26.1150   88.3490   11.0310 C.2   227  ASN227      0.2627
     69  OD1      -27.2150   88.8790   10.8060 O.2   227  ASN227     -0.2716
     70  ND2      -25.4560   87.6400   10.1110 N.am  227  ASN227     -0.0877
     71  N        -22.7450   90.1680   11.6650 N.am  228  ILE228     -0.1966
     72  CA       -21.7520   90.5360   10.6820 C.3   228  ILE228      0.1727
     73  C        -20.5000   89.6970   10.9330 C.2   228  ILE228      0.2616
     74  O        -20.0350   89.5800   12.0730 O.2   228  ILE228     -0.2715
     75  CB       -21.4380   92.0720   10.7430 C.3   228  ILE228      0.0290
     76  CG1      -20.4120   92.4760    9.6670 C.3   228  ILE228      0.0022
     77  CG2      -21.0560   92.5420   12.1540 C.3   228  ILE228      0.0023
     78  CD1      -20.7890   92.2080    8.2280 C.3   228  ILE228      0.0001
     79  N        -19.9730   89.1660    9.8340 N.am  229  ASN229     -0.1972
     80  CA       -18.6720   88.5030    9.8050 C.3   229  ASN229      0.1688
     81  C        -17.5930   89.5250    9.4540 C.2   229  ASN229      0.2292
     82  O        -17.8060   90.3810    8.5920 O.2   229  ASN229     -0.2864
     83  CB       -18.6620   87.4220    8.7070 C.3   229  ASN229      0.1181
     84  CG       -19.6860   86.3140    8.9230 C.2   229  ASN229      0.2629
     85  OD1      -20.1200   86.0620   10.0400 O.2   229  ASN229     -0.2716
     86  ND2      -20.1030   85.6850    7.8310 N.am  229  ASN229     -0.0877
     87  N        -24.1200   90.6750   16.6860 N.3   309  ASN309     -0.1240
     88  CA       -23.9790   89.2210   16.7360 C.3   309  ASN309      0.1653
     89  C        -22.7500   88.8680   15.9090 C.2   309  ASN309      0.2266
     90  O        -22.7230   89.0410   14.6880 O.2   309  ASN309     -0.2867
     91  CB       -25.2400   88.5700   16.1560 C.3   309  ASN309      0.1155
     92  CG       -26.5030   88.9020   16.9450 C.2   309  ASN309      0.2627
     93  OD1      -27.6290   88.8750   16.3990 O.2   309  ASN309     -0.2716
     94  ND2      -26.3500   89.1950   18.2040 N.am  309  ASN309     -0.0877
     95  N        -19.5470   86.0150   15.1480 N.3   311  TYR311     -0.1241
     96  CA       -19.0940   84.6300   15.2350 C.3   311  TYR311      0.1605
     97  C        -17.7610   84.3440   14.5580 C.2   311  TYR311      0.2264
     98  O        -17.0110   83.4730   15.0290 O.2   311  TYR311     -0.2867
     99  CB       -20.1300   83.6830   14.6210 C.3   311  TYR311      0.0534
    100  CG       -21.4420   83.6480   15.3520 C.ar  311  TYR311     -0.0201
    101  CD1      -22.4410   84.5680   15.0670 C.ar  311  TYR311     -0.0009
    102  CD2      -21.6800   82.7310   16.3660 C.ar  311  TYR311     -0.0009
    103  CE1      -23.6470   84.5630   15.7500 C.ar  311  TYR311      0.0417
    104  CE2      -22.8840   82.7140   17.0420 C.ar  311  TYR311      0.0417
    105  CZ       -23.8720   83.6380   16.7380 C.ar  311  TYR311      0.1957
    106  OH       -25.0660   83.5570   17.4230 O.3   311  TYR311     -0.2866
    107  N        -14.3100   85.7870    7.2070 N.3   314  LEU314     -0.1245
    108  CA       -14.0690   85.2810    5.8600 C.3   314  LEU314      0.1561
    109  C        -12.8720   86.0160    5.2760 C.2   314  LEU314      0.2260
    110  O        -12.4970   87.0810    5.7840 O.2   314  LEU314     -0.2867
    111  CB       -15.3070   85.5040    4.9750 C.3   314  LEU314      0.0270
    112  CG       -16.5830   84.7840    5.4400 C.3   314  LEU314      0.0019
    113  CD1      -17.8130   85.3070    4.6940 C.3   314  LEU314      0.0001
    114  CD2      -16.4770   83.2760    5.2590 C.3   314  LEU314      0.0001
    115  N        -19.7360   77.0440    8.3840 N.3   348  TRP348     -0.1241
    116  CA       -19.5990   78.4780    8.1850 C.3   348  TRP348      0.1605
    117  C        -18.7620   79.1700    9.2620 C.2   348  TRP348      0.2264
    118  O        -18.3920   80.3400    9.0930 O.2   348  TRP348     -0.2867
    119  CB       -20.9920   79.1200    8.0720 C.3   348  TRP348      0.0550
    120  CG       -21.8240   78.9130    9.2960 C.ar  348  TRP348      0.0003
    121  CD1      -22.7060   77.8960    9.5250 C.ar  348  TRP348      0.0946
    122  CD2      -21.8610   79.7450   10.4650 C.ar  348  TRP348      0.0152
    123  NE1      -23.2630   78.0260   10.7740 N.ar  348  TRP348     -0.2442
    124  CE2      -22.7780   79.1640   11.3670 C.ar  348  TRP348      0.0810
    125  CE3      -21.2230   80.9450   10.8350 C.ar  348  TRP348      0.0012
    126  CZ2      -23.0490   79.7090   12.6260 C.ar  348  TRP348      0.0191
    127  CZ3      -21.5000   81.4860   12.0890 C.ar  348  TRP348      0.0001
    128  CH2      -22.4150   80.8750   12.9590 C.ar  348  TRP348      0.0015
    129  N        -24.7890   88.2900   20.7180 N.3   376  GLU376     -0.1196
    130  CA       -24.4490   86.8890   20.4910 C.3   376  GLU376      0.1783
    131  C        -22.9640   86.8010   20.1950 C.2   376  GLU376      0.2306
    132  O        -22.4260   87.5680   19.3980 O.2   376  GLU376     -0.2863
    133  CB       -25.1690   86.2760   19.2860 C.2   376  GLU376      0.0071
    134  CG       -26.6800   86.2110   19.3960 C.2   376  GLU376      0.0834
    135  CD       -27.4190   85.8420   18.1310 C.2   376  GLU376      0.3877
    136  OE1      -26.7960   85.5360   17.0840 O.co2 376  GLU376     -0.2406
    137  OE2      -28.6700   85.9220   18.1800 O.co2 376  GLU376     -0.2406
    138  N        -23.7410   83.3590   23.3890 N.3   418  TRP418     -0.1241
    139  CA       -24.6620   82.4920   22.6510 C.3   418  TRP418      0.1605
    140  C        -24.1370   81.0590   22.7330 C.2   418  TRP418      0.2264
    141  O        -23.0750   80.7870   22.1820 O.2   418  TRP418     -0.2867
    142  CB       -24.7480   82.8800   21.1670 C.3   418  TRP418      0.0550
    143  CG       -25.7980   82.0570   20.5030 C.ar  418  TRP418      0.0003
    144  CD1      -25.6220   80.9200   19.7690 C.ar  418  TRP418      0.0946
    145  CD2      -27.2140   82.2460   20.6270 C.ar  418  TRP418      0.0152
    146  NE1      -26.8410   80.4060   19.4040 N.ar  418  TRP418     -0.2442
    147  CE2      -27.8320   81.2110   19.8980 C.ar  418  TRP418      0.0810
    148  CE3      -28.0150   83.2090   21.2590 C.ar  418  TRP418      0.0012
    149  CZ2      -29.2230   81.1010   19.7930 C.ar  418  TRP418      0.0191
    150  CZ3      -29.4010   83.1090   21.1360 C.ar  418  TRP418      0.0001
    151  CH2      -29.9850   82.0500   20.4280 C.ar  418  TRP418      0.0015
    152  N        -30.8730   74.0400   16.6790 N.3   425  GLU425     -0.1231
    153  CA       -30.0250   74.8340   15.7980 C.3   425  GLU425      0.1699
    154  C        -30.5670   74.9040   14.3700 C.2   425  GLU425      0.2592
    155  O        -29.8880   74.5880   13.3870 O.2   425  GLU425     -0.2718
    156  CB       -28.5740   74.3340   15.9190 C.3   425  GLU425      0.0402
    157  CG       -27.5380   75.0380   15.0330 C.3   425  GLU425      0.1161
    158  CD       -27.5520   76.5550   15.1250 C.2   425  GLU425      0.3649
    159  OE1      -27.8600   77.0740   16.2150 O.co2 425  GLU425     -0.2457
    160  OE2      -27.2260   77.1940   14.1090 O.co2 425  GLU425     -0.2457
    161  N        -31.8000   75.4000   14.2600 N.am  426  TRP426     -0.1976
    162  CA       -32.3920   75.6950   12.9560 C.3   426  TRP426      0.1640
    163  C        -32.2870   74.4830   12.0260 C.2   426  TRP426      0.2290
    164  O        -32.6640   73.3730   12.4170 O.2   426  TRP426     -0.2864
    165  CB       -31.8290   77.0120   12.4070 C.3   426  TRP426      0.0576
    166  CG       -31.9430   78.1570   13.3870 C.ar  426  TRP426      0.0006
    167  CD1      -30.9050   78.8430   13.9640 C.ar  426  TRP426      0.0946
    168  CD2      -33.1490   78.7340   13.9250 C.ar  426  TRP426      0.0152
    169  NE1      -31.3870   79.8280   14.7960 N.ar  426  TRP426     -0.2442
    170  CE2      -32.7570   79.7860   14.7870 C.ar  426  TRP426      0.0810
    171  CE3      -34.5190   78.5070   13.7170 C.ar  426  TRP426      0.0012
    172  CZ2      -33.6860   80.5870   15.4710 C.ar  426  TRP426      0.0191
    173  CZ3      -35.4430   79.3020   14.3980 C.ar  426  TRP426      0.0001
    174  CH2      -35.0220   80.3330   15.2540 C.ar  426  TRP426      0.0015
    175  N        -24.3450   74.6700   20.6400 N.3   434  PHE434     -0.1241
    176  CA       -23.8140   76.0030   20.9290 C.3   434  PHE434      0.1605
    177  C        -23.8810   76.3460   22.4230 C.2   434  PHE434      0.2264
    178  O        -23.4860   77.4530   22.8080 O.2   434  PHE434     -0.2867
    179  CB       -24.5610   77.0870   20.1340 C.3   434  PHE434      0.0534
    180  CG       -24.0550   77.2960   18.7320 C.ar  434  PHE434     -0.0203
    181  CD1      -23.0420   78.2260   18.4850 C.ar  434  PHE434     -0.0042
    182  CD2      -24.6060   76.6170   17.6500 C.ar  434  PHE434     -0.0042
    183  CE1      -22.5650   78.4670   17.2070 C.ar  434  PHE434     -0.0003
    184  CE2      -24.1300   76.8370   16.3660 C.ar  434  PHE434     -0.0003
    185  CZ       -23.1050   77.7810   16.1260 C.ar  434  PHE434     -0.0000
@<TRIPOS>BOND
     1   113   112    1
     2   111   112    1
     3   111   108    1
     4    58    57    2
     5    55    56    1
     6   114   112    1
     7   109   110    2
     8   109   108    1
     9   108   107    1
    10    57    56    1
    11    56    59    1
    12    59    60    1
    13    51    50    2
    14    60    61    1
    15    50    49    1
    16    86    84   am
    17   119   116    1
    18   119   120    1
    19    49    48    1
    20    49    52    1
    21   116   115    1
    22   116   117    1
    23    78    76    1
    24    82    81    2
    25    83    84    1
    26    83    80    1
    27    84    85    2
    28    61    62    1
    29   118   117    2
    30   120   121   ar
    31   120   122   ar
    32    54    52    1
    33    52    53    1
    34    81    80    1
    35   121   123   ar
    36    76    75    1
    37    80    79    1
    38    79    73   am
    39    70    68   am
    40   122   125   ar
    41   122   124   ar
    42    66    65    2
    43    72    75    1
    44    72    73    1
    45    72    71    1
    46    45    44    2
    47    75    77    1
    48   123   124   ar
    49    69    68    2
    50   125   127   ar
    51    73    74    2
    52    68    67    1
    53    44    43    1
    54   124   126   ar
    55    65    71   am
    56    65    64    1
    57   163   164    2
    58   163   162    1
    59   127   128   ar
    60    23    22    2
    61    32    33   ar
    62    32    30   ar
    63    67    64    1
    64    33    31   ar
    65   165   162    1
    66   165   166    1
    67    30    27   ar
    68    64    63    1
    69    43    46    1
    70    43    42    1
    71   126   128   ar
    72    31    29   ar
    73    27    29   ar
    74    27    25   ar
    75    29    28   ar
    76    46    47    1
    77    25    24    1
    78    25    26   ar
    79   162   161    1
    80    24    21    1
    81    28    26   ar
    82    22    21    1
    83    21    20    1
    84   166   168   ar
    85   166   167   ar
    86   155   154    2
    87    37    36    2
    88   171   168   ar
    89   171   173   ar
    90    42    36   am
    91   168   170   ar
    92   167   169   ar
    93   160   158   ar
    94    36    35    1
    95   161   154   am
    96   154   153    1
    97    20    12   am
    98   173   174   ar
    99    97    98    2
   100    97    96    1
   101    99    96    1
   102    99   100    1
   103    90    89    2
   104   170   169   ar
   105   170   172   ar
   106   157   158    1
   107   157   156    1
   108   101   100   ar
   109   101   103   ar
   110   158   159   ar
   111    95    96    1
   112   174   172   ar
   113   100   102   ar
   114    34    35    1
   115    12    13    2
   116    12    11    1
   117    35    38    1
   118   103   105   ar
   119   153   156    1
   120   153   152    1
   121    89    88    1
   122   185   184   ar
   123   185   183   ar
   124    91    88    1
   125    91    92    1
   126    41    39   am
   127   102   104   ar
   128   184   182   ar
   129    11    10    1
   130    11    14    1
   131    93    92    2
   132    38    39    1
   133    17    19   ar
   134    17    15   ar
   135    87    88    1
   136   105   104   ar
   137   105   106    1
   138    39    40    2
   139    92    94   am
   140    19    18   ar
   141   136   135   ar
   142   183   181   ar
   143    15    14    1
   144    15    16   ar
   145   182   180   ar
   146     9     7   am
   147     7     8    2
   148     7     6    1
   149   135   137   ar
   150   135   134    1
   151    18    16   ar
   152     6     5    1
   153   181   180   ar
   154   180   179    1
   155   133   134    2
   156   133   130    1
   157   132   131    2
   158   146   144   ar
   159   146   147   ar
   160     1     2    1
   161     5     2    1
   162     2     3    1
   163   144   143   ar
   164   149   147   ar
   165   149   151   ar
   166   147   145   ar
   167   179   176    1
   168   131   130    1
   169   151   150   ar
   170   130   129    1
   171   143   145   ar
   172   143   142    1
   173   145   148   ar
   174   175   176    1
   175   176   177    1
   176     3     4    2
   177   150   148   ar
   178   142   139    1
   179   141   140    2
   180   177   178    2
   181   139   140    1
   182   139   138    1
