@<TRIPOS>MOLECULE
tmp/3vilA00.pdb
 177 175 0 0 0
SMALL
GASTEIGER

@<TRIPOS>ATOM
      1  N        -35.8850   78.0860   19.4500 N.3    19  GLN19      -0.1245
      2  CA       -34.7700   77.1810   19.7060 C.3    19  GLN19       0.1566
      3  C        -34.8760   76.4430   21.0370 C.2    19  GLN19       0.2260
      4  O        -34.2840   75.3610   21.1880 O.2    19  GLN19      -0.2867
      5  CB       -33.4500   77.9400   19.5950 C.3    19  GLN19       0.0367
      6  CG       -33.3070   78.5530   18.2140 C.3    19  GLN19       0.0905
      7  CD       -31.9340   79.1230   17.9720 C.2    19  GLN19       0.2608
      8  OE1      -31.7290   80.3580   18.0260 O.2    19  GLN19      -0.2717
      9  NE2      -30.9800   78.2490   17.6480 N.am   19  GLN19      -0.0878
     10  N        -37.0600   86.8680   16.6420 N.3   122  HIS122     -0.1226
     11  CA       -35.9450   85.9850   16.3470 C.3   122  HIS122      0.1752
     12  C        -36.4390   84.8190   15.4970 C.2   122  HIS122      0.2596
     13  O        -36.2420   83.6500   15.8260 O.2   122  HIS122     -0.2718
     14  CB       -35.3050   85.5560   17.6650 C.3   122  HIS122      0.0759
     15  CG       -33.9140   85.0260   17.5580 C.ar  122  HIS122      0.0818
     16  ND1      -32.9420   85.3550   18.4780 N.ar  122  HIS122     -0.2268
     17  CD2      -33.3470   84.1590   16.6900 C.ar  122  HIS122      0.1154
     18  CE1      -31.8340   84.7020   18.1810 C.ar  122  HIS122      0.1986
     19  NE2      -32.0490   83.9700   17.1020 N.ar  122  HIS122     -0.2212
     20  N        -37.0670   85.1610   14.3670 N.am  123  TRP123     -0.1976
     21  CA       -37.1970   84.3350   13.1590 C.3   123  TRP123      0.1640
     22  C        -38.5070   83.5600   13.0810 C.2   123  TRP123      0.2290
     23  O        -38.7630   82.9090   12.0660 O.2   123  TRP123     -0.2864
     24  CB       -36.0390   83.3650   12.9520 C.3   123  TRP123      0.0576
     25  CG       -34.6760   83.9980   12.9140 C.ar  123  TRP123      0.0006
     26  CD1      -34.3180   85.3070   13.0760 C.ar  123  TRP123      0.0946
     27  CD2      -33.4640   83.2770   12.7000 C.ar  123  TRP123      0.0152
     28  NE1      -32.9490   85.4320   13.0040 N.ar  123  TRP123     -0.2442
     29  CE2      -32.4020   84.2010   12.7590 C.ar  123  TRP123      0.0810
     30  CE3      -33.1770   81.9260   12.4870 C.ar  123  TRP123      0.0012
     31  CZ2      -31.0670   83.8080   12.5640 C.ar  123  TRP123      0.0191
     32  CZ3      -31.8730   81.5490   12.2720 C.ar  123  TRP123      0.0001
     33  CH2      -30.8260   82.4660   12.3660 C.ar  123  TRP123      0.0015
     34  N        -33.5240   90.2600   15.3620 N.3   166  ASN166     -0.1225
     35  CA       -32.2730   89.5410   15.4780 C.3   166  ASN166      0.1785
     36  C        -31.8010   88.9660   14.1450 C.2   166  ASN166      0.2597
     37  O        -32.5370   88.2120   13.5060 O.2   166  ASN166     -0.2718
     38  CB       -32.4170   88.4040   16.4910 C.3   166  ASN166      0.1169
     39  CG       -31.0790   87.7710   16.7640 C.2   166  ASN166      0.2627
     40  OD1      -30.2890   88.3520   17.5050 O.2   166  ASN166     -0.2716
     41  ND2      -30.8150   86.6100   16.1840 N.am  166  ASN166     -0.0877
     42  N        -30.5770   89.3210   13.7410 N.am  167  SER167     -0.1952
     43  CA       -29.9280   88.7440   12.5630 C.3   167  SER167      0.1924
     44  C        -30.7960   88.7480   11.3040 C.2   167  SER167      0.2314
     45  O        -30.9720   87.6990   10.6810 O.2   167  SER167     -0.2863
     46  CB       -29.3920   87.3430   12.8450 C.3   167  SER167      0.2116
     47  OG       -28.4040   87.3790   13.8680 O.3   167  SER167     -0.2180
     48  N        -29.4450   87.1090    8.2320 N.3   170  THR170     -0.1218
     49  CA       -29.7020   85.6780    8.0770 C.3   170  THR170      0.1862
     50  C        -31.1470   85.3850    7.7080 C.2   170  THR170      0.2287
     51  O        -31.3990   84.6460    6.7480 O.2   170  THR170     -0.2866
     52  CB       -29.3180   84.9100    9.3530 C.3   170  THR170      0.1770
     53  OG1      -27.9240   85.1310    9.5950 O.3   170  THR170     -0.2211
     54  CG2      -29.5780   83.4120    9.1610 C.3   170  THR170      0.0375
     55  N        -33.6720   78.3730    5.1930 N.3   181  MET181     -0.1245
     56  CA       -34.3190   78.9610    6.3690 C.3   181  MET181      0.1570
     57  C        -35.7870   79.2220    6.0850 C.2   181  MET181      0.2261
     58  O        -36.1190   79.6520    4.9730 O.2   181  MET181     -0.2867
     59  CB       -33.6510   80.3180    6.6800 C.3   181  MET181      0.0387
     60  CG       -32.2270   80.2560    7.2530 C.3   181  MET181      0.0595
     61  SD       -32.2120   79.4840    8.8890 S.3   181  MET181     -0.1393
     62  CE       -30.4820   79.5560    9.3180 C.3   181  MET181      0.0692
     63  N        -26.0740   90.6690   12.7450 N.3   227  ASN227     -0.1225
     64  CA       -24.9670   89.7400   12.6000 C.3   227  ASN227      0.1785
     65  C        -24.0300   90.1740   11.4780 C.2   227  ASN227      0.2597
     66  O        -24.4590   90.7350   10.4740 O.2   227  ASN227     -0.2718
     67  CB       -25.4280   88.2880   12.4170 C.3   227  ASN227      0.1169
     68  CG       -26.2160   88.0530   11.1420 C.2   227  ASN227      0.2627
     69  OD1      -27.2370   88.6940   10.8890 O.2   227  ASN227     -0.2716
     70  ND2      -25.7950   87.0610   10.3690 N.am  227  ASN227     -0.0877
     71  N        -22.7480   89.8910   11.6690 N.am  228  ILE228     -0.1966
     72  CA       -21.7530   90.2700   10.6810 C.3   228  ILE228      0.1727
     73  C        -20.5080   89.4290   10.9180 C.2   228  ILE228      0.2616
     74  O        -20.0810   89.2610   12.0670 O.2   228  ILE228     -0.2715
     75  CB       -21.4260   91.7980   10.7350 C.3   228  ILE228      0.0290
     76  CG1      -20.4030   92.2140    9.6630 C.3   228  ILE228      0.0022
     77  CG2      -21.0040   92.2560   12.1350 C.3   228  ILE228      0.0023
     78  CD1      -20.8420   91.9700    8.2390 C.3   228  ILE228      0.0001
     79  N        -19.9320   88.9360    9.8230 N.am  229  ASN229     -0.1972
     80  CA       -18.6190   88.2940    9.8170 C.3   229  ASN229      0.1688
     81  C        -17.5500   89.3420    9.5170 C.2   229  ASN229      0.2292
     82  O        -17.7660   90.2150    8.6700 O.2   229  ASN229     -0.2864
     83  CB       -18.5270   87.2170    8.7190 C.3   229  ASN229      0.1181
     84  CG       -19.5250   86.0770    8.8850 C.2   229  ASN229      0.2629
     85  OD1      -20.0170   85.7790    9.9700 O.2   229  ASN229     -0.2716
     86  ND2      -19.8630   85.4690    7.7700 N.am  229  ASN229     -0.0877
     87  N        -24.1410   90.4020   16.6650 N.3   309  ASN309     -0.1240
     88  CA       -23.9650   88.9570   16.7100 C.3   309  ASN309      0.1653
     89  C        -22.7260   88.6340   15.8930 C.2   309  ASN309      0.2266
     90  O        -22.7140   88.8260   14.6670 O.2   309  ASN309     -0.2867
     91  CB       -25.2210   88.2750   16.1740 C.3   309  ASN309      0.1155
     92  CG       -26.4550   88.6130   17.0070 C.2   309  ASN309      0.2627
     93  OD1      -26.3420   88.8980   18.1760 O.2   309  ASN309     -0.2716
     94  ND2      -27.6340   88.5930   16.4060 N.am  309  ASN309     -0.0877
     95  N        -19.5210   85.7860   15.1560 N.3   311  TYR311     -0.1241
     96  CA       -19.0480   84.4160   15.3120 C.3   311  TYR311      0.1605
     97  C        -17.7340   84.1230   14.5790 C.2   311  TYR311      0.2264
     98  O        -16.9730   83.2580   15.0480 O.2   311  TYR311     -0.2867
     99  CB       -20.0800   83.4380   14.7420 C.3   311  TYR311      0.0534
    100  CG       -21.3480   83.3500   15.5290 C.ar  311  TYR311     -0.0201
    101  CD1      -21.4910   82.4190   16.5490 C.ar  311  TYR311     -0.0009
    102  CD2      -22.3900   84.2360   15.2930 C.ar  311  TYR311     -0.0009
    103  CE1      -22.6570   82.3470   17.2780 C.ar  311  TYR311      0.0417
    104  CE2      -23.5720   84.1690   16.0180 C.ar  311  TYR311      0.0417
    105  CZ       -23.7050   83.2320   17.0190 C.ar  311  TYR311      0.1957
    106  OH       -24.8730   83.1200   17.7350 O.3   311  TYR311     -0.2866
    107  N        -19.7420   76.8570    8.4270 N.3   348  TRP348     -0.1241
    108  CA       -19.5500   78.2760    8.1940 C.3   348  TRP348      0.1605
    109  C        -18.7170   78.9600    9.2820 C.2   348  TRP348      0.2264
    110  O        -18.3200   80.1260    9.1240 O.2   348  TRP348     -0.2867
    111  CB       -20.9290   78.9290    8.0860 C.3   348  TRP348      0.0550
    112  CG       -21.7770   78.7400    9.3210 C.ar  348  TRP348      0.0003
    113  CD1      -22.6490   77.7240    9.5870 C.ar  348  TRP348      0.0946
    114  CD2      -21.8060   79.5940   10.4770 C.ar  348  TRP348      0.0152
    115  NE1      -23.2200   77.8890   10.8280 N.ar  348  TRP348     -0.2442
    116  CE2      -22.7250   79.0320   11.3980 C.ar  348  TRP348      0.0810
    117  CE3      -21.1610   80.7970   10.8110 C.ar  348  TRP348      0.0012
    118  CZ2      -23.0010   79.6130   12.6410 C.ar  348  TRP348      0.0191
    119  CZ3      -21.4340   81.3690   12.0470 C.ar  348  TRP348      0.0001
    120  CH2      -22.3610   80.7920   12.9320 C.ar  348  TRP348      0.0015
    121  N        -24.7440   88.0580   20.7250 N.3   376  GLU376     -0.1196
    122  CA       -24.3940   86.6480   20.5000 C.3   376  GLU376      0.1783
    123  C        -22.9250   86.5390   20.1640 C.2   376  GLU376      0.2306
    124  O        -22.3840   87.3230   19.3900 O.2   376  GLU376     -0.2863
    125  CB       -25.1410   86.0420   19.3070 C.2   376  GLU376      0.0071
    126  CG       -26.6480   85.9560   19.4620 C.2   376  GLU376      0.0834
    127  CD       -27.3970   85.4830   18.2380 C.2   376  GLU376      0.3877
    128  OE1      -26.7830   84.9710   17.2830 O.co2 376  GLU376     -0.2406
    129  OE2      -28.6360   85.5810   18.2710 O.co2 376  GLU376     -0.2406
    130  N        -23.7690   83.1510   23.3340 N.3   418  TRP418     -0.1241
    131  CA       -24.6780   82.2300   22.6550 C.3   418  TRP418      0.1605
    132  C        -24.1150   80.8200   22.7700 C.2   418  TRP418      0.2264
    133  O        -23.0590   80.5510   22.2000 O.2   418  TRP418     -0.2867
    134  CB       -24.8210   82.5610   21.1540 C.3   418  TRP418      0.0550
    135  CG       -25.8380   81.6380   20.5350 C.ar  418  TRP418      0.0003
    136  CD1      -25.6210   80.4320   19.9330 C.ar  418  TRP418      0.0946
    137  CD2      -27.2500   81.7990   20.6290 C.ar  418  TRP418      0.0152
    138  NE1      -26.8220   79.8420   19.6120 N.ar  418  TRP418     -0.2442
    139  CE2      -27.8420   80.6750   20.0030 C.ar  418  TRP418      0.0810
    140  CE3      -28.0750   82.8130   21.1420 C.ar  418  TRP418      0.0012
    141  CZ2      -29.2330   80.5130   19.9110 C.ar  418  TRP418      0.0191
    142  CZ3      -29.4600   82.6720   21.0050 C.ar  418  TRP418      0.0001
    143  CH2      -30.0210   81.5220   20.4130 C.ar  418  TRP418      0.0015
    144  N        -30.8210   74.0100   16.6550 N.3   425  GLU425     -0.1231
    145  CA       -29.9800   74.8300   15.7850 C.3   425  GLU425      0.1699
    146  C        -30.5320   74.8590   14.3590 C.2   425  GLU425      0.2592
    147  O        -29.8450   74.5130   13.4020 O.2   425  GLU425     -0.2718
    148  CB       -28.5030   74.4160   15.9190 C.3   425  GLU425      0.0402
    149  CG       -27.5030   75.1470   15.0190 C.3   425  GLU425      0.1161
    150  CD       -27.4980   76.6700   15.1130 C.2   425  GLU425      0.3649
    151  OE1      -27.9050   77.2300   16.1560 O.co2 425  GLU425     -0.2457
    152  OE2      -27.0740   77.3100   14.1150 O.co2 425  GLU425     -0.2457
    153  N        -31.7770   75.3270   14.2330 N.am  426  TRP426     -0.1976
    154  CA       -32.3660   75.6050   12.9310 C.3   426  TRP426      0.1640
    155  C        -32.2530   74.4000   11.9980 C.2   426  TRP426      0.2290
    156  O        -32.6410   73.2910   12.3720 O.2   426  TRP426     -0.2864
    157  CB       -31.8200   76.9310   12.3870 C.3   426  TRP426      0.0576
    158  CG       -31.9550   78.0620   13.3810 C.ar  426  TRP426      0.0006
    159  CD1      -30.9290   78.7520   13.9670 C.ar  426  TRP426      0.0946
    160  CD2      -33.1740   78.6190   13.9060 C.ar  426  TRP426      0.0152
    161  NE1      -31.4300   79.7150   14.8040 N.ar  426  TRP426     -0.2442
    162  CE2      -32.7990   79.6540   14.8020 C.ar  426  TRP426      0.0810
    163  CE3      -34.5410   78.3580   13.7000 C.ar  426  TRP426      0.0012
    164  CZ2      -33.7470   80.4450   15.4670 C.ar  426  TRP426      0.0191
    165  CZ3      -35.4920   79.1450   14.3860 C.ar  426  TRP426      0.0001
    166  CH2      -35.0830   80.1670   15.2520 C.ar  426  TRP426      0.0015
    167  N        -24.3080   74.4770   20.6840 N.3   434  PHE434     -0.1241
    168  CA       -23.7620   75.8060   20.9560 C.3   434  PHE434      0.1605
    169  C        -23.8400   76.1630   22.4450 C.2   434  PHE434      0.2264
    170  O        -23.4320   77.2590   22.8520 O.2   434  PHE434     -0.2867
    171  CB       -24.4980   76.8920   20.1590 C.3   434  PHE434      0.0534
    172  CG       -23.9870   77.1070   18.7630 C.ar  434  PHE434     -0.0203
    173  CD1      -22.9700   78.0250   18.5130 C.ar  434  PHE434     -0.0042
    174  CD2      -24.5550   76.4190   17.7020 C.ar  434  PHE434     -0.0042
    175  CE1      -22.5090   78.2480   17.2160 C.ar  434  PHE434     -0.0003
    176  CE2      -24.1040   76.6400   16.4010 C.ar  434  PHE434     -0.0003
    177  CZ       -23.0830   77.5640   16.1580 C.ar  434  PHE434     -0.0000
@<TRIPOS>BOND
     1    58    57    2
     2    55    56    1
     3    57    56    1
     4    56    59    1
     5    59    60    1
     6    51    50    2
     7    60    61    1
     8    50    49    1
     9    86    84   am
    10    49    48    1
    11    49    52    1
    12   111   108    1
    13   111   112    1
    14   108   107    1
    15   108   109    1
    16    78    76    1
    17    82    81    2
    18    83    84    1
    19    83    80    1
    20    84    85    2
    21    61    62    1
    22   110   109    2
    23    54    52    1
    24   112   113   ar
    25   112   114   ar
    26    52    53    1
    27    81    80    1
    28   113   115   ar
    29    76    75    1
    30    80    79    1
    31    79    73   am
    32    70    68   am
    33    66    65    2
    34   114   117   ar
    35   114   116   ar
    36    72    75    1
    37    72    73    1
    38    72    71    1
    39    45    44    2
    40    75    77    1
    41   117   119   ar
    42   115   116   ar
    43    69    68    2
    44    73    74    2
    45    68    67    1
    46    44    43    1
    47   116   118   ar
    48    65    71   am
    49    65    64    1
    50   155   156    2
    51   155   154    1
    52   119   120   ar
    53    23    22    2
    54    32    33   ar
    55    32    30   ar
    56    33    31   ar
    57   157   154    1
    58   157   158    1
    59    67    64    1
    60    30    27   ar
    61    43    46    1
    62    43    42    1
    63    31    29   ar
    64    64    63    1
    65   118   120   ar
    66    27    29   ar
    67    27    25   ar
    68    29    28   ar
    69    46    47    1
    70    25    24    1
    71    25    26   ar
    72   154   153    1
    73    24    21    1
    74    28    26   ar
    75    22    21    1
    76    21    20    1
    77   158   160   ar
    78   158   159   ar
    79   147   146    2
    80    37    36    2
    81   163   160   ar
    82   163   165   ar
    83    42    36   am
    84   160   162   ar
    85   159   161   ar
    86   152   150   ar
    87    36    35    1
    88   153   146   am
    89   146   145    1
    90    20    12   am
    91   165   166   ar
    92    97    98    2
    93    97    96    1
    94    90    89    2
    95    99    96    1
    96    99   100    1
    97   162   161   ar
    98   162   164   ar
    99   149   150    1
   100   149   148    1
   101   150   151   ar
   102    95    96    1
   103   166   164   ar
   104   102   100   ar
   105   102   104   ar
   106    34    35    1
   107    35    38    1
   108    12    13    2
   109    12    11    1
   110   100   101   ar
   111   145   148    1
   112   145   144    1
   113    89    88    1
   114   104   105   ar
   115   177   176   ar
   116   177   175   ar
   117    91    88    1
   118    91    92    1
   119    41    39   am
   120    11    10    1
   121    11    14    1
   122   176   174   ar
   123    94    92   am
   124    38    39    1
   125   101   103   ar
   126    87    88    1
   127    17    19   ar
   128    17    15   ar
   129    39    40    2
   130    92    93    2
   131   105   103   ar
   132   105   106    1
   133    19    18   ar
   134   175   173   ar
   135   128   127   ar
   136    15    14    1
   137    15    16   ar
   138     9     7   am
   139   174   172   ar
   140     7     8    2
   141     7     6    1
   142    18    16   ar
   143     6     5    1
   144   127   129   ar
   145   127   126    1
   146   173   172   ar
   147   172   171    1
   148   125   126    2
   149   125   122    1
   150   124   123    2
   151     1     2    1
   152     5     2    1
   153   138   136   ar
   154   138   139   ar
   155     2     3    1
   156   141   139   ar
   157   141   143   ar
   158   136   135   ar
   159   139   137   ar
   160   171   168    1
   161   123   122    1
   162   143   142   ar
   163   122   121    1
   164   135   137   ar
   165   135   134    1
   166   137   140   ar
   167   167   168    1
   168   168   169    1
   169   142   140   ar
   170     3     4    2
   171   134   131    1
   172   133   132    2
   173   169   170    2
   174   131   132    1
   175   131   130    1
