@<TRIPOS>MOLECULE
tmp/3vinA00.pdb
 196 193 0 0 0
SMALL
GASTEIGER

@<TRIPOS>ATOM
      1  N        -35.8700   78.0850   19.4860 N.3    19  GLN19      -0.1245
      2  CA       -34.7590   77.1930   19.7610 C.3    19  GLN19       0.1566
      3  C        -34.8740   76.4640   21.0920 C.2    19  GLN19       0.2260
      4  O        -34.2770   75.3860   21.2580 O.2    19  GLN19      -0.2867
      5  CB       -33.4400   77.9550   19.6440 C.3    19  GLN19       0.0367
      6  CG       -33.2860   78.5410   18.2520 C.3    19  GLN19       0.0905
      7  CD       -31.9150   79.1000   17.9980 C.2    19  GLN19       0.2608
      8  OE1      -31.7010   80.3130   18.0850 O.2    19  GLN19      -0.2717
      9  NE2      -30.9700   78.2190   17.6730 N.am   19  GLN19      -0.0878
     10  N        -37.0560   86.8760   16.6870 N.3   122  HIS122     -0.1226
     11  CA       -35.9260   86.0020   16.3700 C.3   122  HIS122      0.1752
     12  C        -36.4170   84.8320   15.5110 C.2   122  HIS122      0.2596
     13  O        -36.2080   83.6600   15.8420 O.2   122  HIS122     -0.2718
     14  CB       -35.2660   85.5430   17.6740 C.3   122  HIS122      0.0759
     15  CG       -33.8640   85.0310   17.5460 C.ar  122  HIS122      0.0818
     16  ND1      -32.8700   85.4270   18.4190 N.ar  122  HIS122     -0.2268
     17  CD2      -33.3110   84.1150   16.7150 C.ar  122  HIS122      0.1154
     18  CE1      -31.7660   84.7570   18.1370 C.ar  122  HIS122      0.1986
     19  NE2      -32.0040   83.9540   17.1140 N.ar  122  HIS122     -0.2212
     20  N        -37.0340   85.1720   14.3780 N.am  123  TRP123     -0.1976
     21  CA       -37.1620   84.3400   13.1720 C.3   123  TRP123      0.1640
     22  C        -38.4620   83.5540   13.0780 C.2   123  TRP123      0.2290
     23  O        -38.7060   82.8680   12.0980 O.2   123  TRP123     -0.2864
     24  CB       -35.9710   83.4040   12.9540 C.3   123  TRP123      0.0576
     25  CG       -34.6260   84.0720   12.8760 C.ar  123  TRP123      0.0006
     26  CD1      -34.3130   85.4100   12.9850 C.ar  123  TRP123      0.0946
     27  CD2      -33.3860   83.3820   12.6900 C.ar  123  TRP123      0.0152
     28  NE1      -32.9520   85.5790   12.8670 N.ar  123  TRP123     -0.2442
     29  CE2      -32.3600   84.3540   12.6800 C.ar  123  TRP123      0.0810
     30  CE3      -33.0530   82.0310   12.5070 C.ar  123  TRP123      0.0012
     31  CZ2      -31.0070   84.0110   12.4940 C.ar  123  TRP123      0.0191
     32  CZ3      -31.7270   81.6930   12.3050 C.ar  123  TRP123      0.0001
     33  CH2      -30.7160   82.6780   12.3150 C.ar  123  TRP123      0.0015
     34  N        -33.6590   90.2360   15.5370 N.3   166  ASN166     -0.1225
     35  CA       -32.3960   89.5200   15.4990 C.3   166  ASN166      0.1785
     36  C        -32.0110   89.1430   14.0730 C.2   166  ASN166      0.2597
     37  O        -32.7280   88.3760   13.4190 O.2   166  ASN166     -0.2718
     38  CB       -32.4850   88.2270   16.3000 C.3   166  ASN166      0.1169
     39  CG       -31.1520   87.5470   16.3250 C.2   166  ASN166      0.2627
     40  OD1      -30.2310   88.0670   16.9450 O.2   166  ASN166     -0.2716
     41  ND2      -31.0120   86.4420   15.6010 N.am  166  ASN166     -0.0877
     42  N        -30.8620   89.6400   13.6320 N.am  167  ASP167     -0.1974
     43  CA       -30.1890   89.1710   12.4280 C.3   167  ASP167      0.1709
     44  C        -31.0950   88.9900   11.2020 C.2   167  ASP167      0.2293
     45  O        -31.2700   87.8670   10.6890 O.2   167  ASP167     -0.2864
     46  CB       -29.4220   87.8840   12.7290 C.3   167  ASP167      0.1436
     47  CG       -28.5460   87.4330   11.5770 C.2   167  ASP167      0.3671
     48  OD1      -28.3180   88.1900   10.6090 O.co2 167  ASP167     -0.2456
     49  OD2      -28.0680   86.2810   11.6850 O.co2 167  ASP167     -0.2456
     50  N        -29.5790   87.1720    8.0780 N.3   170  THR170     -0.1218
     51  CA       -29.8760   85.7540    7.9090 C.3   170  THR170      0.1862
     52  C        -31.3340   85.4970    7.5580 C.2   170  THR170      0.2287
     53  O        -31.6190   84.7660    6.6120 O.2   170  THR170     -0.2866
     54  CB       -29.4890   84.9450    9.1510 C.3   170  THR170      0.1770
     55  OG1      -28.0810   85.0680    9.3710 O.3   170  THR170     -0.2211
     56  CG2      -29.8410   83.4740    8.9970 C.3   170  THR170      0.0375
     57  N        -32.7150   85.6580    4.1330 N.3   173  ASP173     -0.1239
     58  CA       -32.3090   84.5640    3.2700 C.3   173  ASP173      0.1674
     59  C        -33.3610   83.4550    3.2230 C.2   173  ASP173      0.2266
     60  O        -33.2950   82.5910    2.3450 O.2   173  ASP173     -0.2867
     61  CB       -30.9570   84.0320    3.7230 C.3   173  ASP173      0.1410
     62  CG       -30.2680   83.2500    2.6340 C.2   173  ASP173      0.3668
     63  OD1      -29.9050   82.0870    2.9020 O.co2 173  ASP173     -0.2456
     64  OD2      -30.1320   83.7470    1.4990 O.co2 173  ASP173     -0.2456
     65  N        -33.6550   78.4280    5.2290 N.3   181  MET181     -0.1245
     66  CA       -34.3320   79.0330    6.3780 C.3   181  MET181      0.1570
     67  C        -35.8020   79.2850    6.0790 C.2   181  MET181      0.2261
     68  O        -36.1320   79.6660    4.9440 O.2   181  MET181     -0.2867
     69  CB       -33.6790   80.3940    6.6750 C.3   181  MET181      0.0387
     70  CG       -32.2740   80.3310    7.2960 C.3   181  MET181      0.0595
     71  SD       -32.2510   79.5770    8.9460 S.3   181  MET181     -0.1393
     72  CE       -30.5050   79.6100    9.3540 C.3   181  MET181      0.0692
     73  N        -25.9360   90.6090   12.6590 N.3   227  ASN227     -0.1240
     74  CA       -24.8230   89.6810   12.4860 C.3   227  ASN227      0.1653
     75  C        -23.8800   90.1680   11.4040 C.2   227  ASN227      0.2266
     76  O        -24.3180   90.6310   10.3520 O.2   227  ASN227     -0.2867
     77  CB       -25.3680   88.2900   12.1150 C.3   227  ASN227      0.1155
     78  CG       -24.2800   87.2670   11.8190 C.2   227  ASN227      0.2627
     79  OD1      -24.2980   86.6640   10.7530 O.2   227  ASN227     -0.2716
     80  ND2      -23.3340   87.0800   12.7280 N.am  227  ASN227     -0.0877
     81  N        -24.0500   90.4610   16.6640 N.3   309  ASN309     -0.1240
     82  CA       -23.8250   89.0230   16.7450 C.3   309  ASN309      0.1653
     83  C        -22.5630   88.7290   15.9480 C.2   309  ASN309      0.2266
     84  O        -22.5140   88.9560   14.7330 O.2   309  ASN309     -0.2867
     85  CB       -25.0050   88.2530   16.1440 C.3   309  ASN309      0.1155
     86  CG       -26.3360   88.5110   16.8280 C.2   309  ASN309      0.2627
     87  OD1      -27.3890   88.1360   16.2830 O.2   309  ASN309     -0.2716
     88  ND2      -26.3110   89.0590   18.0130 N.am  309  ASN309     -0.0877
     89  N        -19.4610   85.8370   15.1430 N.3   311  TYR311     -0.1241
     90  CA       -19.0300   84.4450   15.2290 C.3   311  TYR311      0.1605
     91  C        -17.6960   84.1580   14.5380 C.2   311  TYR311      0.2264
     92  O        -16.9430   83.3010   15.0230 O.2   311  TYR311     -0.2867
     93  CB       -20.0920   83.5210   14.6180 C.3   311  TYR311      0.0534
     94  CG       -21.3480   83.4220   15.4280 C.ar  311  TYR311     -0.0201
     95  CD1      -22.4200   84.2780   15.2000 C.ar  311  TYR311     -0.0009
     96  CD2      -21.4630   82.4890   16.4570 C.ar  311  TYR311     -0.0009
     97  CE1      -23.5780   84.1970   15.9520 C.ar  311  TYR311      0.0417
     98  CE2      -22.6090   82.4100   17.2280 C.ar  311  TYR311      0.0417
     99  CZ       -23.6750   83.2660   16.9710 C.ar  311  TYR311      0.1957
    100  OH       -24.8020   83.1320   17.7460 O.3   311  TYR311     -0.2866
    101  N        -19.8970   74.1930    9.4660 N.3   347  SER347     -0.1202
    102  CA       -19.0840   74.4400    8.2850 C.3   347  SER347      0.2020
    103  C        -18.7200   75.9030    8.0580 C.2   347  SER347      0.2618
    104  O        -17.6680   76.2290    7.5170 O.2   347  SER347     -0.2717
    105  CB       -19.7880   73.8700    7.0410 C.3   347  SER347      0.2103
    106  OG       -21.0730   74.4460    6.8670 O.3   347  SER347     -0.2182
    107  N        -19.6230   76.7820    8.4690 N.am  348  TRP348     -0.1975
    108  CA       -19.4850   78.2120    8.2460 C.3   348  TRP348      0.1640
    109  C        -18.6520   78.9020    9.3260 C.2   348  TRP348      0.2290
    110  O        -18.2500   80.0570    9.1510 O.2   348  TRP348     -0.2864
    111  CB       -20.8780   78.8530    8.1710 C.3   348  TRP348      0.0576
    112  CG       -21.6990   78.6240    9.4020 C.ar  348  TRP348      0.0006
    113  CD1      -22.5550   77.5760    9.6530 C.ar  348  TRP348      0.0946
    114  CD2      -21.7210   79.4500   10.5760 C.ar  348  TRP348      0.0152
    115  NE1      -23.0880   77.7020   10.9130 N.ar  348  TRP348     -0.2442
    116  CE2      -22.5930   78.8380   11.5020 C.ar  348  TRP348      0.0810
    117  CE3      -21.0950   80.6570   10.9310 C.ar  348  TRP348      0.0012
    118  CZ2      -22.8690   79.3960   12.7550 C.ar  348  TRP348      0.0191
    119  CZ3      -21.3620   81.1970   12.1910 C.ar  348  TRP348      0.0001
    120  CH2      -22.2450   80.5700   13.0810 C.ar  348  TRP348      0.0015
    121  N        -24.6890   88.1360   20.6970 N.3   376  GLU376     -0.1245
    122  CA       -24.3210   86.7350   20.4810 C.3   376  GLU376      0.1567
    123  C        -22.8460   86.6190   20.1440 C.2   376  GLU376      0.2260
    124  O        -22.2950   87.3940   19.3710 O.2   376  GLU376     -0.2867
    125  CB       -25.0630   86.0840   19.3030 C.3   376  GLU376      0.0388
    126  CG       -26.5750   86.0550   19.4570 C.3   376  GLU376      0.1160
    127  CD       -27.3490   85.5020   18.2610 C.2   376  GLU376      0.3649
    128  OE1      -26.7640   84.8550   17.3630 O.co2 376  GLU376     -0.2457
    129  OE2      -28.5920   85.6700   18.2730 O.co2 376  GLU376     -0.2457
    130  N        -23.6970   83.2130   23.3120 N.3   418  TRP418     -0.1241
    131  CA       -24.6070   82.3060   22.6210 C.3   418  TRP418      0.1605
    132  C        -24.0660   80.8860   22.7540 C.2   418  TRP418      0.2264
    133  O        -23.0030   80.6160   22.1970 O.2   418  TRP418     -0.2867
    134  CB       -24.7310   82.6360   21.1180 C.3   418  TRP418      0.0550
    135  CG       -25.7760   81.7460   20.5140 C.ar  418  TRP418      0.0003
    136  CD1      -25.5890   80.5380   19.8930 C.ar  418  TRP418      0.0946
    137  CD2      -27.1940   81.9420   20.5950 C.ar  418  TRP418      0.0152
    138  NE1      -26.8110   79.9840   19.5570 N.ar  418  TRP418     -0.2442
    139  CE2      -27.8050   80.8260   19.9820 C.ar  418  TRP418      0.0810
    140  CE3      -28.0030   82.9590   21.1220 C.ar  418  TRP418      0.0012
    141  CZ2      -29.1930   80.7040   19.8740 C.ar  418  TRP418      0.0191
    142  CZ3      -29.3860   82.8450   20.9950 C.ar  418  TRP418      0.0001
    143  CH2      -29.9630   81.7180   20.3850 C.ar  418  TRP418      0.0015
    144  N        -30.8660   73.9600   16.7120 N.3   425  GLU425     -0.1231
    145  CA       -29.9950   74.7660   15.8710 C.3   425  GLU425      0.1699
    146  C        -30.5260   74.8370   14.4360 C.2   425  GLU425      0.2592
    147  O        -29.8330   74.5020   13.4760 O.2   425  GLU425     -0.2718
    148  CB       -28.5420   74.2800   15.9980 C.3   425  GLU425      0.0402
    149  CG       -27.5000   74.9870   15.1290 C.3   425  GLU425      0.1161
    150  CD       -27.4830   76.5080   15.1900 C.2   425  GLU425      0.3649
    151  OE1      -27.8520   77.0750   16.2480 O.co2 425  GLU425     -0.2457
    152  OE2      -27.0240   77.0850   14.1780 O.co2 425  GLU425     -0.2457
    153  N        -31.7660   75.3190   14.3030 N.am  426  TRP426     -0.1962
    154  CA       -32.3620   75.5950   12.9930 C.3   426  TRP426      0.1771
    155  C        -32.2270   74.3800   12.0630 C.2   426  TRP426      0.2619
    156  O        -32.6040   73.2680   12.4470 O.2   426  TRP426     -0.2715
    157  CB       -31.8090   76.9000   12.4150 C.3   426  TRP426      0.0590
    158  CG       -31.9630   78.0360   13.3990 C.ar  426  TRP426      0.0006
    159  CD1      -30.9430   78.7410   13.9860 C.ar  426  TRP426      0.0946
    160  CD2      -33.1870   78.6060   13.9060 C.ar  426  TRP426      0.0152
    161  NE1      -31.4470   79.7040   14.8190 N.ar  426  TRP426     -0.2442
    162  CE2      -32.8170   79.6420   14.7990 C.ar  426  TRP426      0.0810
    163  CE3      -34.5500   78.3410   13.7030 C.ar  426  TRP426      0.0012
    164  CZ2      -33.7590   80.4300   15.4690 C.ar  426  TRP426      0.0191
    165  CZ3      -35.4950   79.1210   14.3980 C.ar  426  TRP426      0.0001
    166  CH2      -35.0910   80.1610   15.2540 C.ar  426  TRP426      0.0015
    167  N        -31.7180   74.5640   10.8500 N.am  427  LEU427     -0.1963
    168  CA       -31.6530   73.4670    9.8700 C.3   427  LEU427      0.1728
    169  C        -30.7040   72.3480   10.3040 C.2   427  LEU427      0.2616
    170  O        -30.7100   71.2580    9.7240 O.2   427  LEU427     -0.2715
    171  CB       -31.2950   73.9480    8.4660 C.3   427  LEU427      0.0311
    172  CG       -32.2090   75.0570    7.9330 C.3   427  LEU427      0.0022
    173  CD1      -31.6190   75.5250    6.6330 C.3   427  LEU427      0.0001
    174  CD2      -33.6500   74.5910    7.7410 C.3   427  LEU427      0.0001
    175  N        -29.8880   72.6170   11.3220 N.am  428  ARG428     -0.1977
    176  CA       -28.9520   71.6110   11.8370 C.3   428  ARG428      0.1597
    177  C        -29.5830   70.7710   12.9370 C.2   428  ARG428      0.2287
    178  O        -28.9370   69.8610   13.4670 O.2   428  ARG428     -0.2864
    179  CB       -27.6590   72.2850   12.3190 C.3   428  ARG428      0.0334
    180  CG       -27.0870   73.3230   11.3440 C.3   428  ARG428      0.0492
    181  CD       -26.9270   72.7960    9.9260 C.3   428  ARG428      0.2205
    182  NE       -26.0810   71.6060    9.8770 N.pl3 428  ARG428     -0.0865
    183  CZ       -25.9870   70.7820    8.8370 C.cat 428  ARG428      0.5346
    184  NH1      -25.2080   69.7060    8.9020 N.pl3 428  ARG428      0.1354
    185  NH2      -26.6760   71.0100    7.7270 N.pl3 428  ARG428      0.1354
    186  N        -24.2400   74.4970   20.7440 N.3   434  PHE434     -0.1241
    187  CA       -23.7160   75.8340   21.0090 C.3   434  PHE434      0.1605
    188  C        -23.7960   76.1960   22.4850 C.2   434  PHE434      0.2264
    189  O        -23.3920   77.3060   22.8610 O.2   434  PHE434     -0.2867
    190  CB       -24.4510   76.9080   20.1870 C.3   434  PHE434      0.0534
    191  CG       -23.9440   77.0690   18.7910 C.ar  434  PHE434     -0.0203
    192  CD1      -22.9350   77.9870   18.5130 C.ar  434  PHE434     -0.0042
    193  CD2      -24.4740   76.3290   17.7350 C.ar  434  PHE434     -0.0042
    194  CE1      -22.4640   78.1630   17.2290 C.ar  434  PHE434     -0.0003
    195  CE2      -24.0040   76.4900   16.4320 C.ar  434  PHE434     -0.0003
    196  CZ       -22.9850   77.4160   16.1730 C.ar  434  PHE434     -0.0000
@<TRIPOS>BOND
     1    64    62   ar
     2    60    59    2
     3    62    63   ar
     4    62    61    1
     5    59    58    1
     6    58    61    1
     7    58    57    1
     8    68    67    2
     9    65    66    1
    10    67    66    1
    11    66    69    1
    12    53    52    2
    13   173   172    1
    14    69    70    1
    15   106   105    1
    16   105   102    1
    17    70    71    1
    18   104   103    2
    19    52    51    1
    20   185   183    1
    21   174   172    1
    22    51    50    1
    23    51    54    1
    24   172   171    1
    25   103   102    1
    26   103   107   am
    27   111   108    1
    28   111   112    1
    29   108   107    1
    30   108   109    1
    31   102   101    1
    32   171   168    1
    33   183   184    1
    34   183   182    2
    35    71    72    1
    36    56    54    1
    37   110   109    2
    38    54    55    1
    39   112   113   ar
    40   112   114   ar
    41   113   115   ar
    42   170   169    2
    43   168   169    1
    44   168   167    1
    45   182   181    1
    46   181   180    1
    47   169   175   am
    48    76    75    2
    49   114   117   ar
    50   114   116   ar
    51    48    47   ar
    52    45    44    2
    53    79    78    2
    54   167   155   am
    55   115   116   ar
    56   117   119   ar
    57    44    43    1
    58   175   176    1
    59   180   179    1
    60    75    74    1
    61   116   118   ar
    62    47    49   ar
    63    47    46    1
    64    78    77    1
    65    78    80   am
    66   176   179    1
    67   176   177    1
    68   155   156    2
    69   155   154    1
    70    23    22    2
    71    77    74    1
    72   119   120   ar
    73    32    33   ar
    74    32    30   ar
    75    33    31   ar
    76   157   154    1
    77   157   158    1
    78    43    46    1
    79    43    42    1
    80    74    73    1
    81    31    29   ar
    82    30    27   ar
    83    29    27   ar
    84    29    28   ar
    85    27    25   ar
    86   118   120   ar
    87    28    26   ar
    88    25    24    1
    89    25    26   ar
    90   177   178    2
    91    24    21    1
    92   154   153    1
    93    22    21    1
    94    21    20    1
    95   158   160   ar
    96   158   159   ar
    97    37    36    2
    98   147   146    2
    99    42    36   am
   100   163   160   ar
   101   163   165   ar
   102   160   162   ar
   103   159   161   ar
   104    36    35    1
   105   152   150   ar
   106   153   146   am
   107    20    12   am
   108   165   166   ar
   109   146   145    1
   110    91    92    2
   111    91    90    1
   112    93    90    1
   113    93    94    1
   114    84    83    2
   115   162   161   ar
   116   162   164   ar
   117   149   150    1
   118   149   148    1
   119    89    90    1
   120   150   151   ar
   121    95    94   ar
   122    95    97   ar
   123   166   164   ar
   124    94    96   ar
   125    35    34    1
   126    35    38    1
   127    12    13    2
   128    12    11    1
   129    41    39   am
   130   145   148    1
   131   145   144    1
   132    83    82    1
   133    97    99   ar
   134    85    82    1
   135    85    86    1
   136   196   195   ar
   137   196   194   ar
   138    87    86    2
   139    38    39    1
   140    39    40    2
   141    11    10    1
   142    11    14    1
   143   195   193   ar
   144    96    98   ar
   145    81    82    1
   146    17    19   ar
   147    17    15   ar
   148    86    88   am
   149    99    98   ar
   150    99   100    1
   151    19    18   ar
   152   194   192   ar
   153   128   127   ar
   154    15    14    1
   155    15    16   ar
   156     9     7   am
   157   193   191   ar
   158     7     8    2
   159     7     6    1
   160    18    16   ar
   161     6     5    1
   162   127   129   ar
   163   127   126    1
   164   192   191   ar
   165   191   190    1
   166   125   126    1
   167   125   122    1
   168   124   123    2
   169     1     2    1
   170   138   136   ar
   171   138   139   ar
   172     5     2    1
   173     2     3    1
   174   141   139   ar
   175   141   143   ar
   176   136   135   ar
   177   139   137   ar
   178   123   122    1
   179   190   187    1
   180   143   142   ar
   181   122   121    1
   182   135   137   ar
   183   135   134    1
   184   137   140   ar
   185   186   187    1
   186   142   140   ar
   187   187   188    1
   188     3     4    2
   189   134   131    1
   190   133   132    2
   191   188   189    2
   192   131   132    1
   193   131   130    1
