@<TRIPOS>MOLECULE
tmp/3vioA00.pdb
 188 184 0 0 0
SMALL
GASTEIGER

@<TRIPOS>ATOM
      1  N        -35.8150   77.9640   19.4500 N.3    19  GLN19      -0.1245
      2  CA       -34.7020   77.0620   19.7040 C.3    19  GLN19       0.1566
      3  C        -34.8040   76.3410   21.0430 C.2    19  GLN19       0.2260
      4  O        -34.2170   75.2680   21.2070 O.2    19  GLN19      -0.2867
      5  CB       -33.3760   77.8120   19.5790 C.3    19  GLN19       0.0367
      6  CG       -33.2500   78.4090   18.1950 C.3    19  GLN19       0.0905
      7  CD       -31.8810   78.9860   17.9410 C.2    19  GLN19       0.2608
      8  OE1      -31.6780   80.1930   18.0580 O.2    19  GLN19      -0.2717
      9  NE2      -30.9270   78.1280   17.5850 N.am   19  GLN19      -0.0878
     10  N        -37.0110   86.7550   16.6450 N.3   122  HIS122     -0.1226
     11  CA       -35.8820   85.8790   16.3600 C.3   122  HIS122      0.1752
     12  C        -36.3470   84.7110   15.4900 C.2   122  HIS122      0.2596
     13  O        -36.1520   83.5330   15.8080 O.2   122  HIS122     -0.2718
     14  CB       -35.2150   85.4470   17.6690 C.3   122  HIS122      0.0759
     15  CG       -33.8140   84.9420   17.5330 C.ar  122  HIS122      0.0818
     16  ND1      -32.8210   85.3420   18.4060 N.ar  122  HIS122     -0.2268
     17  CD2      -33.2640   84.0120   16.7130 C.ar  122  HIS122      0.1154
     18  CE1      -31.7150   84.6820   18.1150 C.ar  122  HIS122      0.1986
     19  NE2      -31.9590   83.8550   17.1130 N.ar  122  HIS122     -0.2212
     20  N        -36.9680   85.0670   14.3630 N.am  123  TRP123     -0.1976
     21  CA       -37.1040   84.2160   13.1650 C.3   123  TRP123      0.1640
     22  C        -38.4050   83.4270   13.0720 C.2   123  TRP123      0.2290
     23  O        -38.6350   82.7500   12.0760 O.2   123  TRP123     -0.2864
     24  CB       -35.9070   83.2980   12.9110 C.3   123  TRP123      0.0576
     25  CG       -34.5680   83.9580   12.8600 C.ar  123  TRP123      0.0006
     26  CD1      -34.2670   85.2830   12.9710 C.ar  123  TRP123      0.0946
     27  CD2      -33.3330   83.2730   12.6700 C.ar  123  TRP123      0.0152
     28  NE1      -32.9090   85.4660   12.8610 N.ar  123  TRP123     -0.2442
     29  CE2      -32.3150   84.2480   12.6500 C.ar  123  TRP123      0.0810
     30  CE3      -32.9920   81.9260   12.4710 C.ar  123  TRP123      0.0012
     31  CZ2      -30.9650   83.9070   12.4860 C.ar  123  TRP123      0.0191
     32  CZ3      -31.6700   81.5850   12.2930 C.ar  123  TRP123      0.0001
     33  CH2      -30.6690   82.5740   12.2930 C.ar  123  TRP123      0.0015
     34  N        -33.5970   90.1180   15.4830 N.3   166  ASN166     -0.1225
     35  CA       -32.3430   89.3980   15.4640 C.3   166  ASN166      0.1785
     36  C        -31.9470   89.0080   14.0420 C.2   166  ASN166      0.2597
     37  O        -32.6690   88.2600   13.3700 O.2   166  ASN166     -0.2718
     38  CB       -32.4320   88.1100   16.2790 C.3   166  ASN166      0.1169
     39  CG       -31.1120   87.3980   16.2610 C.2   166  ASN166      0.2627
     40  OD1      -30.1680   87.8920   16.8660 O.2   166  ASN166     -0.2716
     41  ND2      -31.0180   86.2920   15.5190 N.am  166  ASN166     -0.0877
     42  N        -30.7890   89.4950   13.5950 N.am  167  ASP167     -0.1974
     43  CA       -30.1110   89.0300   12.3960 C.3   167  ASP167      0.1709
     44  C        -31.0190   88.8590   11.1710 C.2   167  ASP167      0.2293
     45  O        -31.1930   87.7450   10.6630 O.2   167  ASP167     -0.2864
     46  CB       -29.3530   87.7450   12.7100 C.3   167  ASP167      0.1436
     47  CG       -28.4720   87.2800   11.5760 C.2   167  ASP167      0.3671
     48  OD1      -28.2470   88.0430   10.6120 O.co2 167  ASP167     -0.2456
     49  OD2      -27.9940   86.1260   11.6760 O.co2 167  ASP167     -0.2456
     50  N        -29.4900   87.0370    8.0780 N.3   170  THR170     -0.1218
     51  CA       -29.7770   85.6190    7.9140 C.3   170  THR170      0.1862
     52  C        -31.2340   85.3770    7.5600 C.2   170  THR170      0.2287
     53  O        -31.5210   84.6280    6.6180 O.2   170  THR170     -0.2866
     54  CB       -29.3890   84.8000    9.1510 C.3   170  THR170      0.1770
     55  OG1      -27.9770   84.9480    9.3710 O.3   170  THR170     -0.2211
     56  CG2      -29.7520   83.3390    8.9490 C.3   170  THR170      0.0375
     57  N        -33.5730   78.3170    5.2360 N.3   181  MET181     -0.1245
     58  CA       -34.2610   78.8840    6.3840 C.3   181  MET181      0.1570
     59  C        -35.7200   79.1480    6.0780 C.2   181  MET181      0.2261
     60  O        -36.0490   79.5430    4.9510 O.2   181  MET181     -0.2867
     61  CB       -33.6090   80.2380    6.7240 C.3   181  MET181      0.0387
     62  CG       -32.1920   80.1450    7.2690 C.3   181  MET181      0.0595
     63  SD       -32.1620   79.4260    8.9430 S.3   181  MET181     -0.1393
     64  CE       -30.4050   79.4340    9.3130 C.3   181  MET181      0.0692
     65  N        -25.8770   90.4500   12.6180 N.3   227  ASN227     -0.1240
     66  CA       -24.7770   89.5160   12.4610 C.3   227  ASN227      0.1653
     67  C        -23.8210   89.9990   11.3770 C.2   227  ASN227      0.2266
     68  O        -24.2490   90.4480   10.3180 O.2   227  ASN227     -0.2867
     69  CB       -25.3250   88.1280   12.1430 C.3   227  ASN227      0.1155
     70  CG       -24.2260   87.1130   11.8690 C.2   227  ASN227      0.2627
     71  OD1      -24.2150   86.5070   10.8110 O.2   227  ASN227     -0.2716
     72  ND2      -23.2600   86.9850   12.7740 N.am  227  ASN227     -0.0877
     73  N        -19.7670   88.8600    9.7870 N.3   229  ASN229     -0.1240
     74  CA       -18.4360   88.2540    9.7750 C.3   229  ASN229      0.1653
     75  C        -17.3750   89.2970    9.4610 C.2   229  ASN229      0.2266
     76  O        -17.6080   90.1920    8.6440 O.2   229  ASN229     -0.2867
     77  CB       -18.3340   87.1870    8.6750 C.3   229  ASN229      0.1155
     78  CG       -19.3450   86.0470    8.8100 C.2   229  ASN229      0.2627
     79  OD1      -19.7920   85.4800    7.8000 O.2   229  ASN229     -0.2716
     80  ND2      -19.7240   85.7190   10.0190 N.am  229  ASN229     -0.0877
     81  N        -23.9830   90.3040   16.6160 N.3   309  ASN309     -0.1240
     82  CA       -23.7540   88.8710   16.7030 C.3   309  ASN309      0.1653
     83  C        -22.5000   88.5800   15.9030 C.2   309  ASN309      0.2266
     84  O        -22.4510   88.8160   14.6950 O.2   309  ASN309     -0.2867
     85  CB       -24.9450   88.1140   16.1060 C.3   309  ASN309      0.1155
     86  CG       -26.2360   88.3690   16.8410 C.2   309  ASN309      0.2627
     87  OD1      -26.2510   88.8940   17.9570 O.2   309  ASN309     -0.2716
     88  ND2      -27.3380   87.9560   16.2350 N.am  309  ASN309     -0.0877
     89  N        -19.3800   85.7090   15.0990 N.3   311  TYR311     -0.1241
     90  CA       -18.9470   84.3170   15.1860 C.3   311  TYR311      0.1605
     91  C        -17.6240   84.0170   14.4930 C.2   311  TYR311      0.2264
     92  O        -16.8750   83.1630   14.9730 O.2   311  TYR311     -0.2867
     93  CB       -20.0020   83.3880   14.5790 C.3   311  TYR311      0.0534
     94  CG       -21.2580   83.2930   15.3910 C.ar  311  TYR311     -0.0201
     95  CD1      -21.3720   82.3700   16.4250 C.ar  311  TYR311     -0.0009
     96  CD2      -22.3290   84.1400   15.1600 C.ar  311  TYR311     -0.0009
     97  CE1      -22.5180   82.2820   17.1860 C.ar  311  TYR311      0.0417
     98  CE2      -23.4900   84.0580   15.9200 C.ar  311  TYR311      0.0417
     99  CZ       -23.5830   83.1270   16.9310 C.ar  311  TYR311      0.1957
    100  OH       -24.7180   83.0040   17.6950 O.3   311  TYR311     -0.2866
    101  N        -19.8380   74.0730    9.4100 N.3   347  SER347     -0.1202
    102  CA       -19.0270   74.3080    8.2210 C.3   347  SER347      0.2020
    103  C        -18.6500   75.7780    8.0280 C.2   347  SER347      0.2618
    104  O        -17.5860   76.1040    7.5060 O.2   347  SER347     -0.2717
    105  CB       -19.7390   73.7790    6.9640 C.3   347  SER347      0.2103
    106  OG       -21.0210   74.3670    6.8110 O.3   347  SER347     -0.2182
    107  N        -19.5550   76.6610    8.4220 N.am  348  TRP348     -0.1975
    108  CA       -19.4060   78.0910    8.2090 C.3   348  TRP348      0.1640
    109  C        -18.5600   78.7910    9.2820 C.2   348  TRP348      0.2290
    110  O        -18.1660   79.9520    9.1090 O.2   348  TRP348     -0.2864
    111  CB       -20.7990   78.7350    8.1250 C.3   348  TRP348      0.0576
    112  CG       -21.6130   78.5190    9.3720 C.ar  348  TRP348      0.0006
    113  CD1      -22.4670   77.4850    9.6320 C.ar  348  TRP348      0.0946
    114  CD2      -21.6160   79.3480   10.5400 C.ar  348  TRP348      0.0152
    115  NE1      -23.0040   77.6200   10.8830 N.ar  348  TRP348     -0.2442
    116  CE2      -22.4940   78.7470   11.4720 C.ar  348  TRP348      0.0810
    117  CE3      -20.9860   80.5560   10.8810 C.ar  348  TRP348      0.0012
    118  CZ2      -22.7550   79.3050   12.7330 C.ar  348  TRP348      0.0191
    119  CZ3      -21.2430   81.1030   12.1410 C.ar  348  TRP348      0.0001
    120  CH2      -22.1230   80.4790   13.0480 C.ar  348  TRP348      0.0015
    121  N        -24.5930   87.9920   20.6330 N.3   376  GLU376     -0.1245
    122  CA       -24.2310   86.5880   20.4280 C.3   376  GLU376      0.1567
    123  C        -22.7620   86.4720   20.0990 C.2   376  GLU376      0.2260
    124  O        -22.2090   87.2530   19.3290 O.2   376  GLU376     -0.2867
    125  CB       -24.9850   85.9420   19.2630 C.3   376  GLU376      0.0388
    126  CG       -26.4810   85.9050   19.4350 C.3   376  GLU376      0.1160
    127  CD       -27.2510   85.3370   18.2540 C.2   376  GLU376      0.3649
    128  OE1      -26.6510   84.7380   17.3430 O.co2 376  GLU376     -0.2457
    129  OE2      -28.4840   85.4920   18.2520 O.co2 376  GLU376     -0.2457
    130  N        -23.6410   83.0650   23.1850 N.3   418  TRP418     -0.1241
    131  CA       -24.5510   82.1400   22.4940 C.3   418  TRP418      0.1605
    132  C        -24.0080   80.7280   22.6480 C.2   418  TRP418      0.2264
    133  O        -22.9500   80.4530   22.0890 O.2   418  TRP418     -0.2867
    134  CB       -24.6840   82.4410   20.9850 C.3   418  TRP418      0.0550
    135  CG       -25.7230   81.5440   20.4100 C.ar  418  TRP418      0.0003
    136  CD1      -25.5360   80.3260   19.8170 C.ar  418  TRP418      0.0946
    137  CD2      -27.1410   81.7380   20.5020 C.ar  418  TRP418      0.0152
    138  NE1      -26.7550   79.7600   19.5230 N.ar  418  TRP418     -0.2442
    139  CE2      -27.7500   80.6130   19.9160 C.ar  418  TRP418      0.0810
    140  CE3      -27.9490   82.7650   21.0170 C.ar  418  TRP418      0.0012
    141  CZ2      -29.1370   80.4750   19.8300 C.ar  418  TRP418      0.0191
    142  CZ3      -29.3310   82.6410   20.8980 C.ar  418  TRP418      0.0001
    143  CH2      -29.9060   81.4950   20.3220 C.ar  418  TRP418      0.0015
    144  N        -30.7680   73.8810   16.6790 N.3   425  GLU425     -0.1231
    145  CA       -29.9150   74.7050   15.8260 C.3   425  GLU425      0.1699
    146  C        -30.4480   74.7490   14.3900 C.2   425  GLU425      0.2592
    147  O        -29.7750   74.3850   13.4270 O.2   425  GLU425     -0.2718
    148  CB       -28.4640   74.2120   15.9530 C.3   425  GLU425      0.0402
    149  CG       -27.4170   74.9300   15.1070 C.3   425  GLU425      0.1161
    150  CD       -27.4070   76.4420   15.1870 C.2   425  GLU425      0.3649
    151  OE1      -27.8050   77.0190   16.2290 O.co2 425  GLU425     -0.2457
    152  OE2      -26.9270   77.0310   14.1910 O.co2 425  GLU425     -0.2457
    153  N        -31.6930   75.2120   14.2720 N.am  426  TRP426     -0.1976
    154  CA       -32.2990   75.4720   12.9720 C.3   426  TRP426      0.1640
    155  C        -32.1690   74.2590   12.0420 C.2   426  TRP426      0.2290
    156  O        -32.5300   73.1410   12.4430 O.2   426  TRP426     -0.2864
    157  CB       -31.7720   76.7930   12.3980 C.3   426  TRP426      0.0576
    158  CG       -31.9150   77.9390   13.3690 C.ar  426  TRP426      0.0006
    159  CD1      -30.8920   78.6350   13.9490 C.ar  426  TRP426      0.0946
    160  CD2      -33.1340   78.5020   13.8930 C.ar  426  TRP426      0.0152
    161  NE1      -31.3940   79.6020   14.7760 N.ar  426  TRP426     -0.2442
    162  CE2      -32.7610   79.5420   14.7600 C.ar  426  TRP426      0.0810
    163  CE3      -34.4990   78.2460   13.6920 C.ar  426  TRP426      0.0012
    164  CZ2      -33.7020   80.3250   15.4330 C.ar  426  TRP426      0.0191
    165  CZ3      -35.4430   79.0200   14.3830 C.ar  426  TRP426      0.0001
    166  CH2      -35.0320   80.0550   15.2250 C.ar  426  TRP426      0.0015
    167  N        -29.8150   72.5060   11.2970 N.3   428  ARG428     -0.1245
    168  CA       -28.8830   71.5050   11.8120 C.3   428  ARG428      0.1563
    169  C        -29.4990   70.6730   12.9270 C.2   428  ARG428      0.2260
    170  O        -28.8540   69.7620   13.4470 O.2   428  ARG428     -0.2867
    171  CB       -27.5800   72.1760   12.2710 C.3   428  ARG428      0.0307
    172  CG       -27.0250   73.2140   11.2840 C.3   428  ARG428      0.0489
    173  CD       -26.8950   72.7070    9.8710 C.3   428  ARG428      0.2205
    174  NE       -26.0500   71.5190    9.8100 N.pl3 428  ARG428     -0.0865
    175  CZ       -25.9670   70.7040    8.7620 C.cat 428  ARG428      0.5346
    176  NH1      -25.1850   69.6340    8.8230 N.pl3 428  ARG428      0.1354
    177  NH2      -26.7060   70.9220    7.6840 N.pl3 428  ARG428      0.1354
    178  N        -24.1800   74.3750   20.6600 N.3   434  PHE434     -0.1241
    179  CA       -23.6270   75.7030   20.9410 C.3   434  PHE434      0.1605
    180  C        -23.7110   76.0560   22.4260 C.2   434  PHE434      0.2264
    181  O        -23.3010   77.1580   22.8120 O.2   434  PHE434     -0.2867
    182  CB       -24.3620   76.7940   20.1390 C.3   434  PHE434      0.0534
    183  CG       -23.8700   76.9670   18.7320 C.ar  434  PHE434     -0.0203
    184  CD1      -22.8470   77.8640   18.4710 C.ar  434  PHE434     -0.0042
    185  CD2      -24.4200   76.2500   17.6690 C.ar  434  PHE434     -0.0042
    186  CE1      -22.3710   78.0590   17.1900 C.ar  434  PHE434     -0.0003
    187  CE2      -23.9430   76.4380   16.3750 C.ar  434  PHE434     -0.0003
    188  CZ       -22.9180   77.3400   16.1380 C.ar  434  PHE434     -0.0000
@<TRIPOS>BOND
     1    60    59    2
     2    57    58    1
     3    59    58    1
     4    58    61    1
     5    53    52    2
     6    61    62    1
     7   106   105    1
     8   105   102    1
     9    62    63    1
    10   104   103    2
    11    52    51    1
    12   177   175    1
    13    79    78    2
    14    51    50    1
    15    51    54    1
    16   103   102    1
    17   103   107   am
    18   111   108    1
    19   111   112    1
    20   108   107    1
    21   108   109    1
    22   102   101    1
    23    76    75    2
    24    77    78    1
    25    77    74    1
    26   175   176    1
    27   175   174    2
    28    78    80   am
    29    63    64    1
    30    56    54    1
    31   110   109    2
    32    54    55    1
    33   112   113   ar
    34   112   114   ar
    35    75    74    1
    36   113   115   ar
    37    74    73    1
    38   174   173    1
    39   173   172    1
    40    68    67    2
    41   114   117   ar
    42   114   116   ar
    43    48    47   ar
    44    45    44    2
    45    71    70    2
    46   117   119   ar
    47   115   116   ar
    48    44    43    1
    49   172   171    1
    50   167   168    1
    51    67    66    1
    52   116   118   ar
    53    47    49   ar
    54    47    46    1
    55   168   171    1
    56   168   169    1
    57    70    69    1
    58    70    72   am
    59   155   156    2
    60   155   154    1
    61    23    22    2
    62   119   120   ar
    63    69    66    1
    64    32    33   ar
    65    32    30   ar
    66    33    31   ar
    67    43    46    1
    68    43    42    1
    69   157   154    1
    70   157   158    1
    71    66    65    1
    72    30    27   ar
    73    31    29   ar
    74    29    27   ar
    75    29    28   ar
    76    27    25   ar
    77   118   120   ar
    78    25    24    1
    79    25    26   ar
    80    28    26   ar
    81    24    21    1
    82   169   170    2
    83   154   153    1
    84    22    21    1
    85    21    20    1
    86   158   160   ar
    87   158   159   ar
    88    37    36    2
    89   147   146    2
    90    42    36   am
    91   163   160   ar
    92   163   165   ar
    93   160   162   ar
    94   159   161   ar
    95    36    35    1
    96   152   150   ar
    97   153   146   am
    98    20    12   am
    99   165   166   ar
   100   146   145    1
   101    91    92    2
   102    91    90    1
   103    93    90    1
   104    93    94    1
   105    84    83    2
   106   162   161   ar
   107   162   164   ar
   108    89    90    1
   109   149   150    1
   110   149   148    1
   111    96    94   ar
   112    96    98   ar
   113   150   151   ar
   114   166   164   ar
   115    94    95   ar
   116    35    34    1
   117    35    38    1
   118    12    13    2
   119    12    11    1
   120    41    39   am
   121   145   148    1
   122   145   144    1
   123    83    82    1
   124    98    99   ar
   125    85    82    1
   126    85    86    1
   127   188   187   ar
   128   188   186   ar
   129    88    86   am
   130    39    38    1
   131    39    40    2
   132    11    10    1
   133    11    14    1
   134   187   185   ar
   135    95    97   ar
   136    81    82    1
   137    17    19   ar
   138    17    15   ar
   139    86    87    2
   140    99    97   ar
   141    99   100    1
   142    19    18   ar
   143   186   184   ar
   144   128   127   ar
   145    15    14    1
   146    15    16   ar
   147     9     7   am
   148   185   183   ar
   149     7     8    2
   150     7     6    1
   151    18    16   ar
   152     6     5    1
   153   129   127   ar
   154   127   126    1
   155   184   183   ar
   156   183   182    1
   157   125   126    1
   158   125   122    1
   159   124   123    2
   160     1     2    1
   161   138   136   ar
   162   138   139   ar
   163     5     2    1
   164     2     3    1
   165   136   135   ar
   166   141   139   ar
   167   141   143   ar
   168   139   137   ar
   169   123   122    1
   170   182   179    1
   171   143   142   ar
   172   135   137   ar
   173   135   134    1
   174   122   121    1
   175   137   140   ar
   176   178   179    1
   177   142   140   ar
   178   179   180    1
   179   134   131    1
   180     3     4    2
   181   133   132    2
   182   180   181    2
   183   131   132    1
   184   131   130    1
