@<TRIPOS>MOLECULE
tmp/3vipA00.pdb
 217 211 0 0 0
SMALL
GASTEIGER

@<TRIPOS>ATOM
      1  N        -35.7470   78.0350   19.4800 N.3    19  GLN19      -0.1245
      2  CA       -34.6250   77.1360   19.7300 C.3    19  GLN19       0.1566
      3  C        -34.7440   76.4070   21.0670 C.2    19  GLN19       0.2260
      4  O        -34.1480   75.3380   21.2330 O.2    19  GLN19      -0.2867
      5  CB       -33.3020   77.8780   19.5820 C.3    19  GLN19       0.0367
      6  CG       -33.1840   78.5140   18.2190 C.3    19  GLN19       0.0905
      7  CD       -31.7930   79.0430   17.9490 C.2    19  GLN19       0.2608
      8  OE1      -31.5590   80.2520   18.0710 O.2    19  GLN19      -0.2717
      9  NE2      -30.8530   78.1480   17.6360 N.am   19  GLN19      -0.0878
     10  N        -36.8780   86.8310   16.6960 N.3   122  HIS122     -0.1226
     11  CA       -35.7660   85.9470   16.3710 C.3   122  HIS122      0.1752
     12  C        -36.2460   84.7880   15.4930 C.2   122  HIS122      0.2596
     13  O        -36.0470   83.6150   15.8110 O.2   122  HIS122     -0.2718
     14  CB       -35.0840   85.4800   17.6610 C.3   122  HIS122      0.0759
     15  CG       -33.6940   84.9600   17.5030 C.ar  122  HIS122      0.0818
     16  ND1      -32.6880   85.3060   18.3780 N.ar  122  HIS122     -0.2268
     17  CD2      -33.1590   84.0560   16.6470 C.ar  122  HIS122      0.1154
     18  CE1      -31.5850   84.6570   18.0540 C.ar  122  HIS122      0.1986
     19  NE2      -31.8470   83.8730   17.0220 N.ar  122  HIS122     -0.2212
     20  N        -36.8640   85.1420   14.3630 N.am  123  TRP123     -0.1976
     21  CA       -37.0130   84.3000   13.1730 C.3   123  TRP123      0.1640
     22  C        -38.3170   83.5110   13.0800 C.2   123  TRP123      0.2290
     23  O        -38.5440   82.8550   12.0720 O.2   123  TRP123     -0.2864
     24  CB       -35.8180   83.3810   12.9300 C.3   123  TRP123      0.0576
     25  CG       -34.4710   84.0420   12.8760 C.ar  123  TRP123      0.0006
     26  CD1      -34.1600   85.3690   12.9820 C.ar  123  TRP123      0.0946
     27  CD2      -33.2420   83.3540   12.6730 C.ar  123  TRP123      0.0152
     28  NE1      -32.8020   85.5400   12.8840 N.ar  123  TRP123     -0.2442
     29  CE2      -32.2090   84.3230   12.6650 C.ar  123  TRP123      0.0810
     30  CE3      -32.9100   82.0030   12.4960 C.ar  123  TRP123      0.0012
     31  CZ2      -30.8550   83.9780   12.4830 C.ar  123  TRP123      0.0191
     32  CZ3      -31.5820   81.6620   12.2800 C.ar  123  TRP123      0.0001
     33  CH2      -30.5710   82.6460   12.2880 C.ar  123  TRP123      0.0015
     34  N        -33.5050   90.2060   15.5300 N.3   166  ASN166     -0.1225
     35  CA       -32.2440   89.4940   15.5320 C.3   166  ASN166      0.1785
     36  C        -31.8490   89.1120   14.1170 C.2   166  ASN166      0.2597
     37  O        -32.5500   88.3180   13.4800 O.2   166  ASN166     -0.2718
     38  CB       -32.3140   88.2220   16.3560 C.3   166  ASN166      0.1169
     39  CG       -30.9670   87.5550   16.4050 C.2   166  ASN166      0.2627
     40  OD1      -30.0470   88.1030   16.9970 O.2   166  ASN166     -0.2716
     41  ND2      -30.8140   86.4250   15.7170 N.am  166  ASN166     -0.0877
     42  N        -30.7350   89.6600   13.6520 N.am  167  ASP167     -0.1974
     43  CA       -30.0560   89.1770   12.4470 C.3   167  ASP167      0.1709
     44  C        -30.9640   89.0010   11.2230 C.2   167  ASP167      0.2293
     45  O        -31.1370   87.8930   10.7070 O.2   167  ASP167     -0.2864
     46  CB       -29.2680   87.9150   12.7720 C.3   167  ASP167      0.1436
     47  CG       -28.3860   87.4560   11.6300 C.2   167  ASP167      0.3671
     48  OD1      -28.1870   88.2090   10.6490 O.co2 167  ASP167     -0.2456
     49  OD2      -27.8870   86.3140   11.7250 O.co2 167  ASP167     -0.2456
     50  N        -29.4140   87.1960    8.1240 N.3   170  THR170     -0.1218
     51  CA       -29.6730   85.7660    7.9660 C.3   170  THR170      0.1862
     52  C        -31.1390   85.5060    7.6200 C.2   170  THR170      0.2287
     53  O        -31.4200   84.7520    6.6830 O.2   170  THR170     -0.2866
     54  CB       -29.2690   84.9780    9.2220 C.3   170  THR170      0.1770
     55  OG1      -27.8600   85.1480    9.4230 O.3   170  THR170     -0.2211
     56  CG2      -29.5910   83.5080    9.0340 C.3   170  THR170      0.0375
     57  N        -32.5130   85.6000    4.1440 N.3   173  ASP173     -0.1239
     58  CA       -32.1180   84.4570    3.3100 C.3   173  ASP173      0.1674
     59  C        -33.2150   83.4050    3.2270 C.2   173  ASP173      0.2266
     60  O        -33.1730   82.5330    2.3560 O.2   173  ASP173     -0.2867
     61  CB       -30.8460   83.7690    3.8240 C.3   173  ASP173      0.1410
     62  CG       -29.5790   84.4990    3.4350 C.2   173  ASP173      0.3668
     63  OD1      -29.6550   85.4250    2.6100 O.co2 173  ASP173     -0.2456
     64  OD2      -28.5030   84.1410    3.9650 O.co2 173  ASP173     -0.2456
     65  N        -33.5310   78.4090    5.2260 N.3   181  MET181     -0.1245
     66  CA       -34.1890   78.9990    6.3930 C.3   181  MET181      0.1570
     67  C        -35.6620   79.2410    6.0940 C.2   181  MET181      0.2261
     68  O        -35.9890   79.6720    4.9800 O.2   181  MET181     -0.2867
     69  CB       -33.5390   80.3680    6.6900 C.3   181  MET181      0.0387
     70  CG       -32.1350   80.3620    7.3310 C.3   181  MET181      0.0595
     71  SD       -32.0580   79.5650    8.9500 S.3   181  MET181     -0.1393
     72  CE       -30.3050   79.6010    9.3180 C.3   181  MET181      0.0692
     73  N        -25.7930   90.6000   12.6210 N.3   227  ASN227     -0.1240
     74  CA       -24.6970   89.6600   12.4940 C.3   227  ASN227      0.1653
     75  C        -23.7510   90.1380   11.4020 C.2   227  ASN227      0.2266
     76  O        -24.1880   90.6230   10.3570 O.2   227  ASN227     -0.2867
     77  CB       -25.2400   88.2700   12.1410 C.3   227  ASN227      0.1155
     78  CG       -24.1400   87.2490   11.8840 C.2   227  ASN227      0.2627
     79  OD1      -24.0900   86.6780   10.8030 O.2   227  ASN227     -0.2716
     80  ND2      -23.2250   87.0670   12.8380 N.am  227  ASN227     -0.0877
     81  N        -19.6800   88.9620    9.7920 N.3   229  ASN229     -0.1240
     82  CA       -18.3570   88.3490    9.7950 C.3   229  ASN229      0.1653
     83  C        -17.2860   89.3840    9.4990 C.2   229  ASN229      0.2266
     84  O        -17.5110   90.2820    8.6790 O.2   229  ASN229     -0.2867
     85  CB       -18.2650   87.2730    8.6990 C.3   229  ASN229      0.1155
     86  CG       -19.2500   86.1180    8.8900 C.2   229  ASN229      0.2627
     87  OD1      -19.6430   85.7750   10.0100 O.2   229  ASN229     -0.2716
     88  ND2      -19.6540   85.5190    7.7760 N.am  229  ASN229     -0.0877
     89  N        -23.9030   90.4320   16.6290 N.3   309  ASN309     -0.1240
     90  CA       -23.6800   88.9990   16.7090 C.3   309  ASN309      0.1653
     91  C        -22.4240   88.7070   15.9110 C.2   309  ASN309      0.2266
     92  O        -22.3730   88.9900   14.7090 O.2   309  ASN309     -0.2867
     93  CB       -24.8680   88.2480   16.1150 C.3   309  ASN309      0.1155
     94  CG       -26.1450   88.4920   16.8740 C.2   309  ASN309      0.2627
     95  OD1      -26.1090   89.0110   17.9930 O.2   309  ASN309     -0.2716
     96  ND2      -27.2690   88.0990   16.2900 N.am  309  ASN309     -0.0877
     97  N        -19.3310   85.7800   15.0780 N.3   311  TYR311     -0.1241
     98  CA       -18.9010   84.3890   15.1620 C.3   311  TYR311      0.1605
     99  C        -17.5760   84.0810   14.4760 C.2   311  TYR311      0.2264
    100  O        -16.8340   83.2360   14.9640 O.2   311  TYR311     -0.2867
    101  CB       -19.9660   83.4710   14.5580 C.3   311  TYR311      0.0534
    102  CG       -21.2160   83.3620   15.3720 C.ar  311  TYR311     -0.0201
    103  CD1      -21.3400   82.4100   16.3810 C.ar  311  TYR311     -0.0009
    104  CD2      -22.2740   84.2370   15.1620 C.ar  311  TYR311     -0.0009
    105  CE1      -22.5000   82.3260   17.1360 C.ar  311  TYR311      0.0417
    106  CE2      -23.4340   84.1510   15.9100 C.ar  311  TYR311      0.0417
    107  CZ       -23.5490   83.1970   16.9020 C.ar  311  TYR311      0.1957
    108  OH       -24.6860   83.0630   17.6560 O.3   311  TYR311     -0.2866
    109  N        -14.1250   85.6690    7.1650 N.3   314  LEU314     -0.1245
    110  CA       -13.9110   85.1720    5.8150 C.3   314  LEU314      0.1561
    111  C        -12.7100   85.8970    5.2220 C.2   314  LEU314      0.2260
    112  O        -12.2860   86.9300    5.7450 O.2   314  LEU314     -0.2867
    113  CB       -15.1440   85.4870    4.9700 C.3   314  LEU314      0.0270
    114  CG       -16.4560   84.8250    5.4020 C.3   314  LEU314      0.0019
    115  CD1      -17.6450   85.3780    4.6150 C.3   314  LEU314      0.0001
    116  CD2      -16.3970   83.3200    5.2280 C.3   314  LEU314      0.0001
    117  N        -15.5340   85.1360   -1.7030 N.3   335  LEU335     -0.1231
    118  CA       -15.3590   84.7980   -0.2920 C.3   335  LEU335      0.1693
    119  C        -14.8630   83.3750   -0.1040 C.2   335  LEU335      0.2593
    120  O        -15.3940   82.4290   -0.6930 O.2   335  LEU335     -0.2718
    121  CB       -16.6980   84.9520    0.4330 C.3   335  LEU335      0.0284
    122  CG       -17.2280   86.3870    0.4610 C.3   335  LEU335      0.0019
    123  CD1      -18.6910   86.3690    0.9000 C.3   335  LEU335      0.0001
    124  CD2      -16.3880   87.2920    1.3640 C.3   335  LEU335      0.0001
    125  N        -13.8630   83.2270    0.7520 N.am  336  THR336     -0.1939
    126  CA       -13.3250   81.9120    1.0860 C.3   336  THR336      0.2028
    127  C        -12.9940   81.9040    2.5890 C.2   336  THR336      0.2642
    128  O        -13.1740   82.9060    3.2850 O.2   336  THR336     -0.2714
    129  CB       -12.0410   81.6130    0.2610 C.3   336  THR336      0.1808
    130  OG1      -11.0770   82.6460    0.5120 O.3   336  THR336     -0.2208
    131  CG2      -12.3130   81.5060   -1.2360 C.3   336  THR336      0.0379
    132  N        -12.5210   80.7620    3.0740 N.am  337  GLN337     -0.1976
    133  CA       -11.9590   80.7170    4.4210 C.3   337  GLN337      0.1601
    134  C        -10.5620   80.1040    4.3250 C.2   337  GLN337      0.2287
    135  O        -10.2230   79.3700    3.3930 O.2   337  GLN337     -0.2864
    136  CB       -12.8900   80.0480    5.4650 C.3   337  GLN337      0.0394
    137  CG       -14.0830   80.9320    5.9260 C.3   337  GLN337      0.0908
    138  CD       -15.1040   80.2660    6.8790 C.2   337  GLN337      0.2608
    139  OE1      -15.5260   79.1280    6.6300 O.2   337  GLN337     -0.2717
    140  NE2      -15.5500   81.0010    7.9430 N.am  337  GLN337     -0.0878
    141  N        -19.7660   74.1580    9.3290 N.3   347  SER347     -0.1202
    142  CA       -18.9410   74.4110    8.1460 C.3   347  SER347      0.2020
    143  C        -18.5910   75.8800    7.9550 C.2   347  SER347      0.2618
    144  O        -17.5450   76.2100    7.4160 O.2   347  SER347     -0.2717
    145  CB       -19.6400   73.8740    6.8840 C.3   347  SER347      0.2103
    146  OG       -20.8960   74.4920    6.7150 O.3   347  SER347     -0.2182
    147  N        -19.4910   76.7530    8.3780 N.am  348  TRP348     -0.1975
    148  CA       -19.3570   78.1820    8.1850 C.3   348  TRP348      0.1640
    149  C        -18.5140   78.8690    9.2670 C.2   348  TRP348      0.2290
    150  O        -18.1270   80.0340    9.1130 O.2   348  TRP348     -0.2864
    151  CB       -20.7610   78.8000    8.1400 C.3   348  TRP348      0.0576
    152  CG       -21.5670   78.5700    9.3920 C.ar  348  TRP348      0.0006
    153  CD1      -22.4400   77.5460    9.6470 C.ar  348  TRP348      0.0946
    154  CD2      -21.5770   79.4000   10.5590 C.ar  348  TRP348      0.0152
    155  NE1      -22.9750   77.6800   10.9070 N.ar  348  TRP348     -0.2442
    156  CE2      -22.4570   78.8030   11.4910 C.ar  348  TRP348      0.0810
    157  CE3      -20.9300   80.5980   10.9130 C.ar  348  TRP348      0.0012
    158  CZ2      -22.7090   79.3600   12.7480 C.ar  348  TRP348      0.0191
    159  CZ3      -21.1810   81.1530   12.1750 C.ar  348  TRP348      0.0001
    160  CH2      -22.0650   80.5280   13.0730 C.ar  348  TRP348      0.0015
    161  N        -24.5660   88.0650   20.6340 N.3   376  GLU376     -0.1245
    162  CA       -24.2210   86.6620   20.4080 C.3   376  GLU376      0.1567
    163  C        -22.7400   86.5440   20.0910 C.2   376  GLU376      0.2260
    164  O        -22.1850   87.3280   19.3160 O.2   376  GLU376     -0.2867
    165  CB       -24.9720   86.0400   19.2240 C.3   376  GLU376      0.0388
    166  CG       -26.4700   86.0100   19.3960 C.3   376  GLU376      0.1160
    167  CD       -27.2490   85.4260   18.2390 C.2   376  GLU376      0.3649
    168  OE1      -26.6570   84.7720   17.3630 O.co2 376  GLU376     -0.2457
    169  OE2      -28.4830   85.6010   18.2270 O.co2 376  GLU376     -0.2457
    170  N        -23.5560   83.1640   23.2910 N.3   418  TRP418     -0.1241
    171  CA       -24.4760   82.2660   22.5990 C.3   418  TRP418      0.1605
    172  C        -23.9480   80.8360   22.7060 C.2   418  TRP418      0.2264
    173  O        -22.8660   80.5650   22.1590 O.2   418  TRP418     -0.2867
    174  CB       -24.5970   82.6140   21.1050 C.3   418  TRP418      0.0550
    175  CG       -25.6420   81.7380   20.4860 C.ar  418  TRP418      0.0003
    176  CD1      -25.4610   80.5590   19.8210 C.ar  418  TRP418      0.0946
    177  CD2      -27.0530   81.9410   20.5760 C.ar  418  TRP418      0.0152
    178  NE1      -26.6820   80.0180   19.4770 N.ar  418  TRP418     -0.2442
    179  CE2      -27.6740   80.8590   19.9140 C.ar  418  TRP418      0.0810
    180  CE3      -27.8500   82.9530   21.1340 C.ar  418  TRP418      0.0012
    181  CZ2      -29.0580   80.7490   19.8020 C.ar  418  TRP418      0.0191
    182  CZ3      -29.2320   82.8640   20.9860 C.ar  418  TRP418      0.0001
    183  CH2      -29.8170   81.7580   20.3390 C.ar  418  TRP418      0.0015
    184  N        -30.8000   73.8690   16.6370 N.3   425  GLU425     -0.1231
    185  CA       -29.9290   74.6950   15.8020 C.3   425  GLU425      0.1699
    186  C        -30.4470   74.7720   14.3670 C.2   425  GLU425      0.2592
    187  O        -29.7620   74.4440   13.3970 O.2   425  GLU425     -0.2718
    188  CB       -28.4810   74.2010   15.9410 C.3   425  GLU425      0.0402
    189  CG       -27.3920   74.9400   15.1600 C.3   425  GLU425      0.1161
    190  CD       -27.4320   76.4650   15.1880 C.2   425  GLU425      0.3649
    191  OE1      -27.7960   77.0330   16.2400 O.co2 425  GLU425     -0.2457
    192  OE2      -27.0380   77.0800   14.1690 O.co2 425  GLU425     -0.2457
    193  N        -31.6930   75.2280   14.2390 N.am  426  TRP426     -0.1976
    194  CA       -32.2850   75.5340   12.9370 C.3   426  TRP426      0.1640
    195  C        -32.1640   74.3320   11.9910 C.2   426  TRP426      0.2290
    196  O        -32.5270   73.2150   12.3780 O.2   426  TRP426     -0.2864
    197  CB       -31.7200   76.8420   12.3840 C.3   426  TRP426      0.0576
    198  CG       -31.8610   77.9730   13.3540 C.ar  426  TRP426      0.0006
    199  CD1      -30.8230   78.6660   13.9210 C.ar  426  TRP426      0.0946
    200  CD2      -33.0750   78.5550   13.8770 C.ar  426  TRP426      0.0152
    201  NE1      -31.3220   79.6380   14.7650 N.ar  426  TRP426     -0.2442
    202  CE2      -32.6920   79.5940   14.7470 C.ar  426  TRP426      0.0810
    203  CE3      -34.4460   78.3050   13.6920 C.ar  426  TRP426      0.0012
    204  CZ2      -33.6280   80.3930   15.4270 C.ar  426  TRP426      0.0191
    205  CZ3      -35.3830   79.1080   14.3690 C.ar  426  TRP426      0.0001
    206  CH2      -34.9650   80.1350   15.2250 C.ar  426  TRP426      0.0015
    207  N        -24.1450   74.4210   20.6220 N.3   434  PHE434     -0.1241
    208  CA       -23.6100   75.7590   20.8960 C.3   434  PHE434      0.1605
    209  C        -23.7120   76.1320   22.3770 C.2   434  PHE434      0.2264
    210  O        -23.2990   77.2280   22.7530 O.2   434  PHE434     -0.2867
    211  CB       -24.3430   76.8290   20.0720 C.3   434  PHE434      0.0534
    212  CG       -23.8400   76.9790   18.6680 C.ar  434  PHE434     -0.0203
    213  CD1      -22.8470   77.9050   18.3870 C.ar  434  PHE434     -0.0042
    214  CD2      -24.3730   76.2210   17.6340 C.ar  434  PHE434     -0.0042
    215  CE1      -22.3640   78.0680   17.0960 C.ar  434  PHE434     -0.0003
    216  CE2      -23.8910   76.3710   16.3330 C.ar  434  PHE434     -0.0003
    217  CZ       -22.8830   77.3150   16.0630 C.ar  434  PHE434     -0.0000
@<TRIPOS>BOND
     1   117   118    1
     2   131   129    1
     3   120   119    2
     4   118   119    1
     5   118   121    1
     6   119   125   am
     7   129   130    1
     8   129   126    1
     9   121   122    1
    10   122   123    1
    11   122   124    1
    12   125   126    1
    13   126   127    1
    14    60    59    2
    15   127   132   am
    16   127   128    2
    17    63    62   ar
    18   132   133    1
    19    59    58    1
    20    58    61    1
    21    58    57    1
    22   135   134    2
    23    62    61    1
    24    62    64   ar
    25   134   133    1
    26   133   136    1
    27   115   114    1
    28   113   114    1
    29   113   110    1
    30    68    67    2
    31   111   112    2
    32   111   110    1
    33    65    66    1
    34   116   114    1
    35   136   137    1
    36   110   109    1
    37   137   138    1
    38    67    66    1
    39    66    69    1
    40   139   138    2
    41    53    52    2
    42    69    70    1
    43   146   145    1
    44   138   140   am
    45   145   142    1
    46    70    71    1
    47   144   143    2
    48    52    51    1
    49    88    86   am
    50   143   142    1
    51   143   147   am
    52    51    50    1
    53    51    54    1
    54   151   148    1
    55   151   152    1
    56   142   141    1
    57   148   147    1
    58   148   149    1
    59    84    83    2
    60    85    86    1
    61    85    82    1
    62    86    87    2
    63    71    72    1
    64    56    54    1
    65   150   149    2
    66    54    55    1
    67   152   153   ar
    68   152   154   ar
    69    83    82    1
    70   153   155   ar
    71    81    82    1
    72    76    75    2
    73   154   157   ar
    74   154   156   ar
    75    48    47   ar
    76    45    44    2
    77    79    78    2
    78   155   156   ar
    79   157   159   ar
    80    44    43    1
    81    75    74    1
    82   156   158   ar
    83    47    49   ar
    84    47    46    1
    85    78    77    1
    86    78    80   am
    87   195   196    2
    88   195   194    1
    89    23    22    2
    90    77    74    1
    91   159   160   ar
    92    32    33   ar
    93    32    30   ar
    94    33    31   ar
    95   197   194    1
    96   197   198    1
    97    43    46    1
    98    43    42    1
    99    31    29   ar
   100    74    73    1
   101    30    27   ar
   102    29    27   ar
   103    29    28   ar
   104    27    25   ar
   105   158   160   ar
   106    25    24    1
   107    25    26   ar
   108    28    26   ar
   109    24    21    1
   110   194   193    1
   111    22    21    1
   112    21    20    1
   113   198   200   ar
   114   198   199   ar
   115   187   186    2
   116    37    36    2
   117    42    36   am
   118   203   200   ar
   119   203   205   ar
   120   200   202   ar
   121   199   201   ar
   122    36    35    1
   123   192   190   ar
   124   193   186   am
   125    20    12   am
   126   186   185    1
   127   205   206   ar
   128    99   100    2
   129    99    98    1
   130   101    98    1
   131   101   102    1
   132    92    91    2
   133   202   201   ar
   134   202   204   ar
   135    97    98    1
   136   189   190    1
   137   189   188    1
   138   104   102   ar
   139   104   106   ar
   140   190   191   ar
   141   206   204   ar
   142   102   103   ar
   143    12    13    2
   144    12    11    1
   145    34    35    1
   146    35    38    1
   147    41    39   am
   148   185   188    1
   149   185   184    1
   150   106   107   ar
   151    91    90    1
   152   217   216   ar
   153   217   215   ar
   154    93    90    1
   155    93    94    1
   156    96    94   am
   157   216   214   ar
   158    38    39    1
   159    11    10    1
   160    11    14    1
   161   103   105   ar
   162    39    40    2
   163    89    90    1
   164    17    19   ar
   165    17    15   ar
   166    94    95    2
   167   107   105   ar
   168   107   108    1
   169    19    18   ar
   170   215   213   ar
   171   168   167   ar
   172    15    14    1
   173    15    16   ar
   174   214   212   ar
   175     9     7   am
   176     7     8    2
   177     7     6    1
   178    18    16   ar
   179     6     5    1
   180   169   167   ar
   181   167   166    1
   182   213   212   ar
   183   212   211    1
   184   165   166    1
   185   165   162    1
   186   164   163    2
   187   178   176   ar
   188   178   179   ar
   189     1     2    1
   190     5     2    1
   191     2     3    1
   192   181   179   ar
   193   181   183   ar
   194   176   175   ar
   195   179   177   ar
   196   211   208    1
   197   163   162    1
   198   183   182   ar
   199   162   161    1
   200   175   177   ar
   201   175   174    1
   202   177   180   ar
   203   207   208    1
   204   208   209    1
   205   182   180   ar
   206     3     4    2
   207   174   171    1
   208   173   172    2
   209   209   210    2
   210   171   172    1
   211   171   170    1
