@<TRIPOS>MOLECULE
tmp/3visB00.pdb
 92 91 0 0 0
SMALL
GASTEIGER

@<TRIPOS>ATOM
      1  N         20.7950  -12.5930   12.3930 N.3    60  TYR60      -0.1227
      2  CA        20.5680  -13.8860   13.0670 C.3    60  TYR60       0.1736
      3  C         19.1320  -14.0570   13.5510 C.2    60  TYR60       0.2596
      4  O         18.5370  -13.1810   14.2090 O.2    60  TYR60      -0.2718
      5  CB        21.5650  -13.9300   14.2190 C.3    60  TYR60       0.0548
      6  CG        21.7640  -15.2560   14.9200 C.ar   60  TYR60      -0.0200
      7  CD1       22.5430  -16.2560   14.3690 C.ar   60  TYR60      -0.0009
      8  CD2       21.2850  -15.4360   16.2220 C.ar   60  TYR60      -0.0009
      9  CE1       22.8150  -17.4720   15.1020 C.ar   60  TYR60       0.0417
     10  CE2       21.5690  -16.5960   16.9460 C.ar   60  TYR60       0.0417
     11  CZ        22.3020  -17.6250   16.3470 C.ar   60  TYR60       0.1957
     12  OH        22.5360  -18.7990   17.0450 O.3    60  TYR60      -0.2866
     13  N         18.5640  -15.2240   13.2130 N.am   61  THR61      -0.1953
     14  CA        17.1420  -15.5680   13.3900 C.3    61  THR61       0.1897
     15  C         16.1860  -14.8310   12.4290 C.2    61  THR61       0.2313
     16  O         14.9760  -15.1050   12.3670 O.2    61  THR61      -0.2863
     17  CB        16.6450  -15.4290   14.8800 C.3    61  THR61       0.1794
     18  OG1       16.4460  -14.0400   15.1820 O.3    61  THR61      -0.2208
     19  CG2       17.6820  -16.0480   15.8600 C.3    61  THR61       0.0378
     20  N         26.4190  -17.4180   10.3370 N.3    92  GLN92      -0.1245
     21  CA        27.2540  -16.4080   10.9720 C.3    92  GLN92       0.1566
     22  C         27.6360  -15.2740    9.9340 C.2    92  GLN92       0.2260
     23  O         27.3520  -15.3980    8.7380 O.2    92  GLN92      -0.2867
     24  CB        28.5150  -17.0720   11.5750 C.3    92  GLN92       0.0367
     25  CG        28.1780  -18.0970   12.7260 C.3    92  GLN92       0.0905
     26  CD        27.6910  -17.4050   14.0170 C.2    92  GLN92       0.2608
     27  OE1       28.2460  -16.4100   14.4410 O.2    92  GLN92      -0.2717
     28  NE2       26.6410  -17.9460   14.6410 N.am   92  GLN92      -0.0878
     29  N         22.5740   -6.2020   11.5720 N.3   130  SER130     -0.1202
     30  CA        23.1360   -7.0100   12.6910 C.3   130  SER130      0.2020
     31  C         24.1340   -8.0270   12.1290 C.2   130  SER130      0.2618
     32  O         25.1300   -7.5920   11.4980 O.2   130  SER130     -0.2717
     33  CB        21.9930   -7.6440   13.5190 C.3   130  SER130      0.2103
     34  OG        22.5160   -8.0610   14.8040 O.3   130  SER130     -0.2182
     35  N         24.0170   -9.3320   12.3130 N.am  131  MET131     -0.1979
     36  CA        25.1040  -10.1790   11.5440 C.3   131  MET131      0.1605
     37  C         25.1740  -10.0020   10.0440 C.2   131  MET131      0.2287
     38  O         26.2520  -10.2260    9.4390 O.2   131  MET131     -0.2864
     39  CB        24.9400  -11.6720   11.8140 C.3   131  MET131      0.0413
     40  CG        25.2170  -12.0350   13.3420 C.3   131  MET131      0.0598
     41  SD        25.2010  -13.8900   13.3890 S.3   131  MET131     -0.1393
     42  CE        25.4660  -14.2480   15.1240 C.3   131  MET131      0.0692
     43  N         26.8060   -6.4620   13.7370 N.3   155  TRP155     -0.1241
     44  CA        27.3370   -7.3620   14.7590 C.3   155  TRP155      0.1605
     45  C         28.4520   -8.1630   14.0370 C.2   155  TRP155      0.2264
     46  O         28.1690   -8.7440   13.0270 O.2   155  TRP155     -0.2867
     47  CB        26.2190   -8.3230   15.1890 C.3   155  TRP155      0.0550
     48  CG        26.5780   -9.1790   16.4190 C.ar  155  TRP155      0.0003
     49  CD1       26.2640   -8.9350   17.7330 C.ar  155  TRP155      0.0946
     50  CD2       27.3620  -10.3770   16.3920 C.ar  155  TRP155      0.0152
     51  NE1       26.7520   -9.9750   18.5210 N.ar  155  TRP155     -0.2442
     52  CE2       27.4850  -10.8330   17.7420 C.ar  155  TRP155      0.0810
     53  CE3       27.9970  -11.1100   15.3430 C.ar  155  TRP155      0.0012
     54  CZ2       28.1740  -11.9980   18.0810 C.ar  155  TRP155      0.0191
     55  CZ3       28.7010  -12.2460   15.6750 C.ar  155  TRP155      0.0001
     56  CH2       28.7540  -12.7150   17.0230 C.ar  155  TRP155      0.0015
     57  N         21.3980   -3.1110   22.8910 N.3   177  THR177     -0.1203
     58  CA        22.0700   -3.9720   23.8460 C.3   177  THR177      0.1994
     59  C         22.5690   -5.3300   23.2640 C.2   177  THR177      0.2617
     60  O         23.1240   -6.1510   23.9990 O.2   177  THR177     -0.2717
     61  CB        21.1410   -4.3440   24.9770 C.3   177  THR177      0.1784
     62  OG1       19.9240   -4.8970   24.4090 O.3   177  THR177     -0.2211
     63  CG2       20.7070   -3.0920   25.7050 C.3   177  THR177      0.0376
     64  N         22.1520   -5.5940   22.0390 N.am  178  ILE178     -0.1979
     65  CA        22.5070   -6.8300   21.3250 C.3   178  ILE178      0.1595
     66  C         23.7710   -6.6540   20.4930 C.2   178  ILE178      0.2287
     67  O         24.6470   -7.5580   20.5360 O.2   178  ILE178     -0.2864
     68  CB        21.3180   -7.2630   20.4870 C.3   178  ILE178      0.0276
     69  CG1       20.2090   -7.8280   21.4780 C.3   178  ILE178      0.0022
     70  CG2       21.6190   -8.4740   19.6340 C.3   178  ILE178      0.0022
     71  CD1       18.9000   -7.9990   20.7080 C.3   178  ILE178      0.0001
     72  N         17.9990   -2.2490   19.0660 N.3   208  HIS208     -0.1226
     73  CA        18.6620   -3.1420   18.0810 C.3   208  HIS208      0.1752
     74  C         17.7650   -3.4280   16.8760 C.2   208  HIS208      0.2596
     75  O         18.2300   -3.6770   15.7590 O.2   208  HIS208     -0.2718
     76  CB        18.9750   -4.4780   18.6700 C.3   208  HIS208      0.0759
     77  CG        19.7570   -5.3810   17.7490 C.ar  208  HIS208      0.0818
     78  ND1       21.0090   -5.0400   17.2630 N.ar  208  HIS208     -0.2268
     79  CD2       19.4540   -6.5750   17.2000 C.ar  208  HIS208      0.1154
     80  CE1       21.4560   -6.0060   16.4910 C.ar  208  HIS208      0.1986
     81  NE2       20.5200   -6.9460   16.4210 N.ar  208  HIS208     -0.2212
     82  N         16.4750   -3.5590   17.1910 N.am  209  PHE209     -0.1976
     83  CA        15.5030   -3.8650   16.1690 C.3   209  PHE209      0.1639
     84  C         14.8810   -2.6850   15.4100 C.2   209  PHE209      0.2290
     85  O         13.9680   -2.9070   14.5820 O.2   209  PHE209     -0.2864
     86  CB        14.4380   -4.7980   16.7480 C.3   209  PHE209      0.0560
     87  CG        15.0250   -6.0630   17.2690 C.ar  209  PHE209     -0.0200
     88  CD1       15.5000   -7.0620   16.3770 C.ar  209  PHE209     -0.0042
     89  CD2       15.2350   -6.2220   18.6210 C.ar  209  PHE209     -0.0042
     90  CE1       16.0670   -8.1960   16.8370 C.ar  209  PHE209     -0.0003
     91  CE2       15.8250   -7.3810   19.1020 C.ar  209  PHE209     -0.0003
     92  CZ        16.2150   -8.3600   18.2420 C.ar  209  PHE209     -0.0000
@<TRIPOS>BOND
     1    23    22    2
     2    38    37    2
     3    22    21    1
     4    37    36    1
     5    20    21    1
     6    21    24    1
     7    32    31    2
     8    36    39    1
     9    36    35    1
    10    29    30    1
    11    24    25    1
    12    39    40    1
    13    31    35   am
    14    31    30    1
    15    16    15    2
    16     1     2    1
    17    15    14    1
    18    30    33    1
    19    25    26    1
    20    46    45    2
    21     2     3    1
    22     2     5    1
    23    13    14    1
    24    13     3   am
    25    40    41    1
    26    41    42    1
    27    14    17    1
    28    33    34    1
    29     3     4    2
    30    43    44    1
    31    26    27    2
    32    26    28   am
    33    45    44    1
    34     5     6    1
    35     7     6   ar
    36     7     9   ar
    37    85    84    2
    38    44    47    1
    39    17    18    1
    40    17    19    1
    41     6     8   ar
    42     9    11   ar
    43    47    48    1
    44    53    55   ar
    45    53    50   ar
    46    84    83    1
    47    55    56   ar
    48    75    74    2
    49    83    86    1
    50    83    82    1
    51     8    10   ar
    52    11    10   ar
    53    11    12    1
    54    88    90   ar
    55    88    87   ar
    56    50    48   ar
    57    50    52   ar
    58    48    49   ar
    59    81    80   ar
    60    81    79   ar
    61    80    78   ar
    62    86    87    1
    63    90    92   ar
    64    74    82   am
    65    74    73    1
    66    56    54   ar
    67    79    77   ar
    68    78    77   ar
    69    87    89   ar
    70    49    51   ar
    71    52    54   ar
    72    52    51   ar
    73    77    76    1
    74    73    76    1
    75    73    72    1
    76    92    91   ar
    77    89    91   ar
    78    70    68    1
    79    68    65    1
    80    68    69    1
    81    66    67    2
    82    66    65    1
    83    71    69    1
    84    65    64    1
    85    64    59   am
    86    57    58    1
    87    59    58    1
    88    59    60    2
    89    58    61    1
    90    62    61    1
    91    61    63    1
