@<TRIPOS>MOLECULE
tmp/3viuA00.pdb
 190 177 0 0 0
SMALL
GASTEIGER

@<TRIPOS>ATOM
      1  N         32.1210  -21.2090    8.2120 N.3    39  HIS39      -0.1226
      2  CA        33.1010  -20.9240    9.2570 C.3    39  HIS39       0.1752
      3  C         34.4400  -20.4940    8.6740 C.2    39  HIS39       0.2596
      4  O         34.9980  -19.4740    9.0720 O.2    39  HIS39      -0.2718
      5  CB        33.3120  -22.1480   10.1550 C.3    39  HIS39       0.0759
      6  CG        34.2190  -21.8890   11.3200 C.ar   39  HIS39       0.0818
      7  ND1       33.7900  -21.2700   12.4740 N.ar   39  HIS39      -0.2268
      8  CD2       35.5450  -22.1090   11.4840 C.ar   39  HIS39       0.1154
      9  CE1       34.8120  -21.1170   13.2980 C.ar   39  HIS39       0.1986
     10  NE2       35.8900  -21.6170   12.7210 N.ar   39  HIS39      -0.2212
     11  N         34.9430  -21.2660    7.7180 N.am   40  CYS40      -0.1970
     12  CA        36.2280  -20.9740    7.0890 C.3    40  CYS40       0.1712
     13  C         36.1740  -20.0810    5.8540 C.2    40  CYS40       0.2296
     14  O         37.0650  -19.2640    5.6360 O.2    40  CYS40      -0.2864
     15  CB        36.9330  -22.2780    6.7020 C.3    40  CYS40       0.0983
     16  SG        37.4190  -23.3330    8.0870 S.3    40  CYS40      -0.0798
     17  N         33.4430  -17.8960    4.8440 N.3    42  TYR42      -0.1241
     18  CA        32.7260  -16.6240    4.9350 C.3    42  TYR42       0.1605
     19  C         31.9720  -16.3530    3.6300 C.2    42  TYR42       0.2264
     20  O         31.9350  -15.2270    3.1460 O.2    42  TYR42      -0.2867
     21  CB        33.7160  -15.4820    5.1780 C.3    42  TYR42       0.0534
     22  CG        34.2810  -15.4350    6.5720 C.ar   42  TYR42      -0.0201
     23  CD1       35.0210  -16.5040    7.0970 C.ar   42  TYR42      -0.0009
     24  CD2       34.0390  -14.3370    7.3940 C.ar   42  TYR42      -0.0009
     25  CE1       35.4930  -16.4750    8.4110 C.ar   42  TYR42       0.0417
     26  CE2       34.5010  -14.3030    8.7010 C.ar   42  TYR42       0.0417
     27  CZ        35.2210  -15.3680    9.2060 C.ar   42  TYR42       0.1957
     28  OH        35.6420  -15.3150   10.5110 O.3    42  TYR42      -0.2866
     29  N         31.4380   -7.3960    3.6270 N.3    49  LEU49      -0.1245
     30  CA        32.5720   -6.9150    4.4180 C.3    49  LEU49       0.1561
     31  C         33.5430   -6.0260    3.6390 C.2    49  LEU49       0.2260
     32  O         34.3620   -5.3260    4.2310 O.2    49  LEU49      -0.2867
     33  CB        33.3210   -8.1060    5.0370 C.3    49  LEU49       0.0270
     34  CG        32.5180   -8.8820    6.0910 C.3    49  LEU49       0.0019
     35  CD1       33.2370  -10.1610    6.4860 C.3    49  LEU49       0.0001
     36  CD2       32.2990   -7.9930    7.3010 C.3    49  LEU49       0.0001
     37  N         33.6430   -2.1740    4.6480 N.3    52  LEU52      -0.1245
     38  CA        34.2780   -1.6050    5.8370 C.3    52  LEU52       0.1561
     39  C         35.6080   -0.9050    5.5560 C.2    52  LEU52       0.2260
     40  O         36.5350   -1.5090    5.0300 O.2    52  LEU52      -0.2867
     41  CB        34.4830   -2.6940    6.8940 C.3    52  LEU52       0.0270
     42  CG        33.2030   -3.3290    7.4620 C.3    52  LEU52       0.0019
     43  CD1       33.5600   -4.4730    8.3920 C.3    52  LEU52       0.0001
     44  CD2       32.3820   -2.2790    8.2030 C.3    52  LEU52       0.0001
     45  N         39.2850    0.5230    5.7660 N.3    54  LYS54      -0.1245
     46  CA        40.4840   -0.0650    6.3740 C.3    54  LYS54       0.1561
     47  C         41.6660    0.8860    6.5900 C.2    54  LYS54       0.2260
     48  O         42.5710    0.5720    7.3570 O.2    54  LYS54      -0.2867
     49  CB        40.9910   -1.2400    5.5290 C.3    54  LYS54       0.0271
     50  CG        39.9590   -1.8990    4.6270 C.3    54  LYS54       0.0035
     51  CD        39.2900   -3.1120    5.2640 C.3    54  LYS54       0.0206
     52  CE        38.3670   -3.8150    4.2520 C.3    54  LYS54       0.1093
     53  NZ        37.6640   -5.0240    4.8000 N.3    54  LYS54      -0.1314
     54  N         42.8950   -6.5640    7.8780 N.3    63  PRO63      -0.2102
     55  CA        42.3420   -7.8940    7.6150 C.3    63  PRO63       0.1504
     56  C         43.1850   -8.6530    6.5940 C.2    63  PRO63       0.2576
     57  O         43.6560   -8.0760    5.6130 O.2    63  PRO63      -0.2718
     58  CB        40.9390   -7.5870    7.0920 C.3    63  PRO63       0.0282
     59  CG        40.5910   -6.3160    7.7940 C.3    63  PRO63       0.0208
     60  CD        41.8720   -5.5250    7.6680 C.3    63  PRO63       0.0893
     61  N         43.3680   -9.9470    6.8300 N.am   64  GLY64      -0.1943
     62  CA        44.1590  -10.7630    5.9300 C.3    64  GLY64       0.2014
     63  C         45.0760  -11.6780    6.7170 C.2    64  GLY64       0.2639
     64  O         45.3100  -12.8270    6.3450 O.2    64  GLY64      -0.2714
     65  N         45.5940  -11.1590    7.8210 N.am   65  GLU65      -0.1963
     66  CA        46.4800  -11.9220    8.6810 C.3    65  GLU65       0.1733
     67  C         45.7350  -12.3900    9.9230 C.2    65  GLU65       0.2616
     68  O         44.6120  -11.9580   10.1790 O.2    65  GLU65      -0.2715
     69  CB        47.6800  -11.0670    9.0640 C.3    65  GLU65       0.0429
     70  CG        48.5680  -10.7520    7.8840 C.3    65  GLU65       0.1163
     71  CD        48.9670  -12.0130    7.1360 C.2    65  GLU65       0.3649
     72  OE1       49.3340  -13.0020    7.8090 O.co2  65  GLU65      -0.2457
     73  OE2       48.9190  -12.0190    5.8840 O.co2  65  GLU65      -0.2457
     74  N         46.3620  -13.2680   10.6950 N.am   66  ASN66      -0.1972
     75  CA        45.7400  -13.8090   11.9000 C.3    66  ASN66       0.1688
     76  C         45.2130  -12.7790   12.8990 C.2    66  ASN66       0.2292
     77  O         44.4330  -13.1210   13.7850 O.2    66  ASN66      -0.2864
     78  CB        46.7130  -14.7590   12.5960 C.3    66  ASN66       0.1181
     79  CG        46.9510  -16.0280   11.8030 C.2    66  ASN66       0.2629
     80  OD1       47.8790  -16.7820   12.0900 O.2    66  ASN66      -0.2716
     81  ND2       46.1090  -16.2770   10.8030 N.am   66  ASN66      -0.0877
     82  N         42.4150   -8.9610   18.1590 N.3    81  LYS81      -0.1245
     83  CA        41.3650   -9.5500   17.3530 C.3    81  LYS81       0.1561
     84  C         40.3400  -10.1940   18.2740 C.2    81  LYS81       0.2260
     85  O         40.6260  -10.4760   19.4420 O.2    81  LYS81      -0.2867
     86  CB        41.9620  -10.6120   16.4330 C.3    81  LYS81       0.0271
     87  CG        40.9590  -11.2980   15.5400 C.3    81  LYS81       0.0035
     88  CD        41.5730  -12.5480   14.9480 C.3    81  LYS81       0.0206
     89  CE        40.5370  -13.3960   14.2560 C.3    81  LYS81       0.1093
     90  NZ        41.1240  -14.7100   13.9000 N.3    81  LYS81      -0.1314
     91  N         37.3100  -13.3410   18.3900 N.3    83  GLU83      -0.1245
     92  CA        36.8420  -14.5850   17.7760 C.3    83  GLU83       0.1567
     93  C         35.5830  -15.0110   18.5030 C.2    83  GLU83       0.2260
     94  O         35.2110  -14.4170   19.5030 O.2    83  GLU83      -0.2867
     95  CB        37.8790  -15.7060   17.9720 C.3    83  GLU83       0.0388
     96  CG        38.7980  -16.0630   16.8070 C.3    83  GLU83       0.1160
     97  CD        39.6690  -17.2900   17.1360 C.2    83  GLU83       0.3649
     98  OE1       40.4860  -17.7180   16.2870 O.co2  83  GLU83      -0.2457
     99  OE2       39.5300  -17.8340   18.2580 O.co2  83  GLU83      -0.2457
    100  N         46.3410  -16.8070   17.7790 N.3   107  ASP107     -0.1239
    101  CA        46.2700  -15.8730   16.6580 C.3   107  ASP107      0.1674
    102  C         47.1310  -14.6480   16.9400 C.2   107  ASP107      0.2266
    103  O         47.7940  -14.1250   16.0510 O.2   107  ASP107     -0.2867
    104  CB        44.8350  -15.4000   16.4120 C.3   107  ASP107      0.1410
    105  CG        43.9670  -16.4610   15.7800 C.2   107  ASP107      0.3668
    106  OD1       44.4580  -17.1800   14.8850 O.co2 107  ASP107     -0.2456
    107  OD2       42.7850  -16.5630   16.1660 O.co2 107  ASP107     -0.2456
    108  N         52.0410  -19.7930   11.6540 N.3   230  GLN230     -0.1231
    109  CA        50.6150  -20.0460   11.5400 C.3   230  GLN230      0.1698
    110  C         50.1300  -20.9050   12.6870 C.2   230  GLN230      0.2592
    111  O         50.7860  -21.8730   13.0750 O.2   230  GLN230     -0.2718
    112  CB        50.3020  -20.7670   10.2260 C.3   230  GLN230      0.0381
    113  CG        49.7530  -19.8760    9.1480 C.3   230  GLN230      0.0905
    114  CD        48.5290  -19.1190    9.6130 C.2   230  GLN230      0.2608
    115  OE1       47.5130  -19.7130    9.9670 O.2   230  GLN230     -0.2717
    116  NE2       48.6230  -17.8020    9.6240 N.am  230  GLN230     -0.0878
    117  N         48.9830  -20.5460   13.2440 N.am  231  ASP231     -0.1974
    118  CA        48.4180  -21.3400   14.3160 C.3   231  ASP231      0.1709
    119  C         47.4550  -22.2900   13.6440 C.2   231  ASP231      0.2293
    120  O         46.9950  -22.0480   12.5270 O.2   231  ASP231     -0.2864
    121  CB        47.6650  -20.4710   15.3270 C.3   231  ASP231      0.1436
    122  CG        46.6360  -19.5750   14.6730 C.2   231  ASP231      0.3671
    123  OD1       47.0420  -18.6750   13.9050 O.co2 231  ASP231     -0.2456
    124  OD2       45.4270  -19.7680   14.9240 O.co2 231  ASP231     -0.2456
    125  N         43.8480  -24.0970   13.8440 N.3   232  GLY232     -0.1210
    126  CA        42.5580  -24.0140   14.4900 C.3   232  GLY232      0.1956
    127  C         41.5700  -24.8280   13.6990 C.2   232  GLY232      0.2611
    128  O         41.7760  -26.0170   13.4650 O.2   232  GLY232     -0.2717
    129  N         40.4940  -24.1810   13.2800 N.am  233  ALA233     -0.1979
    130  CA        39.4720  -24.8480   12.4990 C.3   233  ALA233      0.1597
    131  C         40.1180  -25.3890   11.2280 C.2   233  ALA233      0.2287
    132  O         40.8110  -24.6550   10.5230 O.2   233  ALA233     -0.2864
    133  CB        38.3650  -23.8620   12.1510 C.3   233  ALA233      0.0319
    134  N         46.4430  -22.1070    3.6470 N.3   242  GLU242     -0.1245
    135  CA        46.3220  -20.6710    3.8450 C.3   242  GLU242      0.1567
    136  C         47.7190  -20.0800    3.6890 C.2   242  GLU242      0.2260
    137  O         47.9380  -19.1620    2.8970 O.2   242  GLU242     -0.2867
    138  CB        45.7950  -20.3870    5.2480 C.3   242  GLU242      0.0388
    139  CG        44.9100  -19.1630    5.3730 C.3   242  GLU242      0.1160
    140  CD        44.2370  -19.0890    6.7400 C.2   242  GLU242      0.3649
    141  OE1       44.8270  -18.5030    7.6790 O.co2 242  GLU242     -0.2457
    142  OE2       43.1220  -19.6410    6.8740 O.co2 242  GLU242     -0.2457
    143  N         35.7320   -6.3720   14.9650 N.3   453  ASP453     -0.1239
    144  CA        34.3150   -6.6640   15.1200 C.3   453  ASP453      0.1674
    145  C         33.9930   -8.1430   15.0470 C.2   453  ASP453      0.2266
    146  O         34.3090   -8.8170   14.0610 O.2   453  ASP453     -0.2867
    147  CB        33.4960   -5.9320   14.0580 C.3   453  ASP453      0.1410
    148  CG        33.8230   -6.3950   12.6560 C.2   453  ASP453      0.3668
    149  OD1       32.8960   -6.7970   11.9180 O.co2 453  ASP453     -0.2456
    150  OD2       35.0140   -6.3540   12.2870 O.co2 453  ASP453     -0.2456
    151  N         31.1650  -10.4010   14.5670 N.3   455  LEU455     -0.1245
    152  CA        29.7670  -10.4590   14.1660 C.3   455  LEU455      0.1561
    153  C         29.1560  -11.8110   14.5270 C.2   455  LEU455      0.2260
    154  O         29.7690  -12.8560   14.3090 O.2   455  LEU455     -0.2867
    155  CB        29.6370  -10.2230   12.6580 C.3   455  LEU455      0.0270
    156  CG        30.2840   -8.9480   12.0960 C.3   455  LEU455      0.0019
    157  CD1       29.9370   -8.8270   10.6200 C.3   455  LEU455      0.0001
    158  CD2       29.8080   -7.7120   12.8630 C.3   455  LEU455      0.0001
    159  N         38.6930   -0.7730   10.5930 N.3   487  VAL487     -0.1245
    160  CA        38.7150   -2.1800   11.0160 C.3   487  VAL487      0.1561
    161  C         40.1190   -2.6830   10.7710 C.2   487  VAL487      0.2260
    162  O         40.7710   -2.2850    9.8130 O.2   487  VAL487     -0.2867
    163  CB        37.8640   -3.1330   10.1470 C.3   487  VAL487      0.0252
    164  CG1       36.8000   -3.7970   10.9940 C.3   487  VAL487      0.0019
    165  CG2       37.3130   -2.4180    8.9400 C.3   487  VAL487      0.0019
    166  N         40.7110   -6.1770   11.9760 N.3   489  SER489     -0.1202
    167  CA        40.4850   -7.6130   12.0690 C.3   489  SER489      0.2020
    168  C         39.0950   -7.8550   12.6180 C.2   489  SER489      0.2619
    169  O         38.3760   -6.9100   12.9670 O.2   489  SER489     -0.2717
    170  CB        41.5100   -8.2740   12.9930 C.3   489  SER489      0.2103
    171  OG        41.3120   -7.8820   14.3380 O.3   489  SER489     -0.2182
    172  N         38.7100   -9.1220   12.7040 N.am  490  GLY490     -0.1942
    173  CA        37.3940   -9.4320   13.2190 C.3   490  GLY490      0.2014
    174  C         37.0040  -10.8740   12.9990 C.2   490  GLY490      0.2639
    175  O         37.8390  -11.7040   12.6570 O.2   490  GLY490     -0.2714
    176  N         35.7230  -11.1620   13.1880 N.am  491  ASN491     -0.1958
    177  CA        35.2040  -12.5050   13.0330 C.3   491  ASN491      0.1819
    178  C         33.7490  -12.4480   12.6160 C.2   491  ASN491      0.2621
    179  O         33.0860  -11.4240   12.7570 O.2   491  ASN491     -0.2715
    180  CB        35.3070  -13.2620   14.3530 C.3   491  ASN491      0.1195
    181  CG        34.8290  -14.6940   14.2330 C.2   491  ASN491      0.2630
    182  OD1       35.4010  -15.4770   13.4820 O.2   491  ASN491     -0.2716
    183  ND2       33.7710  -15.0410   14.9640 N.am  491  ASN491     -0.0877
    184  N         33.2520  -13.5630   12.0990 N.am  492  VAL492     -0.1977
    185  CA        31.8620  -13.6440   11.6820 C.3   492  VAL492      0.1596
    186  C         31.3250  -15.0140   12.0150 C.2   492  VAL492      0.2287
    187  O         31.8370  -16.0160   11.5320 O.2   492  VAL492     -0.2864
    188  CB        31.6910  -13.4110   10.1590 C.3   492  VAL492      0.0276
    189  CG1       30.2360  -13.6400    9.7490 C.3   492  VAL492      0.0022
    190  CG2       32.1230  -12.0050    9.8040 C.3   492  VAL492      0.0022
@<TRIPOS>BOND
     1   137   136    2
     2    20    19    2
     3    29    30    1
     4    19    18    1
     5    31    32    2
     6    31    30    1
     7   134   135    1
     8   136   135    1
     9   135   138    1
    10    52    53    1
    11    52    51    1
    12    30    33    1
    13    50    51    1
    14    50    49    1
    15    37    38    1
    16    17    18    1
    17    18    21    1
    18    40    39    2
    19    33    34    1
    20    21    22    1
    21   138   139    1
    22   139   140    1
    23    49    46    1
    24    39    38    1
    25    57    56    2
    26    14    13    2
    27    45    46    1
    28    38    41    1
    29    13    12    1
    30    73    71   ar
    31    62    63    1
    32    62    61    1
    33    34    35    1
    34    34    36    1
    35    64    63    2
    36    46    47    1
    37    22    23   ar
    38    22    24   ar
    39    47    48    2
    40    56    61   am
    41    56    55    1
    42    15    12    1
    43    15    16    1
    44    63    65   am
    45   140   142   ar
    46   140   141   ar
    47    41    42    1
    48    12    11    1
    49    58    55    1
    50    58    59    1
    51    23    25   ar
    52    71    72   ar
    53    71    70    1
    54    24    26   ar
    55    42    44    1
    56    42    43    1
    57    55    54    1
    58    60    59    1
    59    60    54    1
    60    11     3   am
    61    65    66    1
    62    70    69    1
    63     1     2    1
    64    25    27   ar
    65     3     4    2
    66     3     2    1
    67    66    69    1
    68    66    67    1
    69    26    27   ar
    70   165   163    1
    71   113   114    1
    72   113   112    1
    73    27    28    1
    74     2     5    1
    75   114   116   am
    76   114   115    2
    77   189   188    1
    78   190   188    1
    79   162   161    2
    80    67    68    2
    81    67    74   am
    82   163   164    1
    83   163   160    1
    84     5     6    1
    85   188   185    1
    86   112   109    1
    87   132   131    2
    88   159   160    1
    89   157   156    1
    90    74    75    1
    91   161   160    1
    92    81    79   am
    93   131   130    1
    94     6     8   ar
    95     6     7   ar
    96     8    10   ar
    97   187   186    2
    98   109   108    1
    99   109   110    1
   100   185   186    1
   101   185   184    1
   102    79    80    2
   103    79    78    1
   104    75    78    1
   105    75    76    1
   106   149   148   ar
   107   166   167    1
   108   167   168    1
   109   167   170    1
   110   156   155    1
   111   156   158    1
   112   184   178   am
   113   133   130    1
   114   150   148   ar
   115     7     9   ar
   116   130   129    1
   117   120   119    2
   118   178   179    2
   119   178   177    1
   120   168   172   am
   121   168   169    2
   122   148   147    1
   123   175   174    2
   124   155   152    1
   125   110   111    2
   126   110   117   am
   127   172   173    1
   128    10     9   ar
   129    76    77    2
   130   170   171    1
   131   174   176   am
   132   174   173    1
   133   177   176    1
   134   177   180    1
   135   117   118    1
   136   129   127   am
   137   128   127    2
   138   182   181    2
   139   119   118    1
   140   127   126    1
   141   125   126    1
   142    90    89    1
   143   123   122   ar
   144   147   144    1
   145   146   145    2
   146   152   153    1
   147   152   151    1
   148   181   180    1
   149   181   183   am
   150    89    88    1
   151   154   153    2
   152   118   121    1
   153   122   124   ar
   154   122   121    1
   155   106   105   ar
   156    88    87    1
   157   143   144    1
   158   145   144    1
   159    87    86    1
   160   105   107   ar
   161   105   104    1
   162   103   102    2
   163    98    97   ar
   164   104   101    1
   165    86    83    1
   166   101   102    1
   167   101   100    1
   168    96    97    1
   169    96    95    1
   170    97    99   ar
   171    83    82    1
   172    83    84    1
   173    92    95    1
   174    92    91    1
   175    92    93    1
   176    84    85    2
   177    93    94    2
