@<TRIPOS>MOLECULE
tmp/3vj7A01.pdb
 128 121 0 0 0
SMALL
GASTEIGER

@<TRIPOS>ATOM
      1  N         14.1580   17.5270   15.7270 N.3     8  LYS8       -0.1245
      2  CA        14.5970   17.3100   14.3620 C.3     8  LYS8        0.1561
      3  C         14.1960   18.5400   13.5470 C.2     8  LYS8        0.2260
      4  O         15.0270   19.1260   12.8580 O.2     8  LYS8       -0.2867
      5  CB        13.9500   16.0470   13.7900 C.3     8  LYS8        0.0271
      6  CG        14.7000   15.4530   12.5930 C.3     8  LYS8        0.0035
      7  CD        14.3010   16.0850   11.2680 C.3     8  LYS8        0.0206
      8  CE        12.9110   15.6310   10.8580 C.3     8  LYS8        0.1093
      9  NZ        12.5150   16.0620    9.4910 N.3     8  LYS8       -0.1314
     10  N         16.2260   21.9830   11.5520 N.3    12  GLN12      -0.1245
     11  CA        16.1140   22.3350   10.1330 C.3    12  GLN12       0.1566
     12  C         15.5780   23.7370    9.8320 C.2    12  GLN12       0.2260
     13  O         15.7560   24.2440    8.7200 O.2    12  GLN12      -0.2867
     14  CB        15.2190   21.3250    9.3990 C.3    12  GLN12       0.0367
     15  CG        15.7210   19.8900    9.3910 C.3    12  GLN12       0.0905
     16  CD        14.7800   18.9600    8.6400 C.2    12  GLN12       0.2608
     17  OE1       13.5860   18.9050    8.9280 O.2    12  GLN12      -0.2717
     18  NE2       15.3150   18.2260    7.6720 N.am   12  GLN12      -0.0878
     19  N         -2.9390   16.1710    3.2930 N.3    35  SER35      -0.1202
     20  CA        -2.0640   15.0590    2.9590 C.3    35  SER35       0.2020
     21  C         -2.0460   14.0640    4.1030 C.2    35  SER35       0.2619
     22  O         -2.9800   13.9970    4.8970 O.2    35  SER35      -0.2717
     23  CB        -0.6350   15.5240    2.6520 C.3    35  SER35       0.2103
     24  OG         0.1620   15.5740    3.8120 O.3    35  SER35      -0.2182
     25  N         -0.9870   13.2750    4.1750 N.am   36  PHE36      -0.1961
     26  CA        -0.8820   12.3000    5.2350 C.3    36  PHE36       0.1771
     27  C          0.5050   12.3330    5.8450 C.2    36  PHE36       0.2620
     28  O          1.4900   12.6450    5.1780 O.2    36  PHE36      -0.2715
     29  CB        -1.2010   10.8980    4.7000 C.3    36  PHE36       0.0574
     30  CG        -2.5160   10.8190    3.9720 C.ar   36  PHE36      -0.0200
     31  CD1       -2.5890   11.1020    2.6120 C.ar   36  PHE36      -0.0042
     32  CD2       -3.6880   10.5040    4.6540 C.ar   36  PHE36      -0.0042
     33  CE1       -3.8070   11.0740    1.9380 C.ar   36  PHE36      -0.0003
     34  CE2       -4.9180   10.4720    3.9900 C.ar   36  PHE36      -0.0003
     35  CZ        -4.9760   10.7570    2.6280 C.ar   36  PHE36      -0.0000
     36  N          0.5630   12.0510    7.1350 N.am   37  ASP37      -0.1957
     37  CA         1.8310   12.0080    7.8250 C.3    37  ASP37       0.1840
     38  C          2.1480   10.5240    7.8810 C.2    37  ASP37       0.2622
     39  O          1.5130    9.7660    8.6120 O.2    37  ASP37      -0.2715
     40  CB         1.7040   12.5930    9.2270 C.3    37  ASP37       0.1450
     41  CG         3.0060   12.5480    9.9940 C.2    37  ASP37       0.3671
     42  OD1        3.0890   13.1750   11.0690 O.co2  37  ASP37      -0.2456
     43  OD2        3.9440   11.8760    9.5270 O.co2  37  ASP37      -0.2456
     44  N          3.1240   10.1200    7.0800 N.am   38  LYS38      -0.1963
     45  CA         3.5360    8.7290    6.9970 C.3    38  LYS38       0.1728
     46  C          4.9950    8.6010    7.4180 C.2    38  LYS38       0.2616
     47  O          5.7180    7.7430    6.9170 O.2    38  LYS38      -0.2715
     48  CB         3.3730    8.2560    5.5530 C.3    38  LYS38       0.0311
     49  CG         2.6270    6.9650    5.3900 C.3    38  LYS38       0.0038
     50  CD         1.1340    7.1290    5.6030 C.3    38  LYS38       0.0206
     51  CE         0.4570    5.8110    5.2840 C.3    38  LYS38       0.1093
     52  NZ         0.8690    5.3530    3.9290 N.3    38  LYS38      -0.1314
     53  N          5.4290    9.4550    8.3350 N.am   39  ARG39      -0.1963
     54  CA         6.8140    9.4320    8.7930 C.3    39  ARG39       0.1729
     55  C          7.2740    8.0940    9.3690 C.2    39  ARG39       0.2616
     56  O          6.5320    7.4190   10.0940 O.2    39  ARG39      -0.2715
     57  CB         7.0440   10.5230    9.8410 C.3    39  ARG39       0.0348
     58  CG         7.1580   11.9290    9.2760 C.3    39  ARG39       0.0492
     59  CD         7.3410   12.9340   10.4030 C.3    39  ARG39       0.2205
     60  NE         6.1350   13.0000   11.2250 N.pl3  39  ARG39      -0.0865
     61  CZ         6.1260   13.2830   12.5230 C.cat  39  ARG39       0.5346
     62  NH1        4.9740   13.3240   13.1890 N.pl3  39  ARG39       0.1354
     63  NH2        7.2670   13.5080   13.1600 N.pl3  39  ARG39       0.1354
     64  N          8.5140    7.7320    9.0470 N.am   40  SER40      -0.1950
     65  CA         9.1110    6.4960    9.5400 C.3    40  SER40       0.1924
     66  C          9.4050    6.6480   11.0230 C.2    40  SER40       0.2314
     67  O          9.4910    7.7630   11.5360 O.2    40  SER40      -0.2863
     68  CB        10.4190    6.1950    8.8070 C.3    40  SER40       0.2116
     69  OG        10.1630    5.7580    7.4880 O.3    40  SER40      -0.2180
     70  N         12.0110    9.0060   12.3770 N.3    43  LYS43      -0.1245
     71  CA        11.7370   10.4290   12.2610 C.3    43  LYS43       0.1561
     72  C         10.5980   10.9450   13.1460 C.2    43  LYS43       0.2260
     73  O         10.0990   12.0550   12.9410 O.2    43  LYS43      -0.2867
     74  CB        11.4740   10.7680   10.7940 C.3    43  LYS43       0.0271
     75  CG        11.8810   12.1800   10.4060 C.3    43  LYS43       0.0035
     76  CD        12.3320   12.2330    8.9570 C.3    43  LYS43       0.0206
     77  CE        13.5690   11.3770    8.7440 C.3    43  LYS43       0.1093
     78  NZ        13.9970   11.3780    7.3170 N.3    43  LYS43      -0.1314
     79  N          3.4540   21.1380    7.1370 N.3    66  VAL66      -0.1245
     80  CA         2.4990   20.0370    7.2050 C.3    66  VAL66       0.1561
     81  C          2.3010   19.7280    8.6910 C.2    66  VAL66       0.2260
     82  O          3.2730   19.5670    9.4250 O.2    66  VAL66      -0.2867
     83  CB         3.0320   18.7810    6.4560 C.3    66  VAL66       0.0252
     84  CG1        2.0830   17.6110    6.6520 C.3    66  VAL66       0.0019
     85  CG2        3.1820   19.0850    4.9710 C.3    66  VAL66       0.0019
     86  N          4.9520   17.7610   10.6110 N.3    75  THR75      -0.1203
     87  CA         5.5740   16.6230    9.9540 C.3    75  THR75       0.1994
     88  C          6.6910   17.0640    9.0050 C.2    75  THR75       0.2617
     89  O          7.7130   16.3900    8.8900 O.2    75  THR75      -0.2717
     90  CB         4.5050   15.7340    9.2260 C.3    75  THR75       0.1784
     91  OG1        4.4050   16.0930    7.8430 O.3    75  THR75      -0.2211
     92  CG2        3.1390   15.9150    9.8910 C.3    75  THR75       0.0376
     93  N          6.5230   18.2100    8.3560 N.am   76  GLN76      -0.1979
     94  CA         7.5530   18.7090    7.4630 C.3    76  GLN76       0.1601
     95  C          7.4610   20.1910    7.1330 C.2    76  GLN76       0.2287
     96  O          6.3770   20.7460    6.9950 O.2    76  GLN76      -0.2864
     97  CB         7.5490   17.9110    6.1510 C.3    76  GLN76       0.0394
     98  CG         8.3370   18.5510    4.9900 C.3    76  GLN76       0.0908
     99  CD         8.3430   17.6810    3.7240 C.2    76  GLN76       0.2608
    100  OE1        9.2570   16.8860    3.5060 O.2    76  GLN76      -0.2717
    101  NE2        7.3180   17.8310    2.8940 N.am   76  GLN76      -0.0878
    102  N          6.1650   17.0710   -1.4080 N.3    88  ASP88      -0.1239
    103  CA         6.0110   15.6770   -1.0110 C.3    88  ASP88       0.1674
    104  C          4.8150   15.1530   -1.8050 C.2    88  ASP88       0.2266
    105  O          3.8340   15.8730   -1.9870 O.2    88  ASP88      -0.2867
    106  CB         5.7470   15.5760    0.4950 C.3    88  ASP88       0.1410
    107  CG         5.6100   14.1380    0.9710 C.2    88  ASP88       0.3668
    108  OD1        4.4670   13.6360    1.0430 O.co2  88  ASP88      -0.2456
    109  OD2        6.6530   13.5160    1.2620 O.co2  88  ASP88      -0.2456
    110  N          2.4550   13.1820   -1.0820 N.3    90  ARG90      -0.1231
    111  CA         1.1980   12.9800   -0.3910 C.3    90  ARG90       0.1694
    112  C          0.3730   14.2500   -0.3350 C.2    90  ARG90       0.2591
    113  O         -0.8300   14.1990   -0.1030 O.2    90  ARG90      -0.2718
    114  CB         1.4540   12.4330    1.0090 C.3    90  ARG90       0.0321
    115  CG         2.2990   11.1570    0.9810 C.3    90  ARG90       0.0489
    116  CD         2.6120   10.6420    2.3620 C.3    90  ARG90       0.2205
    117  NE         3.7290    9.7050    2.3370 N.pl3  90  ARG90      -0.0865
    118  CZ         5.0030   10.0610    2.2250 C.cat  90  ARG90       0.5346
    119  NH1        5.3310   11.3390    2.1290 N.pl3  90  ARG90       0.1354
    120  NH2        5.9520    9.1380    2.2120 N.pl3  90  ARG90       0.1354
    121  N          1.0170   15.3880   -0.5780 N.am   91  ILE91      -0.1980
    122  CA         0.3240   16.6750   -0.5420 C.3    91  ILE91       0.1595
    123  C         -0.7060   16.8590   -1.6620 C.2    91  ILE91       0.2287
    124  O         -0.4200   16.6310   -2.8340 O.2    91  ILE91      -0.2864
    125  CB         1.3110   17.8510   -0.6260 C.3    91  ILE91       0.0276
    126  CG1        2.1910   17.8860    0.6170 C.3    91  ILE91       0.0022
    127  CG2        0.5460   19.1560   -0.7720 C.3    91  ILE91       0.0022
    128  CD1        3.2930   18.8960    0.5270 C.3    91  ILE91       0.0001
@<TRIPOS>BOND
     1   124   123    2
     2   105   104    2
     3   104   103    1
     4   123   122    1
     5   102   103    1
     6   110   111    1
     7   103   106    1
     8   127   125    1
     9   125   122    1
    10   125   126    1
    11   121   122    1
    12   121   112   am
    13   111   112    1
    14   111   114    1
    15   112   113    2
    16   106   107    1
    17   128   126    1
    18   107   108   ar
    19   107   109   ar
    20   115   114    1
    21   115   116    1
    22    33    31   ar
    23    33    35   ar
    24   119   118    1
    25   120   118    1
    26   118   117    2
    27   117   116    1
    28    31    30   ar
    29    35    34   ar
    30    23    20    1
    31    23    24    1
    32   101    99   am
    33    20    19    1
    34    20    21    1
    35   100    99    2
    36    99    98    1
    37    52    51    1
    38    30    32   ar
    39    30    29    1
    40    34    32   ar
    41    21    25   am
    42    21    22    2
    43    25    26    1
    44    29    26    1
    45    85    83    1
    46    98    97    1
    47    28    27    2
    48    26    27    1
    49    51    50    1
    50    49    48    1
    51    49    50    1
    52    48    45    1
    53    27    36   am
    54    97    94    1
    55    83    84    1
    56    83    80    1
    57    47    46    2
    58    96    95    2
    59    45    44    1
    60    45    46    1
    61    44    38   am
    62    95    94    1
    63    36    37    1
    64    79    80    1
    65    80    81    1
    66    78    77    1
    67    46    53   am
    68    94    93    1
    69    69    68    1
    70    18    16   am
    71    37    38    1
    72    37    40    1
    73    91    90    1
    74    38    39    2
    75    53    54    1
    76    93    88   am
    77    16    17    2
    78    16    15    1
    79    81    82    2
    80    13    12    2
    81    77    76    1
    82    54    55    1
    83    54    57    1
    84    68    65    1
    85    89    88    2
    86    76    75    1
    87    88    87    1
    88    64    55   am
    89    64    65    1
    90    90    92    1
    91    90    87    1
    92    40    41    1
    93    58    57    1
    94    58    59    1
    95    55    56    2
    96    15    14    1
    97    14    11    1
    98     9     8    1
    99    43    41   ar
   100    65    66    1
   101    12    11    1
   102    87    86    1
   103    41    42   ar
   104    11    10    1
   105    59    60    1
   106    75    74    1
   107    74    71    1
   108     8     7    1
   109    66    67    2
   110    60    61    2
   111     7     6    1
   112    71    70    1
   113    71    72    1
   114    61    63    1
   115    61    62    1
   116     6     5    1
   117     4     3    2
   118    73    72    2
   119     3     2    1
   120     5     2    1
   121     2     1    1
