@<TRIPOS>MOLECULE
tmp/3vj7A00.pdb
 109 104 0 0 0
SMALL
GASTEIGER

@<TRIPOS>ATOM
      1  N         14.1580   17.5270   15.7270 N.3     8  LYS8       -0.1245
      2  CA        14.5970   17.3100   14.3620 C.3     8  LYS8        0.1561
      3  C         14.1960   18.5400   13.5470 C.2     8  LYS8        0.2260
      4  O         15.0270   19.1260   12.8580 O.2     8  LYS8       -0.2867
      5  CB        13.9500   16.0470   13.7900 C.3     8  LYS8        0.0271
      6  CG        14.7000   15.4530   12.5930 C.3     8  LYS8        0.0035
      7  CD        14.3010   16.0850   11.2680 C.3     8  LYS8        0.0206
      8  CE        12.9110   15.6310   10.8580 C.3     8  LYS8        0.1093
      9  NZ        12.5150   16.0620    9.4910 N.3     8  LYS8       -0.1314
     10  N         16.2260   21.9830   11.5520 N.3    12  GLN12      -0.1245
     11  CA        16.1140   22.3350   10.1330 C.3    12  GLN12       0.1566
     12  C         15.5780   23.7370    9.8320 C.2    12  GLN12       0.2260
     13  O         15.7560   24.2440    8.7200 O.2    12  GLN12      -0.2867
     14  CB        15.2190   21.3250    9.3990 C.3    12  GLN12       0.0367
     15  CG        15.7210   19.8900    9.3910 C.3    12  GLN12       0.0905
     16  CD        14.7800   18.9600    8.6400 C.2    12  GLN12       0.2608
     17  OE1       13.5860   18.9050    8.9280 O.2    12  GLN12      -0.2717
     18  NE2       15.3150   18.2260    7.6720 N.am   12  GLN12      -0.0878
     19  N         16.5640   26.0370    6.5560 N.3    16  GLN16      -0.1245
     20  CA        15.5710   26.0270    5.4830 C.3    16  GLN16       0.1566
     21  C         14.7310   27.3020    5.3660 C.2    16  GLN16       0.2260
     22  O         13.7250   27.3380    4.6500 O.2    16  GLN16      -0.2867
     23  CB        14.6810   24.7900    5.6360 C.3    16  GLN16       0.0367
     24  CG        15.4810   23.4880    5.5610 C.3    16  GLN16       0.0905
     25  CD        14.6400   22.2340    5.7430 C.2    16  GLN16       0.2608
     26  OE1       15.1690   21.1240    5.7220 O.2    16  GLN16      -0.2717
     27  NE2       13.3290   22.4030    5.9230 N.am   16  GLN16      -0.0878
     28  N         12.0110    9.0060   12.3770 N.3    43  LYS43      -0.1245
     29  CA        11.7370   10.4290   12.2610 C.3    43  LYS43       0.1561
     30  C         10.5980   10.9450   13.1460 C.2    43  LYS43       0.2260
     31  O         10.0990   12.0550   12.9410 O.2    43  LYS43      -0.2867
     32  CB        11.4740   10.7680   10.7940 C.3    43  LYS43       0.0271
     33  CG        11.8810   12.1800   10.4060 C.3    43  LYS43       0.0035
     34  CD        12.3320   12.2330    8.9570 C.3    43  LYS43       0.0206
     35  CE        13.5690   11.3770    8.7440 C.3    43  LYS43       0.1093
     36  NZ        13.9970   11.3780    7.3170 N.3    43  LYS43      -0.1314
     37  N          4.9520   17.7610   10.6110 N.3    75  THR75      -0.1203
     38  CA         5.5740   16.6230    9.9540 C.3    75  THR75       0.1994
     39  C          6.6910   17.0640    9.0050 C.2    75  THR75       0.2618
     40  O          7.7130   16.3900    8.8900 O.2    75  THR75      -0.2717
     41  CB         4.5050   15.7340    9.2260 C.3    75  THR75       0.1784
     42  OG1        4.4050   16.0930    7.8430 O.3    75  THR75      -0.2211
     43  CG2        3.1390   15.9150    9.8910 C.3    75  THR75       0.0376
     44  N          6.5230   18.2100    8.3560 N.am   76  GLN76      -0.1965
     45  CA         7.5530   18.7090    7.4630 C.3    76  GLN76       0.1733
     46  C          7.4610   20.1910    7.1330 C.2    76  GLN76       0.2616
     47  O          6.3770   20.7460    6.9950 O.2    76  GLN76      -0.2715
     48  CB         7.5490   17.9110    6.1510 C.3    76  GLN76       0.0408
     49  CG         8.3370   18.5510    4.9900 C.3    76  GLN76       0.0908
     50  CD         8.3430   17.6810    3.7240 C.2    76  GLN76       0.2608
     51  OE1        9.2570   16.8860    3.5060 O.2    76  GLN76      -0.2717
     52  NE2        7.3180   17.8310    2.8940 N.am   76  GLN76      -0.0878
     53  N          8.6220   20.8330    7.0430 N.am   77  ILE77      -0.1977
     54  CA         8.6920   22.2230    6.6170 C.3    77  ILE77       0.1596
     55  C          9.5230   22.1090    5.3360 C.2    77  ILE77       0.2287
     56  O         10.5310   21.4060    5.3170 O.2    77  ILE77      -0.2864
     57  CB         9.4330   23.1460    7.6290 C.3    77  ILE77       0.0276
     58  CG1       10.7500   22.5030    8.0600 C.3    77  ILE77       0.0022
     59  CG2        8.5520   23.4290    8.8350 C.3    77  ILE77       0.0022
     60  CD1       11.5580   23.3570    9.0030 C.3    77  ILE77       0.0001
     61  N         15.5480   26.4190   -1.3700 N.3    82  ASP82      -0.1239
     62  CA        15.7430   25.5310   -2.5180 C.3    82  ASP82       0.1674
     63  C         14.6500   25.8120   -3.5530 C.2    82  ASP82       0.2266
     64  O         13.4860   25.4530   -3.3590 O.2    82  ASP82      -0.2867
     65  CB        15.6690   24.0650   -2.0670 C.3    82  ASP82       0.1410
     66  CG        15.9880   23.0790   -3.1870 C.2    82  ASP82       0.3668
     67  OD1       16.0090   23.4770   -4.3710 O.co2  82  ASP82      -0.2456
     68  OD2       16.2080   21.8900   -2.8760 O.co2  82  ASP82      -0.2456
     69  N         14.3390   24.4560   -6.3850 N.3    84  GLY84      -0.1210
     70  CA        13.9720   23.2370   -7.0780 C.3    84  GLY84       0.1956
     71  C         13.2120   22.2650   -6.1920 C.2    84  GLY84       0.2612
     72  O         12.9730   21.1190   -6.5750 O.2    84  GLY84      -0.2717
     73  N         12.8140   22.7190   -5.0090 N.am   85  TRP85      -0.1962
     74  CA        12.0940   21.8550   -4.0830 C.3    85  TRP85       0.1771
     75  C         10.8960   21.1530   -4.7110 C.2    85  TRP85       0.2619
     76  O         10.0530   21.7770   -5.3610 O.2    85  TRP85      -0.2715
     77  CB        11.6330   22.6470   -2.8580 C.3    85  TRP85       0.0590
     78  CG        10.9710   21.7810   -1.8140 C.ar   85  TRP85       0.0006
     79  CD1        9.6460   21.4330   -1.7500 C.ar   85  TRP85       0.0946
     80  CD2       11.6070   21.1360   -0.7000 C.ar   85  TRP85       0.0152
     81  NE1        9.4210   20.6150   -0.6640 N.ar   85  TRP85      -0.2442
     82  CE2       10.6060   20.4190   -0.0010 C.ar   85  TRP85       0.0810
     83  CE3       12.9260   21.0930   -0.2220 C.ar   85  TRP85       0.0012
     84  CZ2       10.8810   19.6700    1.1510 C.ar   85  TRP85       0.0191
     85  CZ3       13.1960   20.3460    0.9240 C.ar   85  TRP85       0.0001
     86  CH2       12.1780   19.6480    1.5940 C.ar   85  TRP85       0.0015
     87  N         10.8320   19.8420   -4.5220 N.am   86  VAL86      -0.1963
     88  CA         9.7240   19.0660   -5.0450 C.3    86  VAL86       0.1727
     89  C          8.7770   18.8080   -3.8850 C.2    86  VAL86       0.2616
     90  O          9.2060   18.3680   -2.8190 O.2    86  VAL86      -0.2715
     91  CB        10.1960   17.7150   -5.5930 C.3    86  VAL86       0.0290
     92  CG1        8.9920   16.9100   -6.0890 C.3    86  VAL86       0.0023
     93  CG2       11.2310   17.9350   -6.6980 C.3    86  VAL86       0.0023
     94  N          7.4960   19.0940   -4.0760 N.am   87  ASP87      -0.1957
     95  CA         6.5300   18.8630   -3.0150 C.3    87  ASP87       0.1840
     96  C          6.4270   17.3810   -2.6750 C.2    87  ASP87       0.2622
     97  O          6.6020   16.5270   -3.5410 O.2    87  ASP87      -0.2715
     98  CB         5.1560   19.3830   -3.4290 C.3    87  ASP87       0.1450
     99  CG         5.1040   20.8940   -3.4940 C.2    87  ASP87       0.3671
    100  OD1        6.0980   21.5420   -3.1030 O.co2  87  ASP87      -0.2456
    101  OD2        4.0660   21.4280   -3.9290 O.co2  87  ASP87      -0.2456
    102  N          6.1650   17.0710   -1.4080 N.am   88  ASP88      -0.1971
    103  CA         6.0110   15.6770   -1.0110 C.3    88  ASP88       0.1709
    104  C          4.8150   15.1530   -1.8050 C.2    88  ASP88       0.2293
    105  O          3.8340   15.8730   -1.9870 O.2    88  ASP88      -0.2864
    106  CB         5.7470   15.5760    0.4950 C.3    88  ASP88       0.1436
    107  CG         5.6100   14.1380    0.9710 C.2    88  ASP88       0.3671
    108  OD1        4.4670   13.6360    1.0430 O.co2  88  ASP88      -0.2456
    109  OD2        6.6530   13.5160    1.2620 O.co2  88  ASP88      -0.2456
@<TRIPOS>BOND
     1    70    69    1
     2    70    71    1
     3    93    91    1
     4    72    71    2
     5    71    73   am
     6    92    91    1
     7    91    88    1
     8    76    75    2
     9    88    87    1
    10    88    89    1
    11    73    74    1
    12    75    87   am
    13    75    74    1
    14    67    66   ar
    15    74    77    1
    16    94    89   am
    17    94    95    1
    18   101    99   ar
    19    89    90    2
    20    63    64    2
    21    63    62    1
    22    97    96    2
    23    99    98    1
    24    99   100   ar
    25    98    95    1
    26    66    68   ar
    27    66    65    1
    28    95    96    1
    29    77    78    1
    30    96   102   am
    31    62    65    1
    32    62    61    1
    33   105   104    2
    34    78    79   ar
    35    78    80   ar
    36   104   103    1
    37    79    81   ar
    38   102   103    1
    39   103   106    1
    40    80    83   ar
    41    80    82   ar
    42    81    82   ar
    43    83    85   ar
    44    82    84   ar
    45   106   107    1
    46    85    86   ar
    47   107   108   ar
    48   107   109   ar
    49    84    86   ar
    50    52    50   am
    51    51    50    2
    52    50    49    1
    53    22    21    2
    54    49    48    1
    55    56    55    2
    56    55    54    1
    57    21    20    1
    58    20    23    1
    59    20    19    1
    60    24    23    1
    61    24    25    1
    62    26    25    2
    63    25    27   am
    64    48    45    1
    65    54    53    1
    66    54    57    1
    67    47    46    2
    68    53    46   am
    69    46    45    1
    70    36    35    1
    71    45    44    1
    72    57    58    1
    73    57    59    1
    74    18    16   am
    75    42    41    1
    76    58    60    1
    77    44    39   am
    78    16    17    2
    79    16    15    1
    80    13    12    2
    81    35    34    1
    82    40    39    2
    83    34    33    1
    84    39    38    1
    85    41    43    1
    86    41    38    1
    87    15    14    1
    88    14    11    1
    89     9     8    1
    90    12    11    1
    91    38    37    1
    92    11    10    1
    93    33    32    1
    94    32    29    1
    95     8     7    1
    96     7     6    1
    97    29    28    1
    98    29    30    1
    99     6     5    1
   100     4     3    2
   101    31    30    2
   102     3     2    1
   103     5     2    1
   104     2     1    1
