@<TRIPOS>MOLECULE
tmp/3vjcD00.pdb
 239 225 0 0 0
SMALL
GASTEIGER

@<TRIPOS>ATOM
      1  N         12.6610   72.9800   -0.7320 N.3    14  THR14      -0.1203
      2  CA        13.9240   73.1110   -1.4550 C.3    14  THR14       0.1994
      3  C         14.6940   71.8000   -1.6370 C.2    14  THR14       0.2619
      4  O         15.1690   71.5170   -2.7380 O.2    14  THR14      -0.2717
      5  CB        14.8490   74.1530   -0.7920 C.3    14  THR14       0.1784
      6  OG1       15.1810   73.7270    0.5340 O.3    14  THR14      -0.2211
      7  CG2       14.1660   75.5120   -0.7080 C.3    14  THR14       0.0376
      8  N         14.7940   71.0020   -0.5750 N.am   15  SER15      -0.1937
      9  CA        15.6550   69.8200   -0.5580 C.3    15  SER15       0.2055
     10  C         14.9440   68.5210   -0.9240 C.2    15  SER15       0.2643
     11  O         14.2660   67.9170   -0.0860 O.2    15  SER15      -0.2714
     12  CB        16.3240   69.6630    0.8090 C.3    15  SER15       0.2130
     13  OG        17.2930   68.6290    0.7950 O.3    15  SER15      -0.2179
     14  N         15.1410   68.0780   -2.1630 N.am   16  ARG16      -0.1963
     15  CA        14.6020   66.7950   -2.6080 C.3    16  ARG16       0.1729
     16  C         15.3370   65.6000   -2.0000 C.2    16  ARG16       0.2617
     17  O         14.7220   64.5880   -1.6870 O.2    16  ARG16      -0.2715
     18  CB        14.6050   66.7070   -4.1380 C.3    16  ARG16       0.0348
     19  CG        13.4370   67.4460   -4.7810 C.3    16  ARG16       0.0492
     20  CD        13.5010   67.5050   -6.3110 C.3    16  ARG16       0.2205
     21  NE        14.7900   67.9740   -6.8160 N.pl3  16  ARG16      -0.0865
     22  CZ        15.0970   68.1610   -8.0990 C.cat  16  ARG16       0.5346
     23  NH1       16.3090   68.5890   -8.4230 N.pl3  16  ARG16       0.1354
     24  NH2       14.2090   67.9350   -9.0610 N.pl3  16  ARG16       0.1354
     25  N         16.6500   65.7080   -1.8410 N.am   17  SER17      -0.1936
     26  CA        17.4800   64.5740   -1.4350 C.3    17  SER17       0.2055
     27  C         17.6380   64.4210    0.0780 C.2    17  SER17       0.2643
     28  O         17.8980   63.3200    0.5610 O.2    17  SER17      -0.2714
     29  CB        18.8910   64.7270   -2.0010 C.3    17  SER17       0.2130
     30  OG        18.9920   64.2520   -3.3300 O.3    17  SER17      -0.2179
     31  N         17.5430   65.5230    0.8170 N.am   18  PHE18      -0.1973
     32  CA        17.9360   65.4850    2.2200 C.3    18  PHE18       0.1639
     33  C         16.8120   65.7850    3.2080 C.2    18  PHE18       0.2290
     34  O         16.9610   65.4930    4.3920 O.2    18  PHE18      -0.2864
     35  CB        19.1030   66.4440    2.4920 C.3    18  PHE18       0.0560
     36  CG        20.4040   66.0530    1.8320 C.ar   18  PHE18      -0.0200
     37  CD1       20.8750   66.7690    0.7390 C.ar   18  PHE18      -0.0042
     38  CD2       21.1860   65.0210    2.3430 C.ar   18  PHE18      -0.0042
     39  CE1       22.0880   66.4480    0.1320 C.ar   18  PHE18      -0.0003
     40  CE2       22.4000   64.6900    1.7510 C.ar   18  PHE18      -0.0003
     41  CZ        22.8500   65.3990    0.6370 C.ar   18  PHE18      -0.0000
     42  N         16.9260   64.3070    7.0130 N.3    22  ILE22      -0.1245
     43  CA        17.1850   65.3160    8.0500 C.3    22  ILE22       0.1561
     44  C         16.0650   65.3260    9.0880 C.2    22  ILE22       0.2260
     45  O         16.3290   65.3120   10.2880 O.2    22  ILE22      -0.2867
     46  CB        17.4070   66.7350    7.4670 C.3    22  ILE22       0.0252
     47  CG1       18.7660   66.7980    6.7650 C.3    22  ILE22       0.0019
     48  CG2       17.3450   67.8150    8.5540 C.3    22  ILE22       0.0019
     49  CD1       18.9460   67.9770    5.8110 C.3    22  ILE22       0.0001
     50  N         20.9080   70.1700   12.0890 N.3    33  VAL33      -0.1245
     51  CA        21.1590   69.8700   10.6810 C.3    33  VAL33       0.1561
     52  C         20.1890   70.6060    9.7540 C.2    33  VAL33       0.2260
     53  O         20.5850   71.0330    8.6690 O.2    33  VAL33      -0.2867
     54  CB        21.1950   68.3520   10.3800 C.3    33  VAL33       0.0252
     55  CG1       21.4170   68.1210    8.8850 C.3    33  VAL33       0.0019
     56  CG2       22.3080   67.6700   11.1730 C.3    33  VAL33       0.0019
     57  N         21.6310   74.1280    9.6320 N.3    36  PHE36      -0.1227
     58  CA        22.8640   74.0340    8.8380 C.3    36  PHE36       0.1736
     59  C         22.5720   73.9240    7.3450 C.2    36  PHE36       0.2595
     60  O         23.2060   74.5810    6.5100 O.2    36  PHE36      -0.2718
     61  CB        23.6740   72.8130    9.2740 C.3    36  PHE36       0.0547
     62  CG        25.0900   72.7790    8.7600 C.ar   36  PHE36      -0.0202
     63  CD1       25.8790   73.9220    8.7440 C.ar   36  PHE36      -0.0042
     64  CD2       25.6590   71.5750    8.3800 C.ar   36  PHE36      -0.0042
     65  CE1       27.1940   73.8730    8.3280 C.ar   36  PHE36      -0.0003
     66  CE2       26.9760   71.5140    7.9600 C.ar   36  PHE36      -0.0003
     67  CZ        27.7480   72.6690    7.9370 C.ar   36  PHE36      -0.0000
     68  N         21.5940   73.0880    7.0140 N.am   37  TYR37      -0.1976
     69  CA        21.1720   72.9840    5.6240 C.3    37  TYR37       0.1639
     70  C         20.7170   74.3430    5.0900 C.2    37  TYR37       0.2290
     71  O         21.2320   74.8150    4.0750 O.2    37  TYR37      -0.2864
     72  CB        20.0780   71.9300    5.4340 C.3    37  TYR37       0.0560
     73  CG        19.7400   71.7760    3.9730 C.ar   37  TYR37      -0.0198
     74  CD1       18.8820   72.6750    3.3440 C.ar   37  TYR37      -0.0009
     75  CD2       20.3230   70.7700    3.2110 C.ar   37  TYR37      -0.0009
     76  CE1       18.5970   72.5710    1.9970 C.ar   37  TYR37       0.0417
     77  CE2       20.0330   70.6470    1.8690 C.ar   37  TYR37       0.0417
     78  CZ        19.1750   71.5510    1.2720 C.ar   37  TYR37       0.1957
     79  OH        18.8840   71.4420   -0.0670 O.3    37  TYR37      -0.2866
     80  N         23.5280   77.0290    4.7500 N.3    40  LEU40      -0.1231
     81  CA        24.3990   76.7810    3.6050 C.3    40  LEU40       0.1693
     82  C         23.6670   76.9550    2.2790 C.2    40  LEU40       0.2591
     83  O         24.2840   77.3520    1.2880 O.2    40  LEU40      -0.2718
     84  CB        25.0930   75.4230    3.7070 C.3    40  LEU40       0.0284
     85  CG        26.1120   75.2240    4.8320 C.3    40  LEU40       0.0019
     86  CD1       26.8090   73.8880    4.6900 C.3    40  LEU40       0.0001
     87  CD2       27.1430   76.3370    4.9010 C.3    40  LEU40       0.0001
     88  N         22.3640   76.6800    2.2660 N.am   41  ARG41      -0.1980
     89  CA        21.5180   76.9350    1.0970 C.3    41  ARG41       0.1597
     90  C         21.5010   78.4200    0.7280 C.2    41  ARG41       0.2287
     91  O         21.5430   78.7880   -0.4510 O.2    41  ARG41      -0.2864
     92  CB        20.0920   76.4460    1.3720 C.3    41  ARG41       0.0334
     93  CG        19.1850   76.3650    0.1550 C.3    41  ARG41       0.0492
     94  CD        19.8240   75.5590   -0.9630 C.3    41  ARG41       0.2205
     95  NE        18.9930   75.5540   -2.1650 N.pl3  41  ARG41      -0.0865
     96  CZ        18.3840   74.4820   -2.6620 C.cat  41  ARG41       0.5346
     97  NH1       18.5310   73.3060   -2.0710 N.pl3  41  ARG41       0.1354
     98  NH2       17.6450   74.5860   -3.7600 N.pl3  41  ARG41       0.1354
     99  N         25.0790   79.3460   -0.6770 N.3    44  ASP44      -0.1239
    100  CA        25.2000   78.7910   -2.0230 C.3    44  ASP44       0.1674
    101  C         24.4010   79.5770   -3.0590 C.2    44  ASP44       0.2266
    102  O         24.8430   79.7150   -4.2010 O.2    44  ASP44      -0.2867
    103  CB        24.7630   77.3180   -2.0440 C.3    44  ASP44       0.1410
    104  CG        25.0660   76.6250   -3.3700 C.2    44  ASP44       0.3668
    105  OD1       24.1190   76.3110   -4.1200 O.co2  44  ASP44      -0.2456
    106  OD2       26.2540   76.3950   -3.6820 O.co2  44  ASP44      -0.2456
    107  N         15.9470   81.0170   -8.0840 N.3    81  LYS81      -0.1245
    108  CA        14.6530   80.4220   -7.7490 C.3    81  LYS81       0.1561
    109  C         14.4220   80.2680   -6.2420 C.2    81  LYS81       0.2260
    110  O         13.2920   80.3990   -5.7710 O.2    81  LYS81      -0.2867
    111  CB        14.4120   79.1070   -8.5010 C.3    81  LYS81       0.0271
    112  CG        15.4100   77.9830   -8.2490 C.3    81  LYS81       0.0035
    113  CD        14.9010   76.6660   -8.8300 C.3    81  LYS81       0.0206
    114  CE        15.9470   75.5560   -8.7800 C.3    81  LYS81       0.1093
    115  NZ        16.2230   75.0640   -7.4000 N.3    81  LYS81      -0.1314
    116  N         33.9680   78.3130    4.4290 N.3   114  MET114     -0.1245
    117  CA        33.3540   78.0970    3.1270 C.3   114  MET114      0.1570
    118  C         33.2420   79.4180    2.3720 C.2   114  MET114      0.2261
    119  O         33.4920   79.4660    1.1660 O.2   114  MET114     -0.2867
    120  CB        31.9880   77.4220    3.2670 C.3   114  MET114      0.0387
    121  CG        31.2940   77.1620    1.9470 C.3   114  MET114      0.0595
    122  SD        29.8210   76.1220    2.0360 S.3   114  MET114     -0.1393
    123  CE        30.2710   74.8790    3.2600 C.3   114  MET114      0.0692
    124  N         34.7350   79.9090   -1.3460 N.3   118  MET118     -0.1245
    125  CA        33.9150   80.2730   -2.5010 C.3   118  MET118      0.1570
    126  C         34.4090   81.5660   -3.1580 C.2   118  MET118      0.2261
    127  O         34.3760   81.6880   -4.3850 O.2   118  MET118     -0.2867
    128  CB        32.4430   80.4110   -2.1020 C.3   118  MET118      0.0387
    129  CG        31.7550   79.1020   -1.7280 C.3   118  MET118      0.0595
    130  SD        30.1210   79.4640   -1.0640 S.3   118  MET118     -0.1393
    131  CE        29.3190   77.8590   -1.1190 C.3   118  MET118      0.0692
    132  N         33.3040   73.5230   -0.8540 N.3   139  VAL139     -0.1231
    133  CA        31.8600   73.5650   -1.0710 C.3   139  VAL139      0.1692
    134  C         31.1330   72.2930   -0.6320 C.2   139  VAL139      0.2591
    135  O         29.9050   72.2490   -0.6560 O.2   139  VAL139     -0.2718
    136  CB        31.5040   73.9020   -2.5410 C.3   139  VAL139      0.0266
    137  CG1       32.2220   75.1640   -2.9930 C.3   139  VAL139      0.0020
    138  CG2       31.8360   72.7430   -3.4770 C.3   139  VAL139      0.0020
    139  N         31.8800   71.2650   -0.2350 N.am  140  ALA140     -0.1980
    140  CA        31.2840   69.9790    0.1320 C.3   140  ALA140      0.1597
    141  C         32.0800   69.2260    1.1930 C.2   140  ALA140      0.2287
    142  O         31.4920   68.6420    2.0980 O.2   140  ALA140     -0.2864
    143  CB        31.0410   69.0900   -1.0970 C.3   140  ALA140      0.0319
    144  N         31.2290   70.5460    4.4120 N.3   143  VAL143     -0.1245
    145  CA        29.8850   70.1520    4.8340 C.3   143  VAL143      0.1561
    146  C         30.0090   68.8390    5.5990 C.2   143  VAL143      0.2260
    147  O         29.5230   68.7250    6.7190 O.2   143  VAL143     -0.2867
    148  CB        28.9250   70.0240    3.6270 C.3   143  VAL143      0.0252
    149  CG1       27.5090   69.6860    4.0890 C.3   143  VAL143      0.0019
    150  CG2       28.9390   71.3240    2.8220 C.3   143  VAL143      0.0019
    151  N         29.0230   68.5650    9.4730 N.3   147  LEU147     -0.1245
    152  CA        28.0630   67.5580    9.9180 C.3   147  LEU147      0.1561
    153  C         28.6730   66.5820   10.9220 C.2   147  LEU147      0.2260
    154  O         28.0440   66.2490   11.9220 O.2   147  LEU147     -0.2867
    155  CB        27.4720   66.8020    8.7160 C.3   147  LEU147      0.0270
    156  CG        26.5250   67.5900    7.8060 C.3   147  LEU147      0.0019
    157  CD1       26.3190   66.9580    6.4130 C.3   147  LEU147      0.0001
    158  CD2       25.1910   67.8050    8.5000 C.3   147  LEU147      0.0001
    159  N         30.5190   62.8630   -3.0060 N.3   175  LEU175     -0.1231
    160  CA        29.2320   63.3740   -3.4680 C.3   175  LEU175      0.1693
    161  C         29.4060   64.5050   -4.4740 C.2   175  LEU175      0.2591
    162  O         28.7400   64.5430   -5.5180 O.2   175  LEU175     -0.2718
    163  CB        28.3840   63.8610   -2.2850 C.3   175  LEU175      0.0284
    164  CG        27.9960   62.8230   -1.2270 C.3   175  LEU175      0.0019
    165  CD1       27.0780   63.4370   -0.1710 C.3   175  LEU175      0.0001
    166  CD2       27.3610   61.5840   -1.8650 C.3   175  LEU175      0.0001
    167  N         30.3390   65.4040   -4.1810 N.am  176  GLN176     -0.1979
    168  CA        30.4890   66.5810   -5.0220 C.3   176  GLN176      0.1601
    169  C         31.1010   66.2180   -6.3660 C.2   176  GLN176      0.2287
    170  O         30.6540   66.6890   -7.4090 O.2   176  GLN176     -0.2864
    171  CB        31.3490   67.6420   -4.3430 C.3   176  GLN176      0.0394
    172  CG        31.4050   68.9130   -5.1650 C.3   176  GLN176      0.0908
    173  CD        30.0330   69.5420   -5.2720 C.2   176  GLN176      0.2608
    174  OE1       29.4210   69.8790   -4.2580 O.2   176  GLN176     -0.2717
    175  NE2       29.5250   69.6700   -6.4960 N.am  176  GLN176     -0.0878
    176  N         30.8890   63.3280   -7.7850 N.3   178  THR178     -0.1203
    177  CA        29.8560   62.5950   -8.5140 C.3   178  THR178      0.1994
    178  C         28.8820   63.5590   -9.1760 C.2   178  THR178      0.2617
    179  O         28.5520   63.3770  -10.3390 O.2   178  THR178     -0.2717
    180  CB        29.0890   61.5730   -7.6390 C.3   178  THR178      0.1784
    181  OG1       30.0310   60.6640   -7.0650 O.3   178  THR178     -0.2211
    182  CG2       28.0830   60.7570   -8.4790 C.3   178  THR178      0.0376
    183  N         28.4050   64.5560   -8.4360 N.am  179  ASN179     -0.1974
    184  CA        27.5220   65.5800   -8.9960 C.3   179  ASN179      0.1688
    185  C         28.1730   66.3230  -10.1540 C.2   179  ASN179      0.2292
    186  O         27.5430   66.5150  -11.1960 O.2   179  ASN179     -0.2864
    187  CB        27.1170   66.6120   -7.9390 C.3   179  ASN179      0.1181
    188  CG        25.7010   66.4240   -7.4530 C.2   179  ASN179      0.2629
    189  OD1       25.2670   65.3030   -7.1930 O.2   179  ASN179     -0.2716
    190  ND2       24.9720   67.5290   -7.3140 N.am  179  ASN179     -0.0877
    191  N         28.3810   63.8840  -13.1880 N.3   182  ARG182     -0.1245
    192  CA        27.0680   63.6410  -13.7670 C.3   182  ARG182      0.1563
    193  C         26.4950   64.9000  -14.4300 C.2   182  ARG182      0.2260
    194  O         25.8420   64.7980  -15.4690 O.2   182  ARG182     -0.2867
    195  CB        26.1070   63.0540  -12.7270 C.3   182  ARG182      0.0307
    196  CG        24.7520   62.6650  -13.2790 C.3   182  ARG182      0.0489
    197  CD        23.6560   63.5910  -12.7650 C.3   182  ARG182      0.2205
    198  NE        23.0350   63.1050  -11.5340 N.pl3 182  ARG182     -0.0865
    199  CZ        23.0140   63.7530  -10.3690 C.cat 182  ARG182      0.5346
    200  NH1       23.5890   64.9360  -10.2260 N.pl3 182  ARG182      0.1354
    201  NH2       22.4120   63.2090   -9.3210 N.pl3 182  ARG182      0.1354
    202  N         21.0150   58.9000    7.2080 N.3   252  PHE252     -0.1241
    203  CA        21.3360   60.1940    6.6050 C.3   252  PHE252      0.1605
    204  C         22.6660   60.1610    5.8410 C.2   252  PHE252      0.2264
    205  O         22.7860   60.7570    4.7670 O.2   252  PHE252     -0.2867
    206  CB        21.3530   61.2700    7.7110 C.3   252  PHE252      0.0534
    207  CG        21.9670   62.5730    7.2840 C.ar  252  PHE252     -0.0203
    208  CD1       21.1850   63.5720    6.7100 C.ar  252  PHE252     -0.0042
    209  CD2       23.3310   62.7970    7.4400 C.ar  252  PHE252     -0.0042
    210  CE1       21.7580   64.7740    6.2860 C.ar  252  PHE252     -0.0003
    211  CE2       23.9100   64.0020    7.0340 C.ar  252  PHE252     -0.0003
    212  CZ        23.1200   64.9910    6.4630 C.ar  252  PHE252     -0.0000
    213  N         22.8360   58.8490    0.7410 N.3   256  PRO256     -0.2116
    214  CA        23.3910   59.6210   -0.3690 C.3   256  PRO256      0.1372
    215  C         24.6720   59.0260   -0.9490 C.2   256  PRO256      0.2244
    216  O         24.8610   59.1060   -2.1550 O.2   256  PRO256     -0.2868
    217  CB        23.6160   61.0100    0.2380 C.3   256  PRO256      0.0268
    218  CG        22.6140   61.0440    1.3950 C.3   256  PRO256      0.0207
    219  CD        22.7080   59.6670    1.9620 C.3   256  PRO256      0.0892
    220  N         23.5790   56.2570   -3.3280 N.3   259  MET259     -0.1230
    221  CA        23.0500   56.8600   -4.5430 C.3   259  MET259      0.1702
    222  C         24.1790   57.4290   -5.3910 C.2   259  MET259      0.2592
    223  O         24.1230   57.3350   -6.6150 O.2   259  MET259     -0.2718
    224  CB        22.0350   57.9500   -4.2060 C.3   259  MET259      0.0401
    225  CG        20.7700   57.3580   -3.6210 C.3   259  MET259      0.0596
    226  SD        19.6860   58.7030   -3.1320 S.3   259  MET259     -0.1393
    227  CE        18.9000   59.0530   -4.7060 C.3   259  MET259      0.0692
    228  N         25.2070   57.9800   -4.7490 N.am  260  ALA260     -0.1980
    229  CA        26.3470   58.5150   -5.4940 C.3   260  ALA260      0.1597
    230  C         27.1160   57.3970   -6.1960 C.2   260  ALA260      0.2287
    231  O         27.4690   57.5260   -7.3690 O.2   260  ALA260     -0.2864
    232  CB        27.2720   59.3300   -4.5840 C.3   260  ALA260      0.0319
    233  N         25.2090   56.1760   -9.1020 N.3   263  THR263     -0.1218
    234  CA        25.3000   57.1360  -10.2030 C.3   263  THR263      0.1862
    235  C         26.6160   57.0060  -10.9680 C.2   263  THR263      0.2287
    236  O         26.6010   56.9790  -12.1970 O.2   263  THR263     -0.2866
    237  CB        25.0560   58.5660   -9.6830 C.3   263  THR263      0.1770
    238  OG1       23.7350   58.6230   -9.1290 O.3   263  THR263     -0.2211
    239  CG2       25.2130   59.6150  -10.7800 C.3   263  THR263      0.0375
@<TRIPOS>BOND
     1   194   193    2
     2   193   192    1
     3   192   191    1
     4   192   195    1
     5   196   197    1
     6   196   195    1
     7   197   198    1
     8   236   235    2
     9   198   199    2
    10   186   185    2
    11   235   234    1
    12   239   237    1
    13   199   200    1
    14   199   201    1
    15   179   178    2
    16   234   237    1
    17   234   233    1
    18   185   184    1
    19   237   238    1
    20   178   177    1
    21   178   183   am
    22    24    22    1
    23   184   183    1
    24   184   187    1
    25   113   114    1
    26   113   112    1
    27   114   115    1
    28   177   176    1
    29   177   180    1
    30   111   112    1
    31   111   108    1
    32   182   180    1
    33    23    22    1
    34    22    21    2
    35   107   108    1
    36   187   188    1
    37   108   109    1
    38   180   181    1
    39   188   190   am
    40   188   189    2
    41   170   169    2
    42   231   230    2
    43    21    20    1
    44   223   222    2
    45   175   173   am
    46   169   168    1
    47    20    19    1
    48   109   110    2
    49   230   229    1
    50   162   161    2
    51   229   228    1
    52   229   232    1
    53   222   228   am
    54   222   221    1
    55   173   172    1
    56   173   174    2
    57   172   171    1
    58   168   171    1
    59   168   167    1
    60    19    18    1
    61   227   226    1
    62   221   224    1
    63   221   220    1
    64   161   167   am
    65   161   160    1
    66   127   126    2
    67   224   225    1
    68   102   101    2
    69    18    15    1
    70   105   104   ar
    71    98    96    1
    72   106   104   ar
    73   225   226    1
    74   138   136    1
    75   160   159    1
    76   160   163    1
    77   104   103    1
    78    30    29    1
    79   126   125    1
    80   101   100    1
    81   137   136    1
    82     4     3    2
    83    96    95    2
    84    96    97    1
    85    15    14    1
    86    15    16    1
    87   136   133    1
    88   125   128    1
    89   125   124    1
    90   163   164    1
    91    95    94    1
    92    14    10   am
    93   216   215    2
    94   128   129    1
    95   103   100    1
    96   100    99    1
    97    29    26    1
    98    16    25   am
    99    16    17    2
   100   166   164    1
   101    25    26    1
   102   129   130    1
   103     3     2    1
   104     3     8   am
   105     2     5    1
   106     2     1    1
   107    26    27    1
   108   164   165    1
   109   131   130    1
   110   143   140    1
   111   133   132    1
   112   133   134    1
   113    94    93    1
   114   215   214    1
   115    10     9    1
   116    10    11    2
   117     5     7    1
   118     5     6    1
   119   135   134    2
   120   134   139   am
   121     8     9    1
   122     9    12    1
   123    91    90    2
   124   214   217    1
   125   214   213    1
   126   139   140    1
   127    79    78    1
   128    27    28    2
   129    27    31   am
   130    39    41   ar
   131    39    37   ar
   132   140   141    1
   133    93    92    1
   134   217   218    1
   135    41    40   ar
   136    90    89    1
   137    37    36   ar
   138   213   219    1
   139    13    12    1
   140    31    32    1
   141    89    92    1
   142    89    88    1
   143   119   118    2
   144   141   142    2
   145    78    77   ar
   146    78    76   ar
   147    83    82    2
   148   218   219    1
   149    40    38   ar
   150    36    38   ar
   151    36    35    1
   152    77    75   ar
   153   121   122    1
   154   121   120    1
   155    76    74   ar
   156   122   123    1
   157    32    35    1
   158    32    33    1
   159    88    82   am
   160    82    81    1
   161   118   117    1
   162   150   148    1
   163   117   120    1
   164   117   116    1
   165    33    34    2
   166    75    73   ar
   167    74    73   ar
   168    81    84    1
   169    81    80    1
   170   148   149    1
   171   148   145    1
   172    84    85    1
   173    73    72    1
   174    71    70    2
   175   144   145    1
   176    86    85    1
   177   205   204    2
   178    85    87    1
   179   145   146    1
   180    70    69    1
   181    72    69    1
   182   146   147    2
   183    69    68    1
   184    49    47    1
   185   204   203    1
   186   210   212   ar
   187   210   208   ar
   188   157   156    1
   189   212   211   ar
   190    60    59    2
   191   203   202    1
   192   203   206    1
   193   208   207   ar
   194    47    46    1
   195    42    43    1
   196    68    59   am
   197   211   209   ar
   198   207   209   ar
   199   207   206    1
   200    59    58    1
   201    46    43    1
   202    46    48    1
   203   156   158    1
   204   156   155    1
   205    67    66   ar
   206    67    65   ar
   207    66    64   ar
   208    43    44    1
   209    65    63   ar
   210    64    62   ar
   211    53    52    2
   212   155   152    1
   213    63    62   ar
   214    62    61    1
   215    58    61    1
   216    58    57    1
   217    55    54    1
   218    44    45    2
   219   151   152    1
   220    52    51    1
   221   152   153    1
   222    54    51    1
   223    54    56    1
   224    51    50    1
   225   153   154    2
