@<TRIPOS>MOLECULE
tmp/3vjeB00.pdb
 236 222 0 0 0
SMALL
GASTEIGER

@<TRIPOS>ATOM
      1  N         25.7780    5.0740   13.4300 N.3    18  HIS18      -0.1226
      2  CA        25.5610    4.7840   14.8490 C.3    18  HIS18       0.1752
      3  C         24.3310    5.4570   15.4550 C.2    18  HIS18       0.2597
      4  O         23.6480    4.8780   16.3040 O.2    18  HIS18      -0.2718
      5  CB        26.7800    5.2200   15.6650 C.3    18  HIS18       0.0759
      6  CG        28.0740    4.6220   15.2090 C.ar   18  HIS18       0.0818
      7  ND1       28.4180    3.3110   15.4590 N.ar   18  HIS18      -0.2268
      8  CD2       29.1220    5.1650   14.5450 C.ar   18  HIS18       0.1154
      9  CE1       29.6150    3.0670   14.9520 C.ar   18  HIS18       0.1986
     10  NE2       30.0650    4.1780   14.3950 N.ar   18  HIS18      -0.2212
     11  N         24.0660    6.6890   15.0320 N.am   19  SER19      -0.1938
     12  CA        23.1120    7.5500   15.7170 C.3    19  SER19       0.2055
     13  C         21.6820    7.2560   15.2960 C.2    19  SER19       0.2643
     14  O         21.2530    7.6770   14.2200 O.2    19  SER19      -0.2714
     15  CB        23.4470    9.0240   15.4660 C.3    19  SER19       0.2130
     16  OG        22.5720    9.8950   16.1660 O.3    19  SER19      -0.2179
     17  N         20.9540    6.5510   16.1580 N.am   20  LYS20      -0.1963
     18  CA        19.5520    6.2370   15.8950 C.3    20  LYS20       0.1728
     19  C         18.5880    7.3120   16.4020 C.2    20  LYS20       0.2617
     20  O         17.4190    7.2950   16.0370 O.2    20  LYS20      -0.2715
     21  CB        19.1620    4.8520   16.4390 C.3    20  LYS20       0.0311
     22  CG        20.0280    3.6940   15.9370 C.3    20  LYS20       0.0038
     23  CD        20.0440    2.5390   16.9480 C.3    20  LYS20       0.0206
     24  CE        21.2760    1.6380   16.8130 C.3    20  LYS20       0.1093
     25  NZ        22.5470    2.3130   17.2180 N.3    20  LYS20      -0.1314
     26  N         19.0450    8.2500   17.2260 N.am   21  SER21      -0.1936
     27  CA        18.1350    9.2940   17.7030 C.3    21  SER21       0.2055
     28  C         18.6290   10.7420   17.5680 C.2    21  SER21       0.2643
     29  O         17.8240   11.6490   17.3610 O.2    21  SER21      -0.2714
     30  CB        17.6470    8.9890   19.1230 C.3    21  SER21       0.2130
     31  OG        18.4460    9.6480   20.0880 O.3    21  SER21      -0.2179
     32  N         19.9320   10.9760   17.6860 N.am   22  PHE22      -0.1973
     33  CA        20.4640   12.3280   17.4990 C.3    22  PHE22       0.1639
     34  C         20.3740   12.8310   16.0570 C.2    22  PHE22       0.2290
     35  O         20.0920   14.0110   15.8170 O.2    22  PHE22      -0.2864
     36  CB        21.9100   12.4300   18.0020 C.3    22  PHE22       0.0560
     37  CG        22.0330   12.7920   19.4630 C.ar   22  PHE22      -0.0200
     38  CD1       21.4760   13.9700   19.9550 C.ar   22  PHE22      -0.0042
     39  CD2       22.7440   11.9790   20.3340 C.ar   22  PHE22      -0.0042
     40  CE1       21.5980   14.3120   21.2990 C.ar   22  PHE22      -0.0003
     41  CE2       22.8700   12.3170   21.6930 C.ar   22  PHE22      -0.0003
     42  CZ        22.3030   13.4860   22.1710 C.ar   22  PHE22      -0.0000
     43  N         17.5430   14.9960   14.6110 N.3    25  ALA25      -0.1231
     44  CA        17.4540   16.3550   15.1270 C.3    25  ALA25       0.1694
     45  C         18.5000   17.2970   14.5390 C.2    25  ALA25       0.2592
     46  O         18.1630   18.3380   13.9710 O.2    25  ALA25      -0.2718
     47  CB        17.5430   16.3360   16.6470 C.3    25  ALA25       0.0304
     48  N         19.7710   16.9320   14.6710 N.am   26  PHE26      -0.1976
     49  CA        20.8530   17.8560   14.3280 C.3    26  PHE26       0.1639
     50  C         20.9740   18.0970   12.8220 C.2    26  PHE26       0.2290
     51  O         21.4800   19.1370   12.3980 O.2    26  PHE26      -0.2864
     52  CB        22.1760   17.4530   14.9950 C.3    26  PHE26       0.0560
     53  CG        22.2460   17.8110   16.4600 C.ar   26  PHE26      -0.0200
     54  CD1       22.2600   19.1430   16.8700 C.ar   26  PHE26      -0.0042
     55  CD2       22.2990   16.8210   17.4300 C.ar   26  PHE26      -0.0042
     56  CE1       22.3140   19.4850   18.2180 C.ar   26  PHE26      -0.0003
     57  CE2       22.3610   17.1550   18.7810 C.ar   26  PHE26      -0.0003
     58  CZ        22.3720   18.4870   19.1750 C.ar   26  PHE26      -0.0000
     59  N         28.6710   19.9000   13.9050 N.3    37  VAL37      -0.1245
     60  CA        28.0710   18.8930   14.7720 C.3    37  VAL37       0.1561
     61  C         28.4730   17.4780   14.3460 C.2    37  VAL37       0.2260
     62  O         28.8200   16.6620   15.2090 O.2    37  VAL37      -0.2867
     63  CB        26.5290   19.0640   14.8370 C.3    37  VAL37       0.0252
     64  CG1       25.8740   17.9770   15.6750 C.3    37  VAL37       0.0019
     65  CG2       26.1580   20.4290   15.4250 C.3    37  VAL37       0.0019
     66  N         32.0020   16.9510   15.6700 N.3    40  ILE40      -0.1231
     67  CA        32.0250   16.8040   17.1190 C.3    40  ILE40       0.1692
     68  C         31.4900   15.4210   17.4630 C.2    40  ILE40       0.2592
     69  O         32.0590   14.7470   18.3080 O.2    40  ILE40      -0.2718
     70  CB        31.1650   17.8600   17.8810 C.3    40  ILE40       0.0266
     71  CG1       31.6210   19.2930   17.5880 C.3    40  ILE40       0.0019
     72  CG2       31.1760   17.5870   19.3880 C.3    40  ILE40       0.0020
     73  CD1       33.1160   19.4840   17.7140 C.3    40  ILE40       0.0001
     74  N         30.3710   15.0490   16.8400 N.am   41  TYR41      -0.1976
     75  CA        29.7610   13.7400   17.0560 C.3    41  TYR41       0.1639
     76  C         30.7540   12.6140   16.7510 C.2    41  TYR41       0.2290
     77  O         30.9000   11.6630   17.5320 O.2    41  TYR41      -0.2864
     78  CB        28.4890   13.5400   16.2140 C.3    41  TYR41       0.0560
     79  CG        27.7320   12.2960   16.6300 C.ar   41  TYR41      -0.0198
     80  CD1       26.7080   12.3700   17.5790 C.ar   41  TYR41      -0.0009
     81  CD2       28.0640   11.0450   16.1120 C.ar   41  TYR41      -0.0009
     82  CE1       26.0150   11.2340   17.9940 C.ar   41  TYR41       0.0417
     83  CE2       27.3820    9.8960   16.5090 C.ar   41  TYR41       0.0417
     84  CZ        26.3630    9.9950   17.4590 C.ar   41  TYR41       0.1957
     85  OH        25.6760    8.8590   17.8570 O.3    41  TYR41      -0.2866
     86  N         33.5590   12.4220   19.4550 N.3    44  CYS44      -0.1221
     87  CA        33.0940   11.9270   20.7490 C.3    44  CYS44       0.1808
     88  C         32.6950   10.4520   20.6850 C.2    44  CYS44       0.2601
     89  O         32.8540    9.7310   21.6640 O.2    44  CYS44      -0.2717
     90  CB        31.9380   12.7640   21.2990 C.3    44  CYS44       0.0970
     91  SG        32.3610   14.4750   21.6710 S.3    44  CYS44      -0.0800
     92  N         32.1860   10.0100   19.5350 N.am   45  ARG45      -0.1979
     93  CA        31.7680    8.6200   19.3440 C.3    45  ARG45       0.1597
     94  C         32.9880    7.6980   19.3050 C.2    45  ARG45       0.2287
     95  O         32.9670    6.6060   19.8840 O.2    45  ARG45      -0.2864
     96  CB        30.8840    8.4960   18.0910 C.3    45  ARG45       0.0334
     97  CG        30.6420    7.0880   17.5130 C.3    45  ARG45       0.0492
     98  CD        29.8090    6.1200   18.3660 C.3    45  ARG45       0.2205
     99  NE        28.3990    6.4880   18.4750 N.pl3  45  ARG45      -0.0865
    100  CZ        27.4120    5.6570   18.8060 C.cat  45  ARG45       0.5346
    101  NH1       27.6450    4.3690   19.0170 N.pl3  45  ARG45       0.1354
    102  NH2       26.1680    6.1140   18.8930 N.pl3  45  ARG45       0.1354
    103  N         34.2130    7.4640   22.8940 N.3    48  ASP48      -0.1239
    104  CA        33.3920    6.5550   23.6830 C.3    48  ASP48       0.1674
    105  C         33.6340    5.0860   23.3230 C.2    48  ASP48       0.2266
    106  O         33.6970    4.2290   24.2070 O.2    48  ASP48      -0.2867
    107  CB        31.9090    6.9230   23.5500 C.3    48  ASP48       0.1410
    108  CG        31.0240    6.1510   24.5140 C.2    48  ASP48       0.3668
    109  OD1       31.0250    6.4790   25.7150 O.co2  48  ASP48      -0.2456
    110  OD2       30.3240    5.2130   24.0750 O.co2  48  ASP48      -0.2456
    111  N         36.2170   14.9750   29.1650 N.3   107  LEU107     -0.1245
    112  CA        35.5230   13.8220   28.5850 C.3   107  LEU107      0.1561
    113  C         36.4780   12.6350   28.5020 C.2   107  LEU107      0.2260
    114  O         36.1590   11.5440   28.9780 O.2   107  LEU107     -0.2867
    115  CB        34.9700   14.1360   27.1920 C.3   107  LEU107      0.0270
    116  CG        34.4540   12.9770   26.3330 C.3   107  LEU107      0.0019
    117  CD1       33.2540   12.2870   26.9890 C.3   107  LEU107      0.0001
    118  CD2       34.0720   13.4830   24.9360 C.3   107  LEU107      0.0001
    119  N         36.1330    8.9760   30.1870 N.3   111  VAL111     -0.1245
    120  CA        36.0820    7.7180   29.4370 C.3   111  VAL111      0.1561
    121  C         37.1800    6.7320   29.8880 C.2   111  VAL111      0.2260
    122  O         36.9190    5.5330   29.9870 O.2   111  VAL111     -0.2867
    123  CB        36.0520    7.9610   27.9030 C.3   111  VAL111      0.0252
    124  CG1       36.2030    6.6500   27.1320 C.3   111  VAL111      0.0019
    125  CG2       34.7370    8.6460   27.5050 C.3   111  VAL111      0.0019
    126  N         30.7070   12.8530   30.8680 N.3   133  VAL133     -0.1245
    127  CA        30.4440   12.2710   29.5500 C.3   133  VAL133      0.1561
    128  C         29.5210   13.0930   28.6730 C.2   133  VAL133      0.2260
    129  O         29.4540   12.8450   27.4680 O.2   133  VAL133     -0.2867
    130  CB        29.9240   10.8030   29.5400 C.3   133  VAL133      0.0252
    131  CG1       30.9870    9.8540   29.9940 C.3   133  VAL133      0.0019
    132  CG2       28.6170   10.6360   30.3370 C.3   133  VAL133      0.0019
    133  N         30.3110   17.5840   26.5110 N.3   137  VAL137     -0.1245
    134  CA        29.8610   17.6660   25.1280 C.3   137  VAL137      0.1561
    135  C         29.0130   18.9170   24.9210 C.2   137  VAL137      0.2260
    136  O         29.2050   19.6140   23.9310 O.2   137  VAL137     -0.2867
    137  CB        29.1070   16.3920   24.6550 C.3   137  VAL137      0.0252
    138  CG1       28.6500   16.5380   23.1820 C.3   137  VAL137      0.0019
    139  CG2       29.9850   15.1470   24.8010 C.3   137  VAL137      0.0019
    140  N         29.8220   21.8970   22.2630 N.3   141  LEU141     -0.1245
    141  CA        28.8560   22.3470   21.2590 C.3   141  LEU141      0.1561
    142  C         28.4060   23.8110   21.3670 C.2   141  LEU141      0.2260
    143  O         27.7820   24.3380   20.4430 O.2   141  LEU141     -0.2867
    144  CB        27.6080   21.4580   21.2920 C.3   141  LEU141      0.0270
    145  CG        27.7550   20.0280   20.7600 C.3   141  LEU141      0.0019
    146  CD1       26.5620   19.1250   21.1780 C.3   141  LEU141      0.0001
    147  CD2       27.9050   20.0580   19.2310 C.3   141  LEU141      0.0001
    148  N         20.1190   14.9830   29.1460 N.3   164  LEU164     -0.1231
    149  CA        20.0230   13.9990   28.0580 C.3   164  LEU164      0.1693
    150  C         20.7410   12.7060   28.4410 C.2   164  LEU164      0.2591
    151  O         20.3190   11.6190   28.0530 O.2   164  LEU164     -0.2718
    152  CB        20.6220   14.5320   26.7480 C.3   164  LEU164      0.0284
    153  CG        19.7230   15.5470   26.0420 C.3   164  LEU164      0.0019
    154  CD1       20.5020   16.2690   24.9440 C.3   164  LEU164      0.0001
    155  CD2       18.5000   14.8300   25.4870 C.3   164  LEU164      0.0001
    156  N         21.8520   12.8230   29.1600 N.am  165  GLN165     -0.1979
    157  CA        22.5470   11.6240   29.6250 C.3   165  GLN165      0.1601
    158  C         21.7010   10.8720   30.6560 C.2   165  GLN165      0.2287
    159  O         21.6870    9.6380   30.6870 O.2   165  GLN165     -0.2864
    160  CB        23.8880   11.9760   30.2680 C.3   165  GLN165      0.0394
    161  CG        24.7160   10.7710   30.7290 C.3   165  GLN165      0.0908
    162  CD        25.0540    9.8280   29.5870 C.2   165  GLN165      0.2608
    163  OE1       25.2850   10.2450   28.4530 O.2   165  GLN165     -0.2717
    164  NE2       25.0660    8.5430   29.8800 N.am  165  GLN165     -0.0878
    165  N         18.4540   10.8530   30.7670 N.3   167  ILE167     -0.1231
    166  CA        17.4000   10.1970   29.9760 C.3   167  ILE167      0.1692
    167  C         17.8980    8.8800   29.3870 C.2   167  ILE167      0.2592
    168  O         17.2050    7.8630   29.3900 O.2   167  ILE167     -0.2718
    169  CB        16.9350   11.0670   28.7850 C.3   167  ILE167      0.0266
    170  CG1       16.3360   12.3810   29.2700 C.3   167  ILE167      0.0019
    171  CG2       15.9060   10.3170   27.9310 C.3   167  ILE167      0.0020
    172  CD1       15.2060   12.2170   30.2530 C.3   167  ILE167      0.0001
    173  N         19.1140    8.9310   28.8550 N.am  168  ASN168     -0.1974
    174  CA        19.7960    7.7570   28.3380 C.3   168  ASN168      0.1688
    175  C         19.8860    6.6200   29.3610 C.2   168  ASN168      0.2292
    176  O         19.5700    5.4650   29.0680 O.2   168  ASN168     -0.2864
    177  CB        21.1880    8.1820   27.8820 C.3   168  ASN168      0.1181
    178  CG        21.6580    7.4220   26.6740 C.2   168  ASN168      0.2629
    179  OD1       21.5610    6.2020   26.6130 O.2   168  ASN168     -0.2716
    180  ND2       22.1710    8.1470   25.6930 N.am  168  ASN168     -0.0877
    181  N         16.4400    5.1550   29.9820 N.3   171  ARG171     -0.1231
    182  CA        15.9720    4.3130   28.8850 C.3   171  ARG171      0.1694
    183  C         16.6700    2.9530   28.8440 C.2   171  ARG171      0.2592
    184  O         16.0960    1.9640   28.3970 O.2   171  ARG171     -0.2718
    185  CB        16.2110    5.0440   27.5540 C.3   171  ARG171      0.0321
    186  CG        15.4210    4.4940   26.3770 C.3   171  ARG171      0.0489
    187  CD        15.9210    5.0750   25.0600 C.3   171  ARG171      0.2205
    188  NE        17.3100    4.7020   24.8210 N.pl3 171  ARG171     -0.0865
    189  CZ        18.1420    5.3390   24.0030 C.cat 171  ARG171      0.5346
    190  NH1       17.7390    6.4060   23.3240 N.pl3 171  ARG171      0.1354
    191  NH2       19.3900    4.9000   23.8680 N.pl3 171  ARG171      0.1354
    192  N         17.9330    2.9340   29.2630 N.am  172  ASP172     -0.1974
    193  CA        18.8390    1.8160   29.0230 C.3   172  ASP172      0.1709
    194  C         19.1830    0.9940   30.2750 C.2   172  ASP172      0.2293
    195  O         20.1690    0.2520   30.2700 O.2   172  ASP172     -0.2864
    196  CB        20.1310    2.3200   28.3640 C.3   172  ASP172      0.1436
    197  CG        19.9180    2.8400   26.9500 C.2   172  ASP172      0.3671
    198  OD1       18.8550    2.5730   26.3530 O.co2 172  ASP172     -0.2456
    199  OD2       20.8140    3.5370   26.4220 O.co2 172  ASP172     -0.2456
    200  N         14.9370   18.3010   20.9210 N.3   244  ALA244     -0.1245
    201  CA        15.7080   17.3910   21.7690 C.3   244  ALA244      0.1562
    202  C         15.0200   17.1800   23.1170 C.2   244  ALA244      0.2260
    203  O         14.7630   16.0460   23.5200 O.2   244  ALA244     -0.2867
    204  CB        17.1180   17.9150   21.9660 C.3   244  ALA244      0.0290
    205  N         11.6880   15.2500   22.6320 N.3   247  ILE247     -0.1231
    206  CA        11.9430   13.8400   22.3490 C.3   247  ILE247      0.1692
    207  C         12.3970   13.1060   23.6160 C.2   247  ILE247      0.2591
    208  O         11.9810   11.9700   23.8610 O.2   247  ILE247     -0.2718
    209  CB        12.9120   13.6490   21.1560 C.3   247  ILE247      0.0266
    210  CG1       12.2340   14.1320   19.8680 C.3   247  ILE247      0.0019
    211  CG2       13.3250   12.1800   21.0170 C.3   247  ILE247      0.0020
    212  CD1       13.1020   14.1460   18.6310 C.3   247  ILE247      0.0001
    213  N         13.2030   13.7720   24.4410 N.am  248  ALA248     -0.1980
    214  CA        13.6400   13.2020   25.7170 C.3   248  ALA248      0.1597
    215  C         12.4700   12.9550   26.6660 C.2   248  ALA248      0.2287
    216  O         12.4270   11.9350   27.3560 O.2   248  ALA248     -0.2864
    217  CB        14.6710   14.0860   26.3730 C.3   248  ALA248      0.0319
    218  N         10.6230    9.9260   25.3770 N.3   251  ILE251     -0.1245
    219  CA        11.2980    8.6730   25.6950 C.3   251  ILE251      0.1561
    220  C         10.9010    8.2340   27.1000 C.2   251  ILE251      0.2260
    221  O         10.5710    7.0690   27.3140 O.2   251  ILE251     -0.2867
    222  CB        12.8370    8.8000   25.5740 C.3   251  ILE251      0.0252
    223  CG1       13.2660    8.6850   24.1090 C.3   251  ILE251      0.0019
    224  CG2       13.5620    7.7690   26.4390 C.3   251  ILE251      0.0019
    225  CD1       14.6650    9.1960   23.8430 C.3   251  ILE251      0.0001
    226  N         14.6090   -2.0010   24.4760 N.3   265  ARG265     -0.1245
    227  CA        15.0270   -0.6390   24.2000 C.3   265  ARG265      0.1563
    228  C         13.8520    0.1000   23.5700 C.2   265  ARG265      0.2260
    229  O         13.4990   -0.1630   22.4270 O.2   265  ARG265     -0.2867
    230  CB        16.1970   -0.6760   23.2130 C.3   265  ARG265      0.0307
    231  CG        16.4140    0.6110   22.4340 C.3   265  ARG265      0.0489
    232  CD        17.6120    1.3880   22.9180 C.3   265  ARG265      0.2205
    233  NE        18.2590    2.0530   21.7900 N.pl3 265  ARG265     -0.0865
    234  CZ        19.5470    2.3850   21.7370 C.cat 265  ARG265      0.5346
    235  NH1       20.3720    2.1090   22.7440 N.pl3 265  ARG265      0.1354
    236  NH2       20.0180    2.9830   20.6550 N.pl3 265  ARG265      0.1354
@<TRIPOS>BOND
     1    51    50    2
     2    50    49    1
     3     1     2    1
     4    59    60    1
     5    46    45    2
     6    14    13    2
     7    49    48    1
     8    49    52    1
     9    61    60    1
    10    61    62    2
    11    10     8   ar
    12    10     9   ar
    13    45    48   am
    14    45    44    1
    15     8     6   ar
    16    43    44    1
    17    60    63    1
    18    63    65    1
    19    63    64    1
    20     2     3    1
    21     2     5    1
    22     9     7   ar
    23    52    53    1
    24    11     3   am
    25    11    12    1
    26    44    47    1
    27     6     7   ar
    28     6     5    1
    29    13    12    1
    30    13    17   am
    31     3     4    2
    32    15    12    1
    33    15    16    1
    34    66    67    1
    35    35    34    2
    36    18    17    1
    37    18    19    1
    38    18    21    1
    39    22    21    1
    40    22    23    1
    41    20    19    2
    42    34    33    1
    43    81    83   ar
    44    81    79   ar
    45    78    79    1
    46    78    75    1
    47    19    26   am
    48    53    54   ar
    49    53    55   ar
    50    83    84   ar
    51    79    80   ar
    52    76    75    1
    53    76    77    2
    54    24    23    1
    55    24    25    1
    56    74    75    1
    57    74    68   am
    58    54    56   ar
    59    67    68    1
    60    67    70    1
    61    26    27    1
    62    29    28    2
    63    55    57   ar
    64    84    85    1
    65    84    82   ar
    66    68    69    2
    67    33    32    1
    68    33    36    1
    69    97    96    1
    70    97    98    1
    71    28    32   am
    72    28    27    1
    73    80    82   ar
    74    71    73    1
    75    71    70    1
    76    27    30    1
    77    70    72    1
    78    36    37    1
    79    96    93    1
    80    56    58   ar
    81    98    99    1
    82    99   100    2
    83   212   210    1
    84    57    58   ar
    85   100   102    1
    86   100   101    1
    87    30    31    1
    88   147   145    1
    89    94    93    1
    90    94    95    2
    91    93    92    1
    92    86    87    1
    93    37    38   ar
    94    37    39   ar
    95    92    88   am
    96   210   209    1
    97    38    40   ar
    98    39    41   ar
    99   143   142    2
   100   236   234    1
   101    88    87    1
   102    88    89    2
   103    87    90    1
   104   145   146    1
   105   145   144    1
   106   200   201    1
   107   211   209    1
   108   209   206    1
   109   141   144    1
   110   141   142    1
   111   141   140    1
   112    40    42   ar
   113    90    91    1
   114    41    42   ar
   115   234   233    2
   116   234   235    1
   117   201   204    1
   118   201   202    1
   119   233   232    1
   120   206   205    1
   121   206   207    1
   122   229   228    2
   123   231   232    1
   124   231   230    1
   125   103   104    1
   126   202   203    2
   127   138   137    1
   128   230   227    1
   129   105   104    1
   130   105   106    2
   131   190   189    1
   132   107   104    1
   133   107   108    1
   134   228   227    1
   135   207   208    2
   136   207   213   am
   137   225   223    1
   138   191   189    1
   139   136   135    2
   140   189   188    2
   141   110   108   ar
   142   223   222    1
   143   227   226    1
   144   213   214    1
   145   108   109   ar
   146   137   139    1
   147   137   134    1
   148   188   187    1
   149   135   134    1
   150   118   116    1
   151   154   153    1
   152   187   186    1
   153   134   133    1
   154   218   219    1
   155   155   153    1
   156   222   219    1
   157   222   224    1
   158   180   178   am
   159   219   220    1
   160   214   217    1
   161   214   215    1
   162   153   152    1
   163   116   117    1
   164   116   115    1
   165   198   197   ar
   166   186   185    1
   167   199   197   ar
   168   179   178    2
   169   215   216    2
   170   178   177    1
   171   152   149    1
   172   197   196    1
   173   220   221    2
   174   124   123    1
   175   115   112    1
   176   129   128    2
   177   125   123    1
   178   185   182    1
   179   177   174    1
   180   123   120    1
   181   171   169    1
   182   151   150    2
   183   149   150    1
   184   149   148    1
   185   174   173    1
   186   174   175    1
   187   196   193    1
   188   184   183    2
   189   150   156   am
   190   163   162    2
   191   113   112    1
   192   113   114    2
   193   112   111    1
   194   128   127    1
   195   169   170    1
   196   169   166    1
   197   183   182    1
   198   183   192   am
   199   173   167   am
   200   182   181    1
   201   193   192    1
   202   193   194    1
   203   176   175    2
   204   156   157    1
   205   170   172    1
   206   167   168    2
   207   167   166    1
   208   120   121    1
   209   120   119    1
   210   130   127    1
   211   130   131    1
   212   130   132    1
   213   127   126    1
   214   162   164   am
   215   162   161    1
   216   157   160    1
   217   157   158    1
   218   121   122    2
   219   166   165    1
   220   160   161    1
   221   195   194    2
   222   158   159    2
