@<TRIPOS>MOLECULE
tmp/3vjhA00.pdb
 244 231 0 0 0
SMALL
GASTEIGER

@<TRIPOS>ATOM
      1  N        -21.4280   25.7130    1.2720 N.3    53  LEU53      -0.1245
      2  CA       -20.9640   26.2180   -0.0120 C.3    53  LEU53       0.1561
      3  C        -20.4210   27.6340    0.1640 C.2    53  LEU53       0.2260
      4  O        -19.3190   27.9230   -0.3010 O.2    53  LEU53      -0.2867
      5  CB       -22.0690   26.1610   -1.0690 C.3    53  LEU53       0.0270
      6  CG       -21.6950   26.6440   -2.4760 C.3    53  LEU53       0.0019
      7  CD1      -20.6430   25.7390   -3.1260 C.3    53  LEU53       0.0001
      8  CD2      -22.9380   26.7380   -3.3440 C.3    53  LEU53       0.0001
      9  N        -23.7680   28.5470  -10.8780 N.3    65  ARG65      -0.1231
     10  CA       -22.3690   28.7500  -10.4910 C.3    65  ARG65       0.1694
     11  C        -21.5700   27.4360  -10.4390 C.2    65  ARG65       0.2592
     12  O        -20.4200   27.3710  -10.8950 O.2    65  ARG65      -0.2718
     13  CB       -22.3030   29.4610   -9.1370 C.3    65  ARG65       0.0321
     14  CG       -20.9000   29.8790   -8.7110 C.3    65  ARG65       0.0489
     15  CD       -20.8750   31.2570   -8.0210 C.3    65  ARG65       0.2205
     16  NE       -21.8750   31.4010   -6.9580 N.pl3  65  ARG65      -0.0865
     17  CZ       -21.8060   30.8330   -5.7500 C.cat  65  ARG65       0.5346
     18  NH1      -20.7850   30.0450   -5.4150 N.pl3  65  ARG65       0.1354
     19  NH2      -22.7800   31.0470   -4.8690 N.pl3  65  ARG65       0.1354
     20  N        -22.1840   26.3990   -9.8800 N.am   66  ILE66      -0.1966
     21  CA       -21.5670   25.0760   -9.8220 C.3    66  ILE66       0.1727
     22  C        -21.3740   24.5410  -11.2390 C.2    66  ILE66       0.2616
     23  O        -20.3280   23.9830  -11.5660 O.2    66  ILE66      -0.2715
     24  CB       -22.4460   24.0900   -9.0200 C.3    66  ILE66       0.0290
     25  CG1      -22.4090   24.4390   -7.5280 C.3    66  ILE66       0.0022
     26  CG2      -21.9980   22.6640   -9.2520 C.3    66  ILE66       0.0023
     27  CD1      -23.5530   23.8390   -6.7350 C.3    66  ILE66       0.0001
     28  N        -22.4010   24.7290  -12.0670 N.am   67  PHE67      -0.1974
     29  CA       -22.3820   24.3050  -13.4620 C.3    67  PHE67       0.1639
     30  C        -21.2890   25.0360  -14.2500 C.2    67  PHE67       0.2290
     31  O        -20.6120   24.4250  -15.0680 O.2    67  PHE67      -0.2864
     32  CB       -23.7630   24.5350  -14.0940 C.3    67  PHE67       0.0560
     33  CG       -23.8870   24.0200  -15.5020 C.ar   67  PHE67      -0.0200
     34  CD1      -24.2200   22.6900  -15.7460 C.ar   67  PHE67      -0.0042
     35  CD2      -23.6730   24.8660  -16.5840 C.ar   67  PHE67      -0.0042
     36  CE1      -24.3360   22.2090  -17.0560 C.ar   67  PHE67      -0.0003
     37  CE2      -23.7860   24.3960  -17.8880 C.ar   67  PHE67      -0.0003
     38  CZ       -24.1220   23.0660  -18.1240 C.ar   67  PHE67      -0.0000
     39  N        -18.5950   26.1930  -12.8990 N.3    69  GLY69      -0.1210
     40  CA       -17.3750   25.6100  -12.3600 C.3    69  GLY69       0.1956
     41  C        -17.0220   24.2940  -13.0240 C.2    69  GLY69       0.2612
     42  O        -15.8570   24.0510  -13.3260 O.2    69  GLY69      -0.2717
     43  N        -18.0200   23.4370  -13.2510 N.am   70  CYS70      -0.1956
     44  CA       -17.7800   22.1620  -13.9330 C.3    70  CYS70       0.1843
     45  C        -17.2840   22.3760  -15.3490 C.2    70  CYS70       0.2625
     46  O        -16.3260   21.7260  -15.7670 O.2    70  CYS70      -0.2714
     47  CB       -19.0210   21.2740  -13.9450 C.3    70  CYS70       0.0997
     48  SG       -19.3480   20.5620  -12.3420 S.3    70  CYS70      -0.0797
     49  N        -17.9300   23.2910  -16.0680 N.am   71  GLN71      -0.1977
     50  CA       -17.5070   23.6600  -17.4130 C.3    71  GLN71       0.1601
     51  C        -16.0350   24.0050  -17.4300 C.2    71  GLN71       0.2287
     52  O        -15.2830   23.4550  -18.2260 O.2    71  GLN71      -0.2864
     53  CB       -18.2770   24.8810  -17.9300 C.3    71  GLN71       0.0394
     54  CG       -19.6940   24.6290  -18.3920 C.3    71  GLN71       0.0908
     55  CD       -20.3000   25.8650  -19.0540 C.2    71  GLN71       0.2608
     56  OE1      -21.3750   26.3340  -18.6680 O.2    71  GLN71      -0.2717
     57  NE2      -19.5990   26.4050  -20.0470 N.am   71  GLN71      -0.0878
     58  N        -13.5610   23.4080  -15.2770 N.3    73  ARG73      -0.1231
     59  CA       -12.7470   22.2200  -15.0100 C.3    73  ARG73       0.1694
     60  C        -12.7430   21.2830  -16.2210 C.2    73  ARG73       0.2592
     61  O        -11.7210   20.6890  -16.5430 O.2    73  ARG73      -0.2718
     62  CB       -13.2320   21.4780  -13.7510 C.3    73  ARG73       0.0321
     63  CG       -12.4140   20.2310  -13.3700 C.3    73  ARG73       0.0489
     64  CD       -10.9570   20.5620  -12.9950 C.3    73  ARG73       0.2205
     65  NE       -10.1390   19.3600  -12.7600 N.pl3  73  ARG73      -0.0865
     66  CZ        -9.2510   18.8310  -13.6120 C.cat  73  ARG73       0.5346
     67  NH1       -9.0170   19.3650  -14.8060 N.pl3  73  ARG73       0.1354
     68  NH2       -8.5800   17.7440  -13.2630 N.pl3  73  ARG73       0.1354
     69  N        -13.8750   21.1710  -16.9070 N.am   74  SER74      -0.1952
     70  CA       -13.9400   20.3210  -18.0840 C.3    74  SER74       0.1924
     71  C        -12.9760   20.7870  -19.1660 C.2    74  SER74       0.2314
     72  O        -12.3150   19.9700  -19.7940 O.2    74  SER74      -0.2863
     73  CB       -15.3470   20.2650  -18.6530 C.3    74  SER74       0.2116
     74  OG       -15.4080   19.3330  -19.7200 O.3    74  SER74      -0.2180
     75  N         -9.5440   19.7800  -18.1350 N.3    77  ALA77      -0.1245
     76  CA        -9.3440   18.3500  -18.3090 C.3    77  ALA77       0.1562
     77  C         -9.0690   18.0240  -19.7680 C.2    77  ALA77       0.2260
     78  O         -8.2080   17.2000  -20.0600 O.2    77  ALA77      -0.2867
     79  CB       -10.5380   17.5570  -17.7890 C.3    77  ALA77       0.0290
     80  N        -14.6260   13.1460  -23.4950 N.3   108  HIS108     -0.1241
     81  CA       -15.6560   12.9940  -22.4530 C.3   108  HIS108      0.1621
     82  C        -15.6920   11.6100  -21.8490 C.2   108  HIS108      0.2264
     83  O        -15.8800   11.4720  -20.6540 O.2   108  HIS108     -0.2867
     84  CB       -17.0360   13.4220  -22.9450 C.3   108  HIS108      0.0745
     85  CG       -17.2030   14.9080  -23.0060 C.ar  108  HIS108      0.0817
     86  ND1      -16.9190   15.6400  -24.1360 N.ar  108  HIS108     -0.2268
     87  CD2      -17.5910   15.8010  -22.0660 C.ar  108  HIS108      0.1154
     88  CE1      -17.1440   16.9210  -23.8970 C.ar  108  HIS108      0.1986
     89  NE2      -17.5470   17.0470  -22.6470 N.ar  108  HIS108     -0.2212
     90  N        -12.9880   11.8620  -19.4140 N.3   111  ILE111     -0.1231
     91  CA       -13.3340   12.7320  -18.2960 C.3   111  ILE111      0.1692
     92  C        -14.1270   11.9200  -17.2540 C.2   111  ILE111      0.2592
     93  O        -13.7950   11.9310  -16.0660 O.2   111  ILE111     -0.2718
     94  CB       -14.1450   13.9920  -18.7670 C.3   111  ILE111      0.0266
     95  CG1      -13.1960   15.0640  -19.3270 C.3   111  ILE111      0.0019
     96  CG2      -14.9740   14.5670  -17.6080 C.3   111  ILE111      0.0020
     97  CD1      -13.8720   16.4000  -19.7830 C.3   111  ILE111      0.0001
     98  N        -15.1350   11.1730  -17.7010 N.am  112  TYR112     -0.1976
     99  CA       -15.9850   10.4160  -16.7530 C.3   112  TYR112      0.1639
    100  C        -15.2740    9.2000  -16.1390 C.2   112  TYR112      0.2290
    101  O        -15.5230    8.8590  -14.9980 O.2   112  TYR112     -0.2864
    102  CB       -17.3360   10.0260  -17.3900 C.3   112  TYR112      0.0560
    103  CG       -18.0860   11.2180  -17.9410 C.ar  112  TYR112     -0.0198
    104  CD1      -18.2870   12.3610  -17.1690 C.ar  112  TYR112     -0.0009
    105  CD2      -18.5600   11.2220  -19.2460 C.ar  112  TYR112     -0.0009
    106  CE1      -18.9380   13.4600  -17.6820 C.ar  112  TYR112      0.0417
    107  CE2      -19.2070   12.3080  -19.7630 C.ar  112  TYR112      0.0417
    108  CZ       -19.3940   13.4280  -18.9790 C.ar  112  TYR112      0.1957
    109  OH       -20.0620   14.5050  -19.5030 O.3   112  TYR112     -0.2866
    110  N        -13.1030   10.9580  -13.5120 N.3   115  LEU115     -0.1245
    111  CA       -13.9800   11.5110  -12.4810 C.3   115  LEU115      0.1561
    112  C        -14.3300   10.4730  -11.4350 C.2   115  LEU115      0.2260
    113  O        -14.4350   10.8090  -10.2690 O.2   115  LEU115     -0.2867
    114  CB       -15.2560   12.0750  -13.0850 C.3   115  LEU115      0.0270
    115  CG       -16.1560   12.8830  -12.1370 C.3   115  LEU115      0.0019
    116  CD1      -15.4060   14.0730  -11.5240 C.3   115  LEU115      0.0001
    117  CD2      -17.3990   13.3420  -12.8810 C.3   115  LEU115      0.0001
    118  N        -12.2500   10.3550   -8.3530 N.3   118  LEU118     -0.1245
    119  CA       -12.4860   11.4020   -7.3700 C.3   118  LEU118      0.1561
    120  C        -13.8030   11.1990   -6.6170 C.2   118  LEU118      0.2260
    121  O        -14.1830   12.0570   -5.8210 O.2   118  LEU118     -0.2867
    122  CB       -12.5150   12.7820   -8.0460 C.3   118  LEU118      0.0270
    123  CG       -11.4430   13.1780   -9.0720 C.3   118  LEU118      0.0019
    124  CD1      -11.4470   14.7160   -9.3490 C.3   118  LEU118      0.0001
    125  CD2      -10.0740   12.7090   -8.6620 C.3   118  LEU118      0.0001
    126  N        -18.0250   13.8110   -4.3800 N.3   124  VAL124     -0.1231
    127  CA       -16.9350   13.9640   -5.3420 C.3   124  VAL124      0.1692
    128  C        -15.9700   15.0310   -4.8790 C.2   124  VAL124      0.2592
    129  O        -16.3860   16.0810   -4.3780 O.2   124  VAL124     -0.2718
    130  CB       -17.4610   14.3360   -6.7610 C.3   124  VAL124      0.0266
    131  CG1      -18.3260   15.6490   -6.7490 C.3   124  VAL124      0.0020
    132  CG2      -16.3130   14.4760   -7.7310 C.3   124  VAL124      0.0020
    133  N        -14.6790   14.7510   -5.0290 N.am  125  LEU125     -0.1966
    134  CA       -13.6490   15.7320   -4.7280 C.3   125  LEU125      0.1728
    135  C        -13.7360   16.8680   -5.7280 C.2   125  LEU125      0.2616
    136  O        -14.0310   16.6430   -6.8910 O.2   125  LEU125     -0.2715
    137  CB       -12.2550   15.1100   -4.8130 C.3   125  LEU125      0.0311
    138  CG       -11.8510   14.1000   -3.7460 C.3   125  LEU125      0.0022
    139  CD1      -10.4570   13.5650   -4.0620 C.3   125  LEU125      0.0001
    140  CD2      -11.8780   14.7060   -2.3690 C.3   125  LEU125      0.0001
    141  N        -13.4960   18.0860   -5.2640 N.am  126  ILE126     -0.1963
    142  CA       -13.4810   19.2590   -6.1270 C.3   126  ILE126      0.1727
    143  C        -12.2790   20.1300   -5.7860 C.2   126  ILE126      0.2616
    144  O        -11.5900   19.8980   -4.7790 O.2   126  ILE126     -0.2715
    145  CB       -14.7820   20.0920   -5.9930 C.3   126  ILE126      0.0290
    146  CG1      -15.0110   20.5470   -4.5460 C.3   126  ILE126      0.0022
    147  CG2      -15.9870   19.3000   -6.4960 C.3   126  ILE126      0.0023
    148  CD1      -15.9240   21.7700   -4.4420 C.3   126  ILE126      0.0001
    149  N        -12.0320   21.1250   -6.6350 N.am  127  SER127     -0.1950
    150  CA       -10.9230   22.0610   -6.4630 C.3   127  SER127      0.1924
    151  C         -9.6230   21.3500   -6.1040 C.2   127  SER127      0.2314
    152  O         -9.0630   21.5410   -5.0150 O.2   127  SER127     -0.2863
    153  CB       -11.2570   23.1010   -5.4130 C.3   127  SER127      0.2116
    154  OG       -10.1140   23.8950   -5.1360 O.3   127  SER127     -0.2180
    155  N        -17.8810   17.7030   -2.3540 N.3   133  MET133     -0.1245
    156  CA       -19.2890   18.0690   -2.4860 C.3   133  MET133      0.1570
    157  C        -20.1520   16.8130   -2.5000 C.2   133  MET133      0.2261
    158  O        -19.9090   15.8990   -3.2910 O.2   133  MET133     -0.2867
    159  CB       -19.4900   18.8630   -3.7830 C.3   133  MET133      0.0387
    160  CG       -20.7880   19.6360   -3.8660 C.3   133  MET133      0.0595
    161  SD       -20.8900   20.5870   -5.4040 S.3   133  MET133     -0.1393
    162  CE       -20.2430   22.1730   -4.8750 C.3   133  MET133      0.0692
    163  N        -25.6810   17.8410   -4.5930 N.3   138  LEU138     -0.1245
    164  CA       -25.7720   17.9430   -6.0480 C.3   138  LEU138      0.1561
    165  C        -27.1380   17.4820   -6.5640 C.2   138  LEU138      0.2260
    166  O        -27.6750   18.0700   -7.4980 O.2   138  LEU138     -0.2867
    167  CB       -24.6700   17.1290   -6.7160 C.3   138  LEU138      0.0270
    168  CG       -23.2850   17.7670   -6.7170 C.3   138  LEU138      0.0019
    169  CD1      -22.2370   16.6850   -6.9140 C.3   138  LEU138      0.0001
    170  CD2      -23.1900   18.8390   -7.8120 C.3   138  LEU138      0.0001
    171  N        -27.8210   16.1580  -13.3260 N.3   148  PHE148     -0.1227
    172  CA       -26.5750   16.0840  -14.1070 C.3   148  PHE148      0.1736
    173  C        -25.5440   15.0730  -13.6120 C.2   148  PHE148      0.2595
    174  O        -24.8780   14.4240  -14.4230 O.2   148  PHE148     -0.2718
    175  CB       -25.9070   17.4640  -14.2210 C.3   148  PHE148      0.0547
    176  CG       -26.1880   18.1500  -15.5210 C.ar  148  PHE148     -0.0202
    177  CD1      -27.2620   19.0080  -15.6450 C.ar  148  PHE148     -0.0042
    178  CD2      -25.3990   17.9050  -16.6330 C.ar  148  PHE148     -0.0042
    179  CE1      -27.5370   19.6330  -16.8450 C.ar  148  PHE148     -0.0003
    180  CE2      -25.6700   18.5370  -17.8450 C.ar  148  PHE148     -0.0003
    181  CZ       -26.7380   19.4060  -17.9450 C.ar  148  PHE148     -0.0000
    182  N        -25.4180   14.9320  -12.2970 N.am  149  MET149     -0.1979
    183  CA       -24.3090   14.1800  -11.7180 C.3   149  MET149      0.1605
    184  C        -24.6830   12.7600  -11.2880 C.2   149  MET149      0.2287
    185  O        -23.8080   11.8990  -11.1450 O.2   149  MET149     -0.2864
    186  CB       -23.7240   14.9530  -10.5380 C.3   149  MET149      0.0413
    187  CG       -22.2560   14.6670  -10.2600 C.3   149  MET149      0.0598
    188  SD       -21.0950   14.9440  -11.6200 S.3   149  MET149     -0.1393
    189  CE       -21.7320   16.4340  -12.3780 C.3   149  MET149      0.0692
    190  N        -23.3160    9.9550  -13.2430 N.3   152  LYS152     -0.1245
    191  CA       -21.8630    9.8200  -13.0900 C.3   152  LYS152      0.1561
    192  C        -21.5510    9.0480  -11.8140 C.2   152  LYS152      0.2260
    193  O        -20.6570    8.2000  -11.8090 O.2   152  LYS152     -0.2867
    194  CB       -21.1670   11.1880  -13.0770 C.3   152  LYS152      0.0271
    195  CG       -20.9990   11.8250  -14.4550 C.3   152  LYS152      0.0035
    196  CD       -22.3030   12.3190  -15.0150 C.3   152  LYS152      0.0206
    197  CE       -22.1070   13.2540  -16.1910 C.3   152  LYS152      0.1093
    198  NZ       -23.4220   13.6880  -16.7610 N.3   152  LYS152     -0.1314
    199  N        -25.7750   12.9610  -21.0580 N.3   234  HIS234     -0.1241
    200  CA       -25.2610   14.2630  -20.6730 C.3   234  HIS234      0.1621
    201  C        -25.5620   15.3050  -21.7610 C.2   234  HIS234      0.2264
    202  O        -26.1000   16.3670  -21.4700 O.2   234  HIS234     -0.2867
    203  CB       -23.7530   14.1660  -20.3920 C.3   234  HIS234      0.0745
    204  CG       -23.1180   15.4750  -20.0450 C.ar  234  HIS234      0.0817
    205  ND1      -23.0420   15.9390  -18.7530 N.ar  234  HIS234     -0.2268
    206  CD2      -22.5490   16.4250  -20.8220 C.ar  234  HIS234      0.1154
    207  CE1      -22.4480   17.1170  -18.7470 C.ar  234  HIS234      0.1986
    208  NE2      -22.1390   17.4350  -19.9900 N.ar  234  HIS234     -0.2212
    209  N        -27.7150   18.8630  -21.6470 N.3   238  LEU238     -0.1245
    210  CA       -27.2410   20.1890  -22.0790 C.3   238  LEU238      0.1561
    211  C        -28.1750   20.8750  -23.0670 C.2   238  LEU238      0.2260
    212  O        -28.3280   22.0930  -23.0240 O.2   238  LEU238     -0.2867
    213  CB       -25.8590   20.1150  -22.7420 C.3   238  LEU238      0.0270
    214  CG       -24.5890   19.9840  -21.9150 C.3   238  LEU238      0.0019
    215  CD1      -24.6960   20.6330  -20.5540 C.3   238  LEU238      0.0001
    216  CD2      -24.2520   18.5340  -21.7750 C.3   238  LEU238      0.0001
    217  N        -21.9060   28.3200  -22.6700 N.3   250  LEU250     -0.1245
    218  CA       -21.1670   27.0770  -22.8560 C.3   250  LEU250      0.1561
    219  C        -19.8510   27.3860  -23.5890 C.2   250  LEU250      0.2260
    220  O        -19.8530   28.0250  -24.6440 O.2   250  LEU250     -0.2867
    221  CB       -22.0090   26.0830  -23.6570 C.3   250  LEU250      0.0270
    222  CG       -21.7120   24.5890  -23.4690 C.3   250  LEU250      0.0019
    223  CD1      -22.4140   23.7570  -24.5400 C.3   250  LEU250      0.0001
    224  CD2      -20.2360   24.3190  -23.4840 C.3   250  LEU250      0.0001
    225  N        -15.8310   23.2200  -25.5900 N.3   254  LEU254     -0.1245
    226  CA       -16.8640   22.2250  -25.3220 C.3   254  LEU254      0.1561
    227  C        -17.9410   22.2310  -26.4050 C.2   254  LEU254      0.2260
    228  O        -18.3740   21.1670  -26.8380 O.2   254  LEU254     -0.2867
    229  CB       -17.4940   22.4380  -23.9480 C.3   254  LEU254      0.0270
    230  CG       -16.5670   22.3100  -22.7380 C.3   254  LEU254      0.0019
    231  CD1      -17.3490   22.5890  -21.4610 C.3   254  LEU254      0.0001
    232  CD2      -15.8940   20.9250  -22.6870 C.3   254  LEU254      0.0001
    233  N        -19.0850   18.9680  -28.8970 N.3   258  TYR258     -0.1241
    234  CA       -20.4690   18.4590  -29.0440 C.3   258  TYR258      0.1605
    235  C        -21.1260   18.6720  -30.4130 C.2   258  TYR258      0.2264
    236  O        -22.1310   18.0260  -30.7170 O.2   258  TYR258     -0.2867
    237  CB       -21.3800   19.0630  -27.9680 C.3   258  TYR258      0.0534
    238  CG       -21.0410   18.5990  -26.5700 C.ar  258  TYR258     -0.0201
    239  CD1      -21.1430   17.2600  -26.2250 C.ar  258  TYR258     -0.0009
    240  CD2      -20.6160   19.4980  -25.5930 C.ar  258  TYR258     -0.0009
    241  CE1      -20.8310   16.8240  -24.9420 C.ar  258  TYR258      0.0417
    242  CE2      -20.3040   19.0740  -24.3140 C.ar  258  TYR258      0.0417
    243  CZ       -20.4140   17.7330  -23.9980 C.ar  258  TYR258      0.1957
    244  OH       -20.1130   17.2960  -22.7350 O.3   258  TYR258     -0.2866
@<TRIPOS>BOND
     1   236   235    2
     2   235   234    1
     3   234   233    1
     4   234   237    1
     5   237   238    1
     6   228   227    2
     7   238   239   ar
     8   238   240   ar
     9   227   226    1
    10   239   241   ar
    11   240   242   ar
    12   225   226    1
    13   226   229    1
    14   241   243   ar
    15   220   219    2
    16   223   222    1
    17   242   243   ar
    18    86    88   ar
    19    86    85   ar
    20   243   244    1
    21   229   230    1
    22    88    89   ar
    23   221   222    1
    24   221   218    1
    25   219   218    1
    26    80    81    1
    27   224   222    1
    28   211   212    2
    29   211   210    1
    30    85    84    1
    31    85    87   ar
    32    84    81    1
    33   218   217    1
    34   213   210    1
    35   213   214    1
    36   230   232    1
    37   230   231    1
    38    89    87   ar
    39    81    82    1
    40   210   209    1
    41   214   216    1
    42   214   215    1
    43    82    83    2
    44   201   202    2
    45   201   200    1
    46   199   200    1
    47   206   204   ar
    48   206   208   ar
    49   200   203    1
    50   203   204    1
    51    78    77    2
    52    57    55   am
    53   204   205   ar
    54   208   207   ar
    55    72    71    2
    56    97    95    1
    57    77    76    1
    58   107   105   ar
    59   107   108   ar
    60    74    73    1
    61   109   108    1
    62    90    91    1
    63    95    94    1
    64   105   103   ar
    65    71    70    1
    66    55    56    2
    67    55    54    1
    68   108   106   ar
    69    94    91    1
    70    94    96    1
    71   205   207   ar
    72    73    70    1
    73    54    53    1
    74    76    75    1
    75    76    79    1
    76    91    92    1
    77    52    51    2
    78    38    37   ar
    79    38    36   ar
    80    70    69    1
    81   181   180   ar
    82   181   179   ar
    83   103   102    1
    84   103   104   ar
    85    53    50    1
    86    37    35   ar
    87   180   178   ar
    88    98    92   am
    89    98    99    1
    90   106   104   ar
    91    51    50    1
    92    50    49    1
    93   102    99    1
    94    92    93    2
    95    36    34   ar
    96    69    60   am
    97   179   177   ar
    98   198   197    1
    99    99   100    1
   100   178   176   ar
   101    35    33   ar
   102    61    60    2
   103    60    59    1
   104   197   196    1
   105   100   101    2
   106    49    45   am
   107    46    45    2
   108    34    33   ar
   109   177   176   ar
   110   176   175    1
   111    33    32    1
   112    45    44    1
   113    58    59    1
   114    31    30    2
   115   196   195    1
   116    59    62    1
   117    67    66    1
   118   195   194    1
   119   174   173    2
   120    30    29    1
   121   175   172    1
   122   172   173    1
   123   172   171    1
   124    32    29    1
   125    47    44    1
   126    47    48    1
   127    44    43    1
   128    62    63    1
   129   173   182   am
   130    66    68    1
   131    66    65    2
   132   110   111    1
   133    29    28    1
   134    63    64    1
   135    42    41    2
   136    43    41   am
   137   190   191    1
   138   191   194    1
   139   191   192    1
   140   114   111    1
   141   114   115    1
   142    41    40    1
   143    64    65    1
   144    39    40    1
   145   117   115    1
   146   111   112    1
   147   189   188    1
   148   182   183    1
   149   115   116    1
   150    28    22   am
   151   192   193    2
   152   183   184    1
   153   183   186    1
   154   188   187    1
   155    23    22    2
   156   112   113    2
   157   184   185    2
   158    22    21    1
   159    12    11    2
   160     9    10    1
   161   186   187    1
   162    10    11    1
   163    10    13    1
   164    11    20   am
   165    20    21    1
   166    21    24    1
   167   124   123    1
   168    26    24    1
   169    13    14    1
   170   123   125    1
   171   123   122    1
   172    24    25    1
   173    14    15    1
   174   118   119    1
   175   122   119    1
   176    15    16    1
   177   170   168    1
   178   132   130    1
   179    25    27    1
   180   166   165    2
   181   119   120    1
   182    16    17    2
   183   169   168    1
   184   136   135    2
   185   130   131    1
   186   130   127    1
   187   168   167    1
   188   167   164    1
   189   149   150    1
   190   149   143   am
   191   120   121    2
   192   165   164    1
   193   147   145    1
   194   150   151    1
   195   150   153    1
   196   142   145    1
   197   142   143    1
   198   142   141    1
   199   151   152    2
   200   164   163    1
   201   145   146    1
   202   143   144    2
   203    17    18    1
   204    17    19    1
   205   135   141   am
   206   135   134    1
   207   153   154    1
   208   161   162    1
   209   161   160    1
   210   127   128    1
   211   127   126    1
   212   133   128   am
   213   133   134    1
   214   128   129    2
   215   137   134    1
   216   137   138    1
   217   146   148    1
   218   139   138    1
   219   160   159    1
   220   159   156    1
   221   138   140    1
   222     8     6    1
   223   158   157    2
   224     7     6    1
   225   157   156    1
   226   156   155    1
   227     6     5    1
   228     5     2    1
   229     4     3    2
   230     2     3    1
   231     2     1    1
