@<TRIPOS>MOLECULE
tmp/3vjkB00.pdb
 198 195 0 0 0
SMALL
GASTEIGER

@<TRIPOS>ATOM
      1  N         96.4430   61.8230   36.8220 N.3    88  ARG88      -0.1245
      2  CA        97.2570   61.3440   37.9230 C.3    88  ARG88       0.1563
      3  C         98.4930   62.2050   38.1630 C.2    88  ARG88       0.2260
      4  O         98.8940   62.4250   39.3210 O.2    88  ARG88      -0.2867
      5  CB        97.6530   59.8830   37.7420 C.3    88  ARG88       0.0307
      6  CG        98.1240   59.2150   39.0420 C.3    88  ARG88       0.0489
      7  CD        98.8310   57.9010   38.7720 C.3    88  ARG88       0.2205
      8  NE        97.9650   56.8880   38.1630 N.pl3  88  ARG88      -0.0865
      9  CZ        97.3730   55.8970   38.8350 C.cat  88  ARG88       0.5346
     10  NH1       96.6000   55.0150   38.2070 N.pl3  88  ARG88       0.1354
     11  NH2       97.5540   55.7790   40.1420 N.pl3  88  ARG88       0.1354
     12  N         99.4630   58.3440   31.7950 N.3   168  GLU168     -0.1231
     13  CA        99.0960   57.2710   32.6690 C.3   168  GLU168      0.1699
     14  C         99.9870   56.0460   32.5010 C.2   168  GLU168      0.2592
     15  O        100.4600   55.5090   33.5010 O.2   168  GLU168     -0.2718
     16  CB        97.6330   56.8710   32.4540 C.3   168  GLU168      0.0402
     17  CG        97.1960   55.6300   33.2900 C.3   168  GLU168      0.1161
     18  CD        97.1040   55.9080   34.8010 C.2   168  GLU168      0.3649
     19  OE1       96.5630   55.0500   35.5310 O.co2 168  GLU168     -0.2457
     20  OE2       97.5550   56.9740   35.2680 O.co2 168  GLU168     -0.2457
     21  N        100.2070   55.6160   31.2620 N.am  169  GLU169     -0.1966
     22  CA       100.8090   54.3060   31.0250 C.3   169  GLU169      0.1733
     23  C        102.2610   54.3000   30.5740 C.2   169  GLU169      0.2616
     24  O        103.0090   53.4240   30.9920 O.2   169  GLU169     -0.2715
     25  CB        99.9940   53.4700   30.0250 C.3   169  GLU169      0.0429
     26  CG        98.5630   53.2800   30.3700 C.3   169  GLU169      0.1163
     27  CD        98.3650   52.4510   31.6120 C.2   169  GLU169      0.3649
     28  OE1       97.2110   52.3380   32.1060 O.co2 169  GLU169     -0.2457
     29  OE2       99.3740   51.8990   32.0830 O.co2 169  GLU169     -0.2457
     30  N        102.6470   55.2270   29.6990 N.am  170  VAL170     -0.1963
     31  CA       103.9630   55.1320   29.0340 C.3   170  VAL170      0.1727
     32  C        105.1040   55.7980   29.8100 C.2   170  VAL170      0.2616
     33  O        106.1240   55.1720   30.0800 O.2   170  VAL170     -0.2715
     34  CB       103.9370   55.6930   27.6060 C.3   170  VAL170      0.0290
     35  CG1      105.3090   55.5940   26.9830 C.3   170  VAL170      0.0023
     36  CG2      102.8990   54.9630   26.7380 C.3   170  VAL170      0.0023
     37  N        104.9230   57.0710   30.1540 N.am  171  PHE171     -0.1960
     38  CA       105.9310   57.8420   30.8770 C.3   171  PHE171      0.1771
     39  C        105.6210   57.9600   32.3560 C.2   171  PHE171      0.2620
     40  O        106.5120   58.2630   33.1510 O.2   171  PHE171     -0.2715
     41  CB       106.0900   59.2340   30.2720 C.3   171  PHE171      0.0574
     42  CG       106.7250   59.2270   28.9290 C.ar  171  PHE171     -0.0200
     43  CD1      108.0460   58.8480   28.7790 C.ar  171  PHE171     -0.0042
     44  CD2      106.0020   59.5870   27.8080 C.ar  171  PHE171     -0.0042
     45  CE1      108.6320   58.8310   27.5190 C.ar  171  PHE171     -0.0003
     46  CE2      106.5820   59.5670   26.5450 C.ar  171  PHE171     -0.0003
     47  CZ       107.8870   59.1860   26.3970 C.ar  171  PHE171     -0.0000
     48  N        104.3570   57.7350   32.7160 N.am  172  SER172     -0.1950
     49  CA       103.9160   57.8080   34.0970 C.3   172  SER172      0.1924
     50  C        104.3460   59.1440   34.6530 C.2   172  SER172      0.2314
     51  O        104.8670   59.2210   35.7720 O.2   172  SER172     -0.2863
     52  CB       104.5060   56.6690   34.9200 C.3   172  SER172      0.2116
     53  OG       103.6740   56.4010   36.0280 O.3   172  SER172     -0.2180
     54  N        107.3060   47.1780   33.3930 N.3   320  PHE320     -0.1227
     55  CA       106.1680   47.8740   32.7840 C.3   320  PHE320      0.1736
     56  C        106.5080   48.5180   31.4240 C.2   320  PHE320      0.2595
     57  O        105.6540   48.6370   30.5460 O.2   320  PHE320     -0.2718
     58  CB       105.6260   48.9240   33.7330 C.3   320  PHE320      0.0547
     59  CG       105.0480   48.3700   35.0060 C.ar  320  PHE320     -0.0202
     60  CD1      105.8160   48.3240   36.1640 C.ar  320  PHE320     -0.0042
     61  CD2      103.7180   47.9450   35.0570 C.ar  320  PHE320     -0.0042
     62  CE1      105.2800   47.8500   37.3570 C.ar  320  PHE320     -0.0003
     63  CE2      103.1710   47.4630   36.2500 C.ar  320  PHE320     -0.0003
     64  CZ       103.9560   47.4190   37.4040 C.ar  320  PHE320     -0.0000
     65  N        107.7610   48.9150   31.2580 N.am  321  ARG321     -0.1980
     66  CA       108.2750   49.4340   29.9920 C.3   321  ARG321      0.1597
     67  C        109.7390   49.0500   29.9570 C.2   321  ARG321      0.2287
     68  O        110.2960   48.6640   30.9880 O.2   321  ARG321     -0.2864
     69  CB       108.1250   50.9610   29.9250 C.3   321  ARG321      0.0334
     70  CG       108.8310   51.7190   31.0510 C.3   321  ARG321      0.0492
     71  CD       109.1330   53.1350   30.6520 C.3   321  ARG321      0.2205
     72  NE       109.5280   53.9680   31.7860 N.pl3 321  ARG321     -0.0865
     73  CZ       109.8740   55.2540   31.6950 C.cat 321  ARG321      0.5346
     74  NH1      109.8890   55.8800   30.5140 N.pl3 321  ARG321      0.1354
     75  NH2      110.2240   55.9130   32.7860 N.pl3 321  ARG321      0.1354
     76  N         95.5390   42.8260   45.1970 N.3   510  TYR510     -0.1241
     77  CA        95.7820   43.6710   44.0560 C.3   510  TYR510      0.1605
     78  C         96.0500   42.7580   42.8720 C.2   510  TYR510      0.2264
     79  O         95.2020   42.6220   41.9880 O.2   510  TYR510     -0.2867
     80  CB        96.9200   44.6900   44.2810 C.3   510  TYR510      0.0534
     81  CG        97.0440   45.6050   43.0880 C.ar  510  TYR510     -0.0201
     82  CD1       98.0030   45.3680   42.1130 C.ar  510  TYR510     -0.0009
     83  CD2       96.1500   46.6860   42.9010 C.ar  510  TYR510     -0.0009
     84  CE1       98.1050   46.1920   40.9770 C.ar  510  TYR510      0.0417
     85  CE2       96.2290   47.5150   41.7630 C.ar  510  TYR510      0.0417
     86  CZ        97.2150   47.2550   40.8050 C.ar  510  TYR510      0.1957
     87  OH        97.3330   48.0440   39.6750 O.3   510  TYR510     -0.2866
     88  N        109.1000   40.6670   40.6490 N.3   548  TYR548     -0.1241
     89  CA       110.3550   40.7010   41.4270 C.3   548  TYR548      0.1605
     90  C        110.8720   39.3130   41.8050 C.2   548  TYR548      0.2264
     91  O        111.7140   39.1600   42.7160 O.2   548  TYR548     -0.2867
     92  CB       110.2480   41.6340   42.6460 C.3   548  TYR548      0.0534
     93  CG       109.6440   42.9810   42.3120 C.ar  548  TYR548     -0.0201
     94  CD1      110.3880   43.9500   41.6150 C.ar  548  TYR548     -0.0009
     95  CD2      108.3360   43.2950   42.6880 C.ar  548  TYR548     -0.0009
     96  CE1      109.8460   45.1940   41.3070 C.ar  548  TYR548      0.0417
     97  CE2      107.7790   44.5370   42.3750 C.ar  548  TYR548      0.0417
     98  CZ       108.5410   45.4690   41.6900 C.ar  548  TYR548      0.1957
     99  OH       108.0070   46.6860   41.3990 O.3   548  TYR548     -0.2866
    100  N         90.6900   48.7210   41.9840 N.3   593  SER593     -0.1202
    101  CA        91.3010   48.8220   40.6610 C.3   593  SER593      0.2020
    102  C         91.5990   47.4050   40.1760 C.2   593  SER593      0.2618
    103  O         90.6960   46.5760   40.1430 O.2   593  SER593     -0.2717
    104  CB        92.5710   49.6720   40.7560 C.3   593  SER593      0.2103
    105  OG        93.0350   50.1060   39.4960 O.3   593  SER593     -0.2182
    106  N         92.8400   47.0920   39.8180 N.am  594  TYR594     -0.1975
    107  CA        93.1150   45.7340   39.3410 C.3   594  TYR594      0.1639
    108  C         92.6570   44.7260   40.3890 C.2   594  TYR594      0.2290
    109  O         92.0770   43.6900   40.0540 O.2   594  TYR594     -0.2864
    110  CB        94.5890   45.5180   38.9830 C.3   594  TYR594      0.0560
    111  CG        94.8100   44.2850   38.1250 C.ar  594  TYR594     -0.0198
    112  CD1       94.6550   42.9810   38.6620 C.ar  594  TYR594     -0.0009
    113  CD2       95.1660   44.4050   36.7720 C.ar  594  TYR594     -0.0009
    114  CE1       94.8420   41.8400   37.8730 C.ar  594  TYR594      0.0417
    115  CE2       95.3550   43.2800   35.9770 C.ar  594  TYR594      0.0417
    116  CZ        95.1810   42.0010   36.5280 C.ar  594  TYR594      0.1957
    117  OH        95.3770   40.8900   35.7450 O.3   594  TYR594     -0.2866
    118  N         88.1180   46.8700   37.0600 N.3   619  VAL619     -0.1245
    119  CA        88.0030   46.5460   35.6530 C.3   619  VAL619      0.1561
    120  C         87.0380   45.3750   35.6140 C.2   619  VAL619      0.2260
    121  O         87.0370   44.5400   36.5200 O.2   619  VAL619     -0.2867
    122  CB        89.3860   46.1510   35.0390 C.3   619  VAL619      0.0252
    123  CG1       89.2290   45.2680   33.8010 C.3   619  VAL619      0.0019
    124  CG2       90.1920   47.4110   34.6930 C.3   619  VAL619      0.0019
    125  N         88.2020   43.6290   29.6370 N.3   622  TRP622     -0.1241
    126  CA        89.4740   44.1910   29.1770 C.3   622  TRP622      0.1605
    127  C         89.3960   45.1200   27.9650 C.2   622  TRP622      0.2264
    128  O         90.2770   45.9680   27.7560 O.2   622  TRP622     -0.2867
    129  CB        90.5290   43.0970   29.0110 C.3   622  TRP622      0.0550
    130  CG        91.0570   42.6980   30.3640 C.ar  622  TRP622      0.0003
    131  CD1       90.9510   41.4790   30.9630 C.ar  622  TRP622      0.0946
    132  CD2       91.7200   43.5600   31.3090 C.ar  622  TRP622      0.0152
    133  NE1       91.5340   41.5180   32.2140 N.ar  622  TRP622     -0.2442
    134  CE2       92.0060   42.7820   32.4530 C.ar  622  TRP622      0.0810
    135  CE3       92.1130   44.9060   31.2870 C.ar  622  TRP622      0.0012
    136  CZ2       92.6600   43.3050   33.5730 C.ar  622  TRP622      0.0191
    137  CZ3       92.7710   45.4330   32.4130 C.ar  622  TRP622      0.0001
    138  CH2       93.0300   44.6260   33.5410 C.ar  622  TRP622      0.0015
    139  N         89.2820   48.8380   29.0160 N.3   625  TYR625     -0.1241
    140  CA        90.4720   49.4680   29.5770 C.3   625  TYR625      0.1605
    141  C         91.3890   50.0110   28.4730 C.2   625  TYR625      0.2264
    142  O         91.1620   49.7180   27.2940 O.2   625  TYR625     -0.2867
    143  CB        91.2160   48.5550   30.5810 C.3   625  TYR625      0.0534
    144  CG        92.1150   49.4160   31.4080 C.ar  625  TYR625     -0.0201
    145  CD1       93.5070   49.2230   31.4240 C.ar  625  TYR625     -0.0009
    146  CD2       91.5930   50.5170   32.0800 C.ar  625  TYR625     -0.0009
    147  CE1       94.3330   50.0790   32.1430 C.ar  625  TYR625      0.0417
    148  CE2       92.4020   51.3600   32.7920 C.ar  625  TYR625      0.0417
    149  CZ        93.7690   51.1490   32.8150 C.ar  625  TYR625      0.1957
    150  OH        94.5410   52.0040   33.5380 O.3   625  TYR625     -0.2866
    151  N         98.3120   49.6940   28.4690 N.3   629  TYR629     -0.1241
    152  CA        98.3000   48.7280   29.5500 C.3   629  TYR629      0.1605
    153  C         97.7250   47.4020   29.1250 C.2   629  TYR629      0.2264
    154  O         98.3800   46.4040   29.3110 O.2   629  TYR629     -0.2867
    155  CB        97.5530   49.2510   30.7660 C.3   629  TYR629      0.0534
    156  CG        97.6050   48.3360   31.9690 C.ar  629  TYR629     -0.0201
    157  CD1       96.6970   47.2760   32.1130 C.ar  629  TYR629     -0.0009
    158  CD2       98.5570   48.5200   32.9670 C.ar  629  TYR629     -0.0009
    159  CE1       96.7380   46.4300   33.2240 C.ar  629  TYR629      0.0417
    160  CE2       98.6170   47.6690   34.0830 C.ar  629  TYR629      0.0417
    161  CZ        97.6920   46.6440   34.2090 C.ar  629  TYR629      0.1957
    162  OH        97.7290   45.8290   35.3150 O.3   629  TYR629     -0.2866
    163  N         99.6950   45.3330   26.3140 N.3   632  ARG632     -0.1245
    164  CA       100.9580   44.8220   26.8140 C.3   632  ARG632      0.1563
    165  C        100.8120   43.3710   27.2670 C.2   632  ARG632      0.2260
    166  O        101.6850   42.5650   27.0190 O.2   632  ARG632     -0.2867
    167  CB       101.4350   45.6710   27.9800 C.3   632  ARG632      0.0307
    168  CG       102.8260   45.3440   28.4760 C.3   632  ARG632      0.0489
    169  CD       103.1090   46.1950   29.6680 C.3   632  ARG632      0.2205
    170  NE       103.1390   47.6260   29.3330 N.pl3 632  ARG632     -0.0865
    171  CZ       102.8390   48.5930   30.1960 C.cat 632  ARG632      0.5346
    172  NH1      102.4510   48.2950   31.4420 N.pl3 632  ARG632      0.1354
    173  NH2      102.9140   49.8670   29.8120 N.pl3 632  ARG632      0.1354
    174  N         90.0280   56.8940   34.4840 N.3   673  ASN673     -0.1225
    175  CA        90.9550   55.7890   34.3060 C.3   673  ASN673      0.1785
    176  C         90.2110   54.4920   34.0270 C.2   673  ASN673      0.2597
    177  O         90.1480   54.0400   32.8800 O.2   673  ASN673     -0.2718
    178  CB        91.8350   55.6610   35.5470 C.3   673  ASN673      0.1169
    179  CG        92.9300   54.6560   35.3810 C.2   673  ASN673      0.2627
    180  OD1       93.1350   54.1000   34.2910 O.2   673  ASN673     -0.2716
    181  ND2       93.6680   54.4170   36.4610 N.am  673  ASN673     -0.0877
    182  N         89.6510   53.9070   35.0880 N.am  674  VAL674     -0.1980
    183  CA        88.7390   52.7900   34.9760 C.3   674  VAL674      0.1595
    184  C         87.3430   53.3950   34.9810 C.2   674  VAL674      0.2287
    185  O         86.8120   53.7630   36.0260 O.2   674  VAL674     -0.2864
    186  CB        88.9420   51.7460   36.1370 C.3   674  VAL674      0.0276
    187  CG1       87.9130   50.6160   36.0630 C.3   674  VAL674      0.0022
    188  CG2       90.3420   51.1800   36.0930 C.3   674  VAL674      0.0022
    189  N         89.4730   57.9710   40.1260 N.3   703  HIS703     -0.1241
    190  CA        89.9050   56.6040   40.4250 C.3   703  HIS703      0.1621
    191  C         90.4110   56.4310   41.8680 C.2   703  HIS703      0.2264
    192  O         90.3970   55.3110   42.4210 O.2   703  HIS703     -0.2867
    193  CB        90.9600   56.1440   39.4120 C.3   703  HIS703      0.0745
    194  CG        91.2110   54.6690   39.4270 C.ar  703  HIS703      0.0817
    195  ND1       90.2060   53.7390   39.2610 N.ar  703  HIS703     -0.2268
    196  CD2       92.3560   53.9600   39.5680 C.ar  703  HIS703      0.1154
    197  CE1       90.7170   52.5210   39.3160 C.ar  703  HIS703      0.1986
    198  NE2       92.0200   52.6250   39.4970 N.ar  703  HIS703     -0.2212
@<TRIPOS>BOND
     1   163   164    1
     2    47    46   ar
     3    47    45   ar
     4    46    44   ar
     5    36    34    1
     6   164   165    1
     7   164   167    1
     8    35    34    1
     9   166   165    2
    10   142   141    2
    11    45    43   ar
    12    34    31    1
    13   128   127    2
    14    44    42   ar
    15   127   126    1
    16   167   168    1
    17   151   152    1
    18   141   140    1
    19   168   169    1
    20    43    42   ar
    21    42    41    1
    22   129   126    1
    23   129   130    1
    24   139   140    1
    25    31    30    1
    26    31    32    1
    27   153   154    2
    28   153   152    1
    29   126   125    1
    30   170   169    1
    31   170   171    2
    32   152   155    1
    33   140   143    1
    34    30    23   am
    35    32    33    2
    36    32    37   am
    37   173   171    1
    38    69    66    1
    39    69    70    1
    40    67    66    1
    41    67    68    2
    42    66    65    1
    43    25    26    1
    44    25    22    1
    45    37    38    1
    46   171   172    1
    47    41    38    1
    48   130   131   ar
    49   130   132   ar
    50    26    27    1
    51    74    73    1
    52    57    56    2
    53    23    24    2
    54    23    22    1
    55   143   144    1
    56    71    70    1
    57    71    72    1
    58   155   156    1
    59    38    39    1
    60   131   133   ar
    61    22    21    1
    62    65    56   am
    63    21    14   am
    64   135   132   ar
    65   135   137   ar
    66   132   134   ar
    67   144   145   ar
    68   144   146   ar
    69    56    55    1
    70   145   147   ar
    71    27    29   ar
    72    27    28   ar
    73    73    72    2
    74    73    75    1
    75    12    13    1
    76   156   157   ar
    77   156   158   ar
    78   146   148   ar
    79   157   159   ar
    80   147   149   ar
    81   133   134   ar
    82    39    48   am
    83    39    40    2
    84   137   138   ar
    85   134   136   ar
    86    16    13    1
    87    16    17    1
    88    14    13    1
    89    14    15    2
    90    48    49    1
    91    55    54    1
    92    55    58    1
    93   148   149   ar
    94   149   150    1
    95   177   176    2
    96   158   160   ar
    97   159   161   ar
    98    17    18    1
    99   138   136   ar
   100    58    59    1
   101   123   122    1
   102   176   175    1
   103   176   182   am
   104   160   161   ar
   105    49    50    1
   106    49    52    1
   107   161   162    1
   108   180   179    2
   109   175   174    1
   110   175   178    1
   111    50    51    2
   112   124   122    1
   113    18    20   ar
   114    18    19   ar
   115    52    53    1
   116   183   184    1
   117   183   182    1
   118   183   186    1
   119   184   185    2
   120    59    61   ar
   121    59    60   ar
   122   122   119    1
   123    61    63   ar
   124   179   178    1
   125   179   181   am
   126   120   119    1
   127   120   121    2
   128   119   118    1
   129   117   116    1
   130   115   116   ar
   131   115   113   ar
   132   187   186    1
   133   188   186    1
   134    60    62   ar
   135    63    64   ar
   136   116   114   ar
   137   113   111   ar
   138     1     2    1
   139    62    64   ar
   140     5     2    1
   141     5     6    1
   142   114   112   ar
   143     2     3    1
   144   111   112   ar
   145   111   110    1
   146     3     4    2
   147     8     7    1
   148     8     9    2
   149    10     9    1
   150     7     6    1
   151     9    11    1
   152   110   107    1
   153   195   197   ar
   154   195   194   ar
   155   197   198   ar
   156   107   106    1
   157   107   108    1
   158   193   194    1
   159   193   190    1
   160   194   196   ar
   161   105   104    1
   162   198   196   ar
   163    87    86    1
   164   106   102   am
   165   109   108    2
   166   189   190    1
   167   103   102    2
   168   102   101    1
   169   190   191    1
   170    88    89    1
   171   101   104    1
   172   101   100    1
   173    86    84   ar
   174    86    85   ar
   175    84    82   ar
   176    96    94   ar
   177    96    98   ar
   178    99    98    1
   179    89    90    1
   180    89    92    1
   181    94    93   ar
   182    98    97   ar
   183    85    83   ar
   184    90    91    2
   185   191   192    2
   186    79    78    2
   187    82    81   ar
   188    93    92    1
   189    93    95   ar
   190    97    95   ar
   191    78    77    1
   192    83    81   ar
   193    81    80    1
   194    77    80    1
   195    77    76    1
