@<TRIPOS>MOLECULE
tmp/3vjkB03.pdb
 101 95 0 0 0
SMALL
GASTEIGER

@<TRIPOS>ATOM
      1  N        121.1030   72.9780   34.4520 N.3   123  VAL123     -0.1245
      2  CA       122.1760   73.8890   34.8650 C.3   123  VAL123      0.1561
      3  C        121.6660   75.3130   34.6780 C.2   123  VAL123      0.2260
      4  O        120.9220   75.5700   33.7410 O.2   123  VAL123     -0.2867
      5  CB       123.4670   73.6250   34.0400 C.3   123  VAL123      0.0252
      6  CG1      124.4470   74.8170   34.0850 C.3   123  VAL123      0.0019
      7  CG2      124.1400   72.3170   34.5020 C.3   123  VAL123      0.0019
      8  N        117.5390   78.6960   32.6610 N.3   126  LYS126     -0.1245
      9  CA       116.5730   78.7730   31.5660 C.3   126  LYS126      0.1561
     10  C        115.2500   78.1150   31.9850 C.2   126  LYS126      0.2260
     11  O        115.2080   77.3150   32.9330 O.2   126  LYS126     -0.2867
     12  CB       117.1080   78.1120   30.2980 C.3   126  LYS126      0.0271
     13  CG       118.4580   78.6540   29.8460 C.3   126  LYS126      0.0035
     14  CD       119.1280   77.6660   28.8960 C.3   126  LYS126      0.0206
     15  CE       120.0160   78.3610   27.8930 C.3   126  LYS126      0.1093
     16  NZ       120.4860   77.4030   26.8490 N.3   126  LYS126     -0.1314
     17  N        123.6000   70.1730   29.9640 N.3   182  ASN182     -0.1225
     18  CA       124.0230   71.5530   30.2810 C.3   182  ASN182      0.1785
     19  C        123.0480   72.6370   29.7770 C.2   182  ASN182      0.2598
     20  O        123.3320   73.8390   29.8360 O.2   182  ASN182     -0.2718
     21  CB       125.4730   71.8120   29.8190 C.3   182  ASN182      0.1169
     22  CG       125.5820   72.1490   28.3260 C.2   182  ASN182      0.2627
     23  OD1      124.5850   72.2020   27.5960 O.2   182  ASN182     -0.2716
     24  ND2      126.8090   72.3760   27.8720 N.am  182  ASN182     -0.0877
     25  N        121.8970   72.1920   29.2800 N.am  183  GLY183     -0.1942
     26  CA       120.8270   73.0960   28.8590 C.3   183  GLY183      0.2014
     27  C        120.9610   73.7690   27.4900 C.2   183  GLY183      0.2640
     28  O        120.2340   74.7280   27.2180 O.2   183  GLY183     -0.2714
     29  N        121.8630   73.2780   26.6310 N.am  184  THR184     -0.1936
     30  CA       121.9670   73.7740   25.2630 C.3   184  THR184      0.2028
     31  C        120.7250   73.3360   24.5130 C.2   184  THR184      0.2642
     32  O        119.9620   74.1600   23.9870 O.2   184  THR184     -0.2714
     33  CB       123.1990   73.1990   24.4930 C.3   184  THR184      0.1808
     34  OG1      124.3770   73.3360   25.2810 O.3   184  THR184     -0.2208
     35  CG2      123.4110   73.9200   23.1710 C.3   184  THR184      0.0379
     36  N        120.5280   72.0290   24.4890 N.am  185  PHE185     -0.1973
     37  CA       119.4530   71.4330   23.7500 C.3   185  PHE185      0.1639
     38  C        118.2240   71.1900   24.6060 C.2   185  PHE185      0.2290
     39  O        118.3110   70.9500   25.8210 O.2   185  PHE185     -0.2864
     40  CB       119.9260   70.1350   23.1030 C.3   185  PHE185      0.0560
     41  CG       120.8920   70.3460   21.9810 C.ar  185  PHE185     -0.0200
     42  CD1      122.2130   69.9190   22.0960 C.ar  185  PHE185     -0.0042
     43  CD2      120.4900   70.9930   20.8180 C.ar  185  PHE185     -0.0042
     44  CE1      123.1220   70.1140   21.0610 C.ar  185  PHE185     -0.0003
     45  CE2      121.3900   71.2000   19.7690 C.ar  185  PHE185     -0.0003
     46  CZ       122.7110   70.7620   19.8940 C.ar  185  PHE185     -0.0000
     47  N        118.0120   73.5570   19.3860 N.3   235  ASN235     -0.1240
     48  CA       119.0850   74.2760   20.0350 C.3   235  ASN235      0.1653
     49  C        118.5690   75.5830   20.6370 C.2   235  ASN235      0.2266
     50  O        118.1390   76.4990   19.9170 O.2   235  ASN235     -0.2867
     51  CB       120.1970   74.5590   19.0280 C.3   235  ASN235      0.1155
     52  CG       121.4660   75.0460   19.6890 C.2   235  ASN235      0.2627
     53  OD1      121.4270   75.8570   20.6210 O.2   235  ASN235     -0.2716
     54  ND2      122.6020   74.5500   19.2160 N.am  235  ASN235     -0.0877
     55  N        120.4030   77.6050   22.4960 N.3   237  ASP237     -0.1239
     56  CA       121.4870   78.5810   22.4610 C.3   237  ASP237      0.1674
     57  C        121.4230   79.4330   21.1890 C.2   237  ASP237      0.2266
     58  O        122.0490   80.4840   21.1150 O.2   237  ASP237     -0.2867
     59  CB       122.8640   77.9030   22.5820 C.3   237  ASP237      0.1410
     60  CG       123.2910   77.6650   24.0280 C.2   237  ASP237      0.3668
     61  OD1      124.2820   76.9340   24.2400 O.co2 237  ASP237     -0.2456
     62  OD2      122.6500   78.1950   24.9540 O.co2 237  ASP237     -0.2456
     63  N        126.4590   65.9410   26.1630 N.3   271  GLN271     -0.1231
     64  CA       125.9740   67.2480   25.7520 C.3   271  GLN271      0.1698
     65  C        125.4540   67.1810   24.3260 C.2   271  GLN271      0.2592
     66  O        124.6480   68.0060   23.9280 O.2   271  GLN271     -0.2718
     67  CB       127.0630   68.3260   25.8630 C.3   271  GLN271      0.0381
     68  CG       127.6260   68.5830   27.2420 C.3   271  GLN271      0.0905
     69  CD       126.5780   68.8570   28.3400 C.2   271  GLN271      0.2608
     70  OE1      126.9010   68.7710   29.5340 O.2   271  GLN271     -0.2717
     71  NE2      125.3360   69.1890   27.9500 N.am  271  GLN271     -0.0878
     72  N        125.9070   66.1810   23.5780 N.am  272  GLU272     -0.1979
     73  CA       125.6320   66.0570   22.1420 C.3   272  GLU272      0.1602
     74  C        125.2320   64.6360   21.7470 C.2   272  GLU272      0.2287
     75  O        125.1950   64.3100   20.5490 O.2   272  GLU272     -0.2864
     76  CB       126.8690   66.4400   21.3210 C.3   272  GLU272      0.0415
     77  CG       127.3020   67.8870   21.4490 C.3   272  GLU272      0.1163
     78  CD       128.6060   68.1790   20.7200 C.2   272  GLU272      0.3649
     79  OE1      129.1410   67.2670   20.0550 O.co2 272  GLU272     -0.2457
     80  OE2      129.1020   69.3250   20.8280 O.co2 272  GLU272     -0.2457
     81  N        124.8500   64.6310   17.6570 N.3   293  TYR293     -0.1241
     82  CA       124.7100   65.9080   16.9690 C.3   293  TYR293      0.1605
     83  C        125.8890   66.1770   16.0380 C.2   293  TYR293      0.2264
     84  O        127.0440   66.1350   16.4590 O.2   293  TYR293     -0.2867
     85  CB       124.5540   67.0430   17.9760 C.3   293  TYR293      0.0534
     86  CG       124.4670   68.4070   17.3430 C.ar  293  TYR293     -0.0201
     87  CD1      123.3650   68.7630   16.5620 C.ar  293  TYR293     -0.0009
     88  CD2      125.4910   69.3420   17.5160 C.ar  293  TYR293     -0.0009
     89  CE1      123.2800   70.0060   15.9770 C.ar  293  TYR293      0.0417
     90  CE2      125.4170   70.6100   16.9330 C.ar  293  TYR293      0.0417
     91  CZ       124.3070   70.9300   16.1710 C.ar  293  TYR293      0.1957
     92  OH       124.2170   72.1670   15.5930 O.3   293  TYR293     -0.2866
     93  N        127.8530   68.6530   14.0820 N.3   295  GLU295     -0.1245
     94  CA       128.0750   70.0910   14.1000 C.3   295  GLU295      0.1567
     95  C        128.0810   70.7120   12.6890 C.2   295  GLU295      0.2260
     96  O        127.6840   71.8710   12.5270 O.2   295  GLU295     -0.2867
     97  CB       129.3520   70.4250   14.8690 C.3   295  GLU295      0.0388
     98  CG       129.3690   71.8220   15.4570 C.3   295  GLU295      0.1160
     99  CD       130.7130   72.1810   16.0830 C.2   295  GLU295      0.3649
    100  OE1      131.1610   71.4760   17.0210 O.co2 295  GLU295     -0.2457
    101  OE2      131.3190   73.1850   15.6460 O.co2 295  GLU295     -0.2457
@<TRIPOS>BOND
     1    96    95    2
     2    95    94    1
     3    93    94    1
     4    94    97    1
     5    97    98    1
     6    98    99    1
     7    92    91    1
     8   101    99   ar
     9    89    91   ar
    10    89    87   ar
    11    83    84    2
    12    83    82    1
    13    99   100   ar
    14    91    90   ar
    15    87    86   ar
    16    90    88   ar
    17    82    81    1
    18    82    85    1
    19    86    88   ar
    20    86    85    1
    21    51    52    1
    22    51    48    1
    23    54    52   am
    24    47    48    1
    25    52    53    2
    26    45    46   ar
    27    45    43   ar
    28    46    44   ar
    29    50    49    2
    30    48    49    1
    31    79    78   ar
    32    75    74    2
    33    78    80   ar
    34    78    77    1
    35    43    41   ar
    36    44    42   ar
    37    58    57    2
    38    57    56    1
    39    76    77    1
    40    76    73    1
    41    74    73    1
    42    41    42   ar
    43    41    40    1
    44    73    72    1
    45    56    55    1
    46    56    59    1
    47    59    60    1
    48    40    37    1
    49    35    33    1
    50    72    65   am
    51    37    36    1
    52    37    38    1
    53    66    65    2
    54    32    31    2
    55    60    61   ar
    56    60    62   ar
    57    65    64    1
    58    36    31   am
    59    33    30    1
    60    33    34    1
    61    31    30    1
    62    38    39    2
    63    30    29    1
    64    64    67    1
    65    64    63    1
    66    67    68    1
    67    29    27   am
    68    16    15    1
    69    28    27    2
    70    68    69    1
    71    27    26    1
    72    23    22    2
    73    24    22   am
    74    15    14    1
    75    71    69   am
    76    22    21    1
    77    69    70    2
    78    26    25    1
    79    14    13    1
    80    25    19   am
    81    19    20    2
    82    19    18    1
    83    21    18    1
    84    13    12    1
    85    17    18    1
    86    12     9    1
    87     9    10    1
    88     9     8    1
    89    10    11    2
    90     4     3    2
    91     5     6    1
    92     5     7    1
    93     5     2    1
    94     1     2    1
    95     3     2    1
