@<TRIPOS>MOLECULE
tmp/3vjlA00.pdb
 191 186 0 0 0
SMALL
GASTEIGER

@<TRIPOS>ATOM
      1  N         58.0070   58.3740   27.1140 N.3    88  ARG88      -0.1245
      2  CA        56.8020   57.7990   27.7100 C.3    88  ARG88       0.1563
      3  C         55.7730   57.3600   26.6630 C.2    88  ARG88       0.2260
      4  O         55.1820   56.2730   26.7930 O.2    88  ARG88      -0.2867
      5  CB        56.1740   58.7250   28.7420 C.3    88  ARG88       0.0307
      6  CG        55.1540   58.0110   29.6290 C.3    88  ARG88       0.0489
      7  CD        54.3570   58.9980   30.4920 C.3    88  ARG88       0.2205
      8  NE        55.1800   59.7390   31.4500 N.pl3  88  ARG88      -0.0865
      9  CZ        55.3600   59.3970   32.7260 C.cat  88  ARG88       0.5346
     10  NH1       56.1020   60.1590   33.5190 N.pl3  88  ARG88       0.1354
     11  NH2       54.7920   58.3020   33.2200 N.pl3  88  ARG88       0.1354
     12  N         55.8990   64.8770   27.0780 N.3   168  GLU168     -0.1231
     13  CA        55.7600   64.5050   28.4790 C.3   168  GLU168      0.1699
     14  C         54.7380   65.3400   29.2380 C.2   168  GLU168      0.2592
     15  O         53.9720   64.7880   30.0170 O.2   168  GLU168     -0.2718
     16  CB        57.1160   64.5900   29.1850 C.3   168  GLU168      0.0402
     17  CG        57.0810   64.3710   30.6960 C.3   168  GLU168      0.1161
     18  CD        56.7630   62.9300   31.0990 C.2   168  GLU168      0.3649
     19  OE1       56.7600   62.6550   32.3100 O.co2 168  GLU168     -0.2457
     20  OE2       56.5200   62.0650   30.2290 O.co2 168  GLU168     -0.2457
     21  N         54.7420   66.6600   29.0210 N.am  169  GLU169     -0.1979
     22  CA        54.0320   67.5870   29.8900 C.3   169  GLU169      0.1602
     23  C         52.8170   68.2990   29.2860 C.2   169  GLU169      0.2287
     24  O         51.9820   68.8120   30.0210 O.2   169  GLU169     -0.2864
     25  CB        54.9900   68.6670   30.4140 C.3   169  GLU169      0.0415
     26  CG        56.2480   68.1730   31.1320 C.3   169  GLU169      0.1163
     27  CD        55.9800   67.4390   32.4370 C.2   169  GLU169      0.3649
     28  OE1       56.9390   66.8570   32.9820 O.co2 169  GLU169     -0.2457
     29  OE2       54.8250   67.4320   32.9200 O.co2 169  GLU169     -0.2457
     30  N         50.7610   64.7020   26.4550 N.3   172  SER172     -0.1217
     31  CA        50.7740   63.2810   26.8490 C.3   172  SER172      0.1889
     32  C         50.6590   62.3760   25.6170 C.2   172  SER172      0.2288
     33  O         49.9980   61.3420   25.6470 O.2   172  SER172     -0.2866
     34  CB        49.6650   62.9580   27.8510 C.3   172  SER172      0.2089
     35  OG        49.9780   63.4750   29.1330 O.3   172  SER172     -0.2183
     36  N         43.7710   71.0640   35.7810 N.3   319  ARG319     -0.1231
     37  CA        44.4360   70.1620   36.7060 C.3   319  ARG319      0.1694
     38  C         45.9090   70.0660   36.3370 C.2   319  ARG319      0.2592
     39  O         46.7660   70.2570   37.1990 O.2   319  ARG319     -0.2718
     40  CB        43.7720   68.7900   36.7360 C.3   319  ARG319      0.0321
     41  CG        42.3670   68.8430   37.2780 C.3   319  ARG319      0.0489
     42  CD        41.7830   67.4700   37.5260 C.3   319  ARG319      0.2205
     43  NE        40.5690   67.5890   38.3320 N.pl3 319  ARG319     -0.0865
     44  CZ        39.3300   67.3980   37.8770 C.cat 319  ARG319      0.5346
     45  NH1       39.1140   67.0420   36.6130 N.pl3 319  ARG319      0.1354
     46  NH2       38.3020   67.5410   38.7030 N.pl3 319  ARG319      0.1354
     47  N         46.1880   69.8100   35.0550 N.am  320  PHE320     -0.1962
     48  CA        47.5730   69.7860   34.5320 C.3   320  PHE320      0.1771
     49  C         47.7780   70.6570   33.2900 C.2   320  PHE320      0.2619
     50  O         48.9120   70.8130   32.8120 O.2   320  PHE320     -0.2715
     51  CB        48.0180   68.3530   34.2340 C.3   320  PHE320      0.0574
     52  CG        48.0870   67.4800   35.4570 C.ar  320  PHE320     -0.0200
     53  CD1       49.2220   67.4810   36.2660 C.ar  320  PHE320     -0.0042
     54  CD2       47.0120   66.6640   35.8040 C.ar  320  PHE320     -0.0042
     55  CE1       49.2910   66.6780   37.4120 C.ar  320  PHE320     -0.0003
     56  CE2       47.0660   65.8500   36.9260 C.ar  320  PHE320     -0.0003
     57  CZ        48.2180   65.8550   37.7410 C.ar  320  PHE320     -0.0000
     58  N         46.6790   71.2160   32.7830 N.am  321  ARG321     -0.1977
     59  CA        46.6410   71.9630   31.5290 C.3   321  ARG321      0.1597
     60  C         45.1880   72.3710   31.3400 C.2   321  ARG321      0.2287
     61  O         44.2930   71.6910   31.8550 O.2   321  ARG321     -0.2864
     62  CB        47.0940   71.0730   30.3540 C.3   321  ARG321      0.0334
     63  CG        46.0800   69.9930   29.9330 C.3   321  ARG321      0.0492
     64  CD        46.5810   69.1010   28.8080 C.3   321  ARG321      0.2205
     65  NE        47.4610   68.0690   29.3560 N.pl3 321  ARG321     -0.0865
     66  CZ        47.2780   66.7530   29.2370 C.cat 321  ARG321      0.5346
     67  NH1       46.2530   66.2560   28.5370 N.pl3 321  ARG321      0.1354
     68  NH2       48.1490   65.9260   29.8020 N.pl3 321  ARG321      0.1354
     69  N         53.1600   59.6410   47.2100 N.3   510  TYR510     -0.1241
     70  CA        53.4340   60.3310   45.9610 C.3   510  TYR510      0.1605
     71  C         53.3210   61.8180   46.2430 C.2   510  TYR510      0.2264
     72  O         54.3440   62.5010   46.3140 O.2   510  TYR510     -0.2867
     73  CB        52.5420   59.8620   44.8010 C.3   510  TYR510      0.0534
     74  CG        52.9180   60.5250   43.4910 C.ar  510  TYR510     -0.0201
     75  CD1       52.2140   61.6300   43.0330 C.ar  510  TYR510     -0.0009
     76  CD2       54.0060   60.0740   42.7320 C.ar  510  TYR510     -0.0009
     77  CE1       52.5570   62.2560   41.8420 C.ar  510  TYR510      0.0417
     78  CE2       54.3650   60.6990   41.5450 C.ar  510  TYR510      0.0417
     79  CZ        53.6230   61.7930   41.0980 C.ar  510  TYR510      0.1957
     80  OH        53.9340   62.4520   39.9180 O.3   510  TYR510     -0.2866
     81  N         41.0560   66.7020   43.0300 N.3   548  TYR548     -0.1241
     82  CA        39.6690   66.2030   42.9820 C.3   548  TYR548      0.1605
     83  C         38.8270   66.6050   44.2030 C.2   548  TYR548      0.2264
     84  O         37.7730   66.0090   44.4630 O.2   548  TYR548     -0.2867
     85  CB        39.6430   64.6810   42.7190 C.3   548  TYR548      0.0534
     86  CG        40.5770   64.2640   41.5910 C.ar  548  TYR548     -0.0201
     87  CD1       40.3530   64.6840   40.2750 C.ar  548  TYR548     -0.0009
     88  CD2       41.6990   63.4790   41.8440 C.ar  548  TYR548     -0.0009
     89  CE1       41.2130   64.3070   39.2330 C.ar  548  TYR548      0.0417
     90  CE2       42.5720   63.1060   40.8230 C.ar  548  TYR548      0.0417
     91  CZ        42.3260   63.5220   39.5220 C.ar  548  TYR548      0.1957
     92  OH        43.1870   63.1530   38.5190 O.3   548  TYR548     -0.2866
     93  N         59.5290   58.8970   42.1670 N.3   593  SER593     -0.1202
     94  CA        59.3030   60.0950   41.3540 C.3   593  SER593      0.2020
     95  C         59.0350   61.2870   42.2720 C.2   593  SER593      0.2618
     96  O         59.8840   61.6190   43.0980 O.2   593  SER593     -0.2717
     97  CB        58.1450   59.8420   40.3710 C.3   593  SER593      0.2103
     98  OG        58.1390   60.8000   39.3460 O.3   593  SER593     -0.2182
     99  N         57.8730   61.9270   42.1400 N.am  594  TYR594     -0.1975
    100  CA        57.4860   62.9660   43.0960 C.3   594  TYR594      0.1639
    101  C         57.4840   62.4050   44.5130 C.2   594  TYR594      0.2290
    102  O         57.8150   63.1210   45.4710 O.2   594  TYR594     -0.2864
    103  CB        56.1190   63.5990   42.7680 C.3   594  TYR594      0.0560
    104  CG        55.9530   64.9990   43.3700 C.ar  594  TYR594     -0.0198
    105  CD1       55.6810   65.1750   44.7350 C.ar  594  TYR594     -0.0009
    106  CD2       56.0860   66.1360   42.5810 C.ar  594  TYR594     -0.0009
    107  CE1       55.5460   66.4410   45.2910 C.ar  594  TYR594      0.0417
    108  CE2       55.9360   67.4240   43.1280 C.ar  594  TYR594      0.0417
    109  CZ        55.6730   67.5690   44.4810 C.ar  594  TYR594      0.1957
    110  OH        55.5490   68.8380   45.0300 O.3   594  TYR594     -0.2866
    111  N         63.0470   63.6180   42.3890 N.3   619  VAL619     -0.1245
    112  CA        63.4970   64.9830   42.1560 C.3   619  VAL619      0.1561
    113  C         64.2930   65.3910   43.4050 C.2   619  VAL619      0.2260
    114  O         63.9780   64.9540   44.5100 O.2   619  VAL619     -0.2867
    115  CB        62.3200   65.9600   41.8400 C.3   619  VAL619      0.0252
    116  CG1       62.7540   67.4420   41.9240 C.3   619  VAL619      0.0019
    117  CG2       61.7730   65.6730   40.4490 C.3   619  VAL619      0.0019
    118  N         64.3430   71.6470   42.1730 N.3   622  TRP622     -0.1241
    119  CA        63.3910   72.0210   41.1250 C.3   622  TRP622      0.1605
    120  C         64.0270   72.5960   39.8610 C.2   622  TRP622      0.2264
    121  O         63.4830   72.4340   38.7730 O.2   622  TRP622     -0.2867
    122  CB        62.2100   72.8460   41.6750 C.3   622  TRP622      0.0550
    123  CG        61.3340   71.9280   42.4720 C.ar  622  TRP622      0.0003
    124  CD1       61.1660   71.9300   43.8240 C.ar  622  TRP622      0.0946
    125  CD2       60.5860   70.8020   41.9750 C.ar  622  TRP622      0.0152
    126  NE1       60.3380   70.9060   44.1980 N.ar  622  TRP622     -0.2442
    127  CE2       59.9690   70.1920   43.0880 C.ar  622  TRP622      0.0810
    128  CE3       60.3620   70.2630   40.6930 C.ar  622  TRP622      0.0012
    129  CZ2       59.1400   69.0600   42.9700 C.ar  622  TRP622      0.0191
    130  CZ3       59.5390   69.1380   40.5680 C.ar  622  TRP622      0.0001
    131  CH2       58.9400   68.5470   41.7090 C.ar  622  TRP622      0.0015
    132  N         64.4360   69.9710   37.1490 N.3   625  TYR625     -0.1241
    133  CA        63.2800   69.3540   36.5050 C.3   625  TYR625      0.1605
    134  C         62.8130   70.1760   35.2780 C.2   625  TYR625      0.2264
    135  O         63.3020   71.2880   35.0540 O.2   625  TYR625     -0.2867
    136  CB        62.1600   68.9460   37.5080 C.3   625  TYR625      0.0534
    137  CG        61.2600   67.9430   36.8540 C.ar  625  TYR625     -0.0201
    138  CD1       59.9350   68.2580   36.5310 C.ar  625  TYR625     -0.0009
    139  CD2       61.7740   66.7120   36.4280 C.ar  625  TYR625     -0.0009
    140  CE1       59.1320   67.3460   35.8320 C.ar  625  TYR625      0.0417
    141  CE2       60.9930   65.8080   35.7410 C.ar  625  TYR625      0.0417
    142  CZ        59.6710   66.1320   35.4440 C.ar  625  TYR625      0.1957
    143  OH        58.9140   65.2230   34.7480 O.3   625  TYR625     -0.2866
    144  N         56.3420   71.5880   33.6310 N.3   629  TYR629     -0.1241
    145  CA        55.8140   71.0630   34.8850 C.3   629  TYR629      0.1605
    146  C         56.2220   71.9590   36.0560 C.2   629  TYR629      0.2264
    147  O         55.3630   72.4580   36.7940 O.2   629  TYR629     -0.2867
    148  CB        56.2800   69.6090   35.1160 C.3   629  TYR629      0.0534
    149  CG        55.7690   68.9670   36.3980 C.ar  629  TYR629     -0.0201
    150  CD1       54.6000   68.2030   36.4030 C.ar  629  TYR629     -0.0009
    151  CD2       56.4580   69.1250   37.6010 C.ar  629  TYR629     -0.0009
    152  CE1       54.1240   67.6090   37.5790 C.ar  629  TYR629      0.0417
    153  CE2       55.9990   68.5410   38.7800 C.ar  629  TYR629      0.0417
    154  CZ        54.8330   67.7820   38.7620 C.ar  629  TYR629      0.1957
    155  OH        54.3900   67.1940   39.9300 O.3   629  TYR629     -0.2866
    156  N         54.8340   75.5060   36.2440 N.3   632  ARG632     -0.1245
    157  CA        53.4040   75.5150   36.4420 C.3   632  ARG632      0.1563
    158  C         53.1020   75.8130   37.9110 C.2   632  ARG632      0.2260
    159  O         52.1840   76.5670   38.2170 O.2   632  ARG632     -0.2867
    160  CB        52.8060   74.1590   36.0510 C.3   632  ARG632      0.0307
    161  CG        51.2850   74.1090   36.0770 C.3   632  ARG632      0.0489
    162  CD        50.8060   72.7310   35.7170 C.3   632  ARG632      0.2205
    163  NE        51.2150   72.3870   34.3660 N.pl3 632  ARG632     -0.0865
    164  CZ        51.6120   71.1810   33.9800 C.cat 632  ARG632      0.5346
    165  NH1       51.6650   70.1790   34.8590 N.pl3 632  ARG632      0.1354
    166  NH2       51.9490   70.9820   32.7100 N.pl3 632  ARG632      0.1354
    167  N         63.8060   61.5800   32.1340 N.3   673  ASN673     -0.1225
    168  CA        62.7640   62.4210   32.7070 C.3   673  ASN673      0.1785
    169  C         63.2750   63.1170   33.9850 C.2   673  ASN673      0.2597
    170  O         63.4710   64.3430   34.0040 O.2   673  ASN673     -0.2718
    171  CB        61.5370   61.5380   32.9670 C.3   673  ASN673      0.1169
    172  CG        60.3640   62.2970   33.5080 C.2   673  ASN673      0.2627
    173  OD1       60.4340   63.5100   33.7610 O.2   673  ASN673     -0.2716
    174  ND2       59.2530   61.5780   33.7080 N.am  673  ASN673     -0.0877
    175  N         63.4710   62.3320   35.0430 N.am  674  VAL674     -0.1980
    176  CA        64.1660   62.7840   36.2400 C.3   674  VAL674      0.1595
    177  C         65.6060   62.3070   36.1180 C.2   674  VAL674      0.2287
    178  O         65.9200   61.1250   36.3180 O.2   674  VAL674     -0.2864
    179  CB        63.5230   62.2630   37.5410 C.3   674  VAL674      0.0276
    180  CG1       64.3460   62.7100   38.7630 C.3   674  VAL674      0.0022
    181  CG2       62.1070   62.7670   37.6700 C.3   674  VAL674      0.0022
    182  N         62.8870   56.1630   33.8270 N.3   703  HIS703     -0.1241
    183  CA        62.0850   56.5550   34.9700 C.3   703  HIS703      0.1621
    184  C         61.1950   55.4410   35.5370 C.2   703  HIS703      0.2264
    185  O         60.9620   55.3990   36.7460 O.2   703  HIS703     -0.2867
    186  CB        61.2720   57.8120   34.6730 C.3   703  HIS703      0.0745
    187  CG        60.8320   58.5250   35.9050 C.ar  703  HIS703      0.0817
    188  ND1       61.7240   58.9600   36.8600 N.ar  703  HIS703     -0.2268
    189  CD2       59.5990   58.8490   36.3620 C.ar  703  HIS703      0.1154
    190  CE1       61.0600   59.5420   37.8460 C.ar  703  HIS703      0.1986
    191  NE2       59.7680   59.4880   37.5670 N.ar  703  HIS703     -0.2212
@<TRIPOS>BOND
     1    32    33    2
     2    32    31    1
     3    30    31    1
     4     3     4    2
     5     3     2    1
     6    31    34    1
     7    12    13    1
     8     1     2    1
     9     2     5    1
    10    34    35    1
    11    13    16    1
    12    13    14    1
    13    67    66    1
    14     5     6    1
    15    64    65    1
    16    64    63    1
    17    21    14   am
    18    21    22    1
    19    16    17    1
    20    66    65    2
    21    66    68    1
    22    14    15    2
    23    23    22    1
    24    23    24    2
    25     6     7    1
    26    22    25    1
    27    63    62    1
    28    20    18   ar
    29    62    59    1
    30    25    26    1
    31     7     8    1
    32    17    18    1
    33    18    19   ar
    34    26    27    1
    35    60    59    1
    36    60    61    2
    37     8     9    2
    38    59    58    1
    39   167   168    1
    40    27    29   ar
    41    27    28   ar
    42   168   171    1
    43   168   169    1
    44   166   164    1
    45     9    11    1
    46     9    10    1
    47    58    49   am
    48    50    49    2
    49   171   172    1
    50    49    48    1
    51   172   174   am
    52   172   173    2
    53   144   145    1
    54   182   183    1
    55   164   163    2
    56   164   165    1
    57   169   170    2
    58   169   175   am
    59    51    48    1
    60    51    52    1
    61   163   162    1
    62    48    47    1
    63   186   183    1
    64   186   187    1
    65   143   142    1
    66   145   148    1
    67   145   146    1
    68   183   184    1
    69   175   176    1
    70   135   134    2
    71    47    38   am
    72   148   149    1
    73   134   133    1
    74   142   141   ar
    75   142   140   ar
    76    52    54   ar
    77    52    53   ar
    78   184   185    2
    79   162   161    1
    80   141   139   ar
    81    36    37    1
    82    54    56   ar
    83   140   138   ar
    84   187   189   ar
    85   187   188   ar
    86   160   161    1
    87   160   157    1
    88   146   147    2
    89   177   176    1
    90   177   178    2
    91   176   179    1
    92   156   157    1
    93    53    55   ar
    94    38    37    1
    95    38    39    2
    96   189   191   ar
    97   149   150   ar
    98   149   151   ar
    99   150   152   ar
   100   139   137   ar
   101   157   158    1
   102   133   132    1
   103   133   136    1
   104   138   137   ar
   105    45    44    1
   106    37    40    1
   107    40    41    1
   108   137   136    1
   109   188   190   ar
   110    56    57   ar
   111    41    42    1
   112    55    57   ar
   113    42    43    1
   114   179   181    1
   115   179   180    1
   116   191   190   ar
   117   152   154   ar
   118   151   153   ar
   119    44    43    2
   120    44    46    1
   121   158   159    2
   122    92    91    1
   123   154   153   ar
   124   154   155    1
   125   121   120    2
   126    89    91   ar
   127    89    87   ar
   128    98    97    1
   129    91    90   ar
   130   120   119    1
   131    80    79    1
   132    87    86   ar
   133    97    94    1
   134   117   115    1
   135   130   128   ar
   136   130   131   ar
   137   128   125   ar
   138    90    88   ar
   139    79    78   ar
   140    79    77   ar
   141   119   122    1
   142   119   118    1
   143    94    93    1
   144    94    95    1
   145    78    76   ar
   146    86    88   ar
   147    86    85    1
   148   122   123    1
   149   131   129   ar
   150   115   116    1
   151   115   112    1
   152    77    75   ar
   153   125   123   ar
   154   125   127   ar
   155    99    95   am
   156    99   100    1
   157   112   111    1
   158   112   113    1
   159    95    96    2
   160   123   124   ar
   161   106   108   ar
   162   106   104   ar
   163    85    82    1
   164    76    74   ar
   165   103   100    1
   166   103   104    1
   167   129   127   ar
   168    82    81    1
   169    82    83    1
   170    75    74   ar
   171   127   126   ar
   172   100   101    1
   173   108   109   ar
   174   104   105   ar
   175   113   114    2
   176    74    73    1
   177   124   126   ar
   178    83    84    2
   179   109   110    1
   180   109   107   ar
   181   101   102    2
   182   105   107   ar
   183    73    70    1
   184    70    71    1
   185    70    69    1
   186    71    72    2
