@<TRIPOS>MOLECULE
tmp/3vjmA00.pdb
 180 175 0 0 0
SMALL
GASTEIGER

@<TRIPOS>ATOM
      1  N         57.9450   58.3380   26.9700 N.3    88  ARG88      -0.1245
      2  CA        56.7570   57.7750   27.6160 C.3    88  ARG88       0.1563
      3  C         55.6680   57.3390   26.6390 C.2    88  ARG88       0.2260
      4  O         55.0250   56.2990   26.8490 O.2    88  ARG88      -0.2867
      5  CB        56.1730   58.7130   28.6720 C.3    88  ARG88       0.0307
      6  CG        55.1150   58.0280   29.5440 C.3    88  ARG88       0.0489
      7  CD        54.3390   59.0390   30.3940 C.3    88  ARG88       0.2205
      8  NE        55.2000   59.7680   31.3200 N.pl3  88  ARG88      -0.0865
      9  CZ        55.4100   59.4200   32.5840 C.cat  88  ARG88       0.5346
     10  NH1       56.1940   60.1560   33.3470 N.pl3  88  ARG88       0.1354
     11  NH2       54.8170   58.3500   33.0990 N.pl3  88  ARG88       0.1354
     12  N         55.8910   64.8810   27.0300 N.3   168  GLU168     -0.1231
     13  CA        55.7380   64.5600   28.4530 C.3   168  GLU168      0.1699
     14  C         54.7290   65.4250   29.1970 C.2   168  GLU168      0.2592
     15  O         53.9810   64.9080   30.0280 O.2   168  GLU168     -0.2718
     16  CB        57.0980   64.6510   29.1650 C.3   168  GLU168      0.0402
     17  CG        57.0900   64.3920   30.6820 C.3   168  GLU168      0.1161
     18  CD        56.7740   62.9340   31.0660 C.2   168  GLU168      0.3649
     19  OE1       56.7310   62.6380   32.2820 O.co2 168  GLU168     -0.2457
     20  OE2       56.5650   62.0920   30.1670 O.co2 168  GLU168     -0.2457
     21  N         54.7390   66.7410   28.9360 N.am  169  GLU169     -0.1979
     22  CA        54.0580   67.6790   29.8040 C.3   169  GLU169      0.1602
     23  C         52.8220   68.3640   29.2200 C.2   169  GLU169      0.2287
     24  O         51.9540   68.7560   29.9630 O.2   169  GLU169     -0.2864
     25  CB        55.0310   68.7640   30.2880 C.3   169  GLU169      0.0415
     26  CG        56.2330   68.2290   31.0590 C.3   169  GLU169      0.1163
     27  CD        55.8770   67.5140   32.3450 C.2   169  GLU169      0.3649
     28  OE1       56.8090   67.0210   32.9870 O.co2 169  GLU169     -0.2457
     29  OE2       54.6890   67.4370   32.7350 O.co2 169  GLU169     -0.2457
     30  N         50.8550   64.8410   26.3580 N.3   172  SER172     -0.1217
     31  CA        50.7920   63.4320   26.7850 C.3   172  SER172      0.1889
     32  C         50.6720   62.4830   25.5910 C.2   172  SER172      0.2288
     33  O         49.9990   61.4530   25.6570 O.2   172  SER172     -0.2866
     34  CB        49.6370   63.2120   27.7670 C.3   172  SER172      0.2089
     35  OG        49.9930   63.7200   29.0350 O.3   172  SER172     -0.2183
     36  N         46.1620   69.7020   35.0810 N.3   320  PHE320     -0.1227
     37  CA        47.5410   69.6150   34.5930 C.3   320  PHE320      0.1736
     38  C         47.7000   70.4460   33.3220 C.2   320  PHE320      0.2595
     39  O         48.8170   70.6010   32.8090 O.2   320  PHE320     -0.2718
     40  CB        47.9740   68.1710   34.3130 C.3   320  PHE320      0.0547
     41  CG        47.9720   67.2830   35.5300 C.ar  320  PHE320     -0.0202
     42  CD1       49.0740   67.2360   36.3740 C.ar  320  PHE320     -0.0042
     43  CD2       46.8640   66.4970   35.8290 C.ar  320  PHE320     -0.0042
     44  CE1       49.0720   66.4200   37.5170 C.ar  320  PHE320     -0.0003
     45  CE2       46.8570   65.6680   36.9610 C.ar  320  PHE320     -0.0003
     46  CZ        47.9620   65.6390   37.8040 C.ar  320  PHE320     -0.0000
     47  N         46.5790   70.9740   32.8320 N.am  321  ARG321     -0.1980
     48  CA        46.5340   71.8670   31.6690 C.3   321  ARG321      0.1597
     49  C         45.0920   72.3070   31.4280 C.2   321  ARG321      0.2287
     50  O         44.1580   71.6850   31.9650 O.2   321  ARG321     -0.2864
     51  CB        47.0770   71.1600   30.4200 C.3   321  ARG321      0.0334
     52  CG        46.3800   69.8670   30.1080 C.3   321  ARG321      0.0492
     53  CD        46.6440   69.4650   28.6840 C.3   321  ARG321      0.2205
     54  NE        46.1540   68.1260   28.3990 N.pl3 321  ARG321     -0.0865
     55  CZ        46.8750   67.0160   28.5660 C.cat 321  ARG321      0.5346
     56  NH1       48.1260   67.0830   29.0410 N.pl3 321  ARG321      0.1354
     57  NH2       46.3430   65.8330   28.2700 N.pl3 321  ARG321      0.1354
     58  N         53.1520   59.6840   47.1170 N.3   510  TYR510     -0.1241
     59  CA        53.4100   60.4080   45.8730 C.3   510  TYR510      0.1605
     60  C         53.3020   61.9100   46.1810 C.2   510  TYR510      0.2264
     61  O         54.3320   62.5830   46.3340 O.2   510  TYR510     -0.2867
     62  CB        52.5220   59.9410   44.7050 C.3   510  TYR510      0.0534
     63  CG        52.9040   60.6070   43.3910 C.ar  510  TYR510     -0.0201
     64  CD1       52.2030   61.7190   42.9380 C.ar  510  TYR510     -0.0009
     65  CD2       54.0100   60.1650   42.6380 C.ar  510  TYR510     -0.0009
     66  CE1       52.5420   62.3550   41.7430 C.ar  510  TYR510      0.0417
     67  CE2       54.3680   60.8050   41.4320 C.ar  510  TYR510      0.0417
     68  CZ        53.6220   61.9090   40.9990 C.ar  510  TYR510      0.1957
     69  OH        53.9320   62.5900   39.8340 O.3   510  TYR510     -0.2866
     70  N         41.0130   66.7950   43.0020 N.3   548  TYR548     -0.1241
     71  CA        39.6170   66.3220   42.9590 C.3   548  TYR548      0.1605
     72  C         38.7950   66.7100   44.1920 C.2   548  TYR548      0.2264
     73  O         37.7180   66.1610   44.4180 O.2   548  TYR548     -0.2867
     74  CB        39.5700   64.7940   42.7110 C.3   548  TYR548      0.0534
     75  CG        40.5320   64.3720   41.6320 C.ar  548  TYR548     -0.0201
     76  CD1       40.3390   64.7710   40.3110 C.ar  548  TYR548     -0.0009
     77  CD2       41.6670   63.6130   41.9360 C.ar  548  TYR548     -0.0009
     78  CE1       41.2370   64.3960   39.2960 C.ar  548  TYR548      0.0417
     79  CE2       42.5720   63.2360   40.9270 C.ar  548  TYR548      0.0417
     80  CZ        42.3520   63.6380   39.6160 C.ar  548  TYR548      0.1957
     81  OH        43.2440   63.2850   38.6250 O.3   548  TYR548     -0.2866
     82  N         59.5490   58.9820   42.0930 N.3   593  SER593     -0.1202
     83  CA        59.2880   60.1690   41.2740 C.3   593  SER593      0.2020
     84  C         58.9830   61.3510   42.1960 C.2   593  SER593      0.2618
     85  O         59.7920   61.6210   43.0840 O.2   593  SER593     -0.2717
     86  CB        58.1560   59.8930   40.2890 C.3   593  SER593      0.2103
     87  OG        58.2050   60.8340   39.2460 O.3   593  SER593     -0.2182
     88  N         57.8430   62.0350   42.0370 N.am  594  TYR594     -0.1975
     89  CA        57.5020   63.1040   42.9980 C.3   594  TYR594      0.1639
     90  C         57.5360   62.5420   44.4240 C.2   594  TYR594      0.2290
     91  O         57.8990   63.2460   45.3690 O.2   594  TYR594     -0.2864
     92  CB        56.1340   63.7500   42.7260 C.3   594  TYR594      0.0560
     93  CG        55.9620   65.1420   43.3560 C.ar  594  TYR594     -0.0198
     94  CD1       55.6700   65.2980   44.7260 C.ar  594  TYR594     -0.0009
     95  CD2       56.0970   66.2900   42.5850 C.ar  594  TYR594     -0.0009
     96  CE1       55.5190   66.5820   45.3110 C.ar  594  TYR594      0.0417
     97  CE2       55.9360   67.5820   43.1550 C.ar  594  TYR594      0.0417
     98  CZ        55.6520   67.7150   44.5160 C.ar  594  TYR594      0.1957
     99  OH        55.5040   68.9800   45.0680 O.3   594  TYR594     -0.2866
    100  N         63.0810   63.7290   42.3520 N.3   619  VAL619     -0.1245
    101  CA        63.5430   65.0940   42.1040 C.3   619  VAL619      0.1561
    102  C         64.3070   65.5220   43.3620 C.2   619  VAL619      0.2260
    103  O         63.9080   65.1590   44.4660 O.2   619  VAL619     -0.2867
    104  CB        62.3530   66.0640   41.7820 C.3   619  VAL619      0.0252
    105  CG1       62.7720   67.5370   41.8710 C.3   619  VAL619      0.0019
    106  CG2       61.7810   65.7680   40.3950 C.3   619  VAL619      0.0019
    107  N         64.3670   71.7250   42.1640 N.3   622  TRP622     -0.1241
    108  CA        63.4170   72.0700   41.1240 C.3   622  TRP622      0.1605
    109  C         64.0410   72.6340   39.8520 C.2   622  TRP622      0.2264
    110  O         63.5150   72.4120   38.7720 O.2   622  TRP622     -0.2867
    111  CB        62.2440   72.8930   41.6770 C.3   622  TRP622      0.0550
    112  CG        61.3410   71.9560   42.4610 C.ar  622  TRP622      0.0003
    113  CD1       61.1400   71.9410   43.8110 C.ar  622  TRP622      0.0946
    114  CD2       60.5830   70.8570   41.9300 C.ar  622  TRP622      0.0152
    115  NE1       60.2880   70.9160   44.1540 N.ar  622  TRP622     -0.2442
    116  CE2       59.9290   70.2360   43.0180 C.ar  622  TRP622      0.0810
    117  CE3       60.3740   70.3540   40.6320 C.ar  622  TRP622      0.0012
    118  CZ2       59.0900   69.1160   42.8590 C.ar  622  TRP622      0.0191
    119  CZ3       59.5300   69.2410   40.4630 C.ar  622  TRP622      0.0001
    120  CH2       58.9000   68.6350   41.5810 C.ar  622  TRP622      0.0015
    121  N         64.4410   69.9860   37.0920 N.3   625  TYR625     -0.1241
    122  CA        63.3070   69.3450   36.4330 C.3   625  TYR625      0.1605
    123  C         62.8150   70.1830   35.2270 C.2   625  TYR625      0.2264
    124  O         63.2540   71.3290   35.0520 O.2   625  TYR625     -0.2867
    125  CB        62.1830   68.9500   37.4330 C.3   625  TYR625      0.0534
    126  CG        61.2600   67.9680   36.7710 C.ar  625  TYR625     -0.0201
    127  CD1       59.9300   68.2910   36.4900 C.ar  625  TYR625     -0.0009
    128  CD2       61.7570   66.7460   36.3070 C.ar  625  TYR625     -0.0009
    129  CE1       59.1070   67.3940   35.7940 C.ar  625  TYR625      0.0417
    130  CE2       60.9590   65.8640   35.6370 C.ar  625  TYR625      0.0417
    131  CZ        59.6380   66.1910   35.3750 C.ar  625  TYR625      0.1957
    132  OH        58.8770   65.2820   34.6840 O.3   625  TYR625     -0.2866
    133  N         56.3230   71.5090   33.5790 N.3   629  TYR629     -0.1241
    134  CA        55.7880   71.0060   34.8480 C.3   629  TYR629      0.1605
    135  C         56.1860   71.9240   36.0100 C.2   629  TYR629      0.2264
    136  O         55.3260   72.4190   36.7410 O.2   629  TYR629     -0.2867
    137  CB        56.2340   69.5600   35.0980 C.3   629  TYR629      0.0534
    138  CG        55.7080   68.9330   36.3870 C.ar  629  TYR629     -0.0201
    139  CD1       54.5820   68.1030   36.3750 C.ar  629  TYR629     -0.0009
    140  CD2       56.3440   69.1650   37.6100 C.ar  629  TYR629     -0.0009
    141  CE1       54.0860   67.5280   37.5660 C.ar  629  TYR629      0.0417
    142  CE2       55.8700   68.5930   38.7970 C.ar  629  TYR629      0.0417
    143  CZ        54.7460   67.7720   38.7620 C.ar  629  TYR629      0.1957
    144  OH        54.2920   67.2010   39.9240 O.3   629  TYR629     -0.2866
    145  N         54.7600   75.5870   36.2250 N.3   632  ARG632     -0.1245
    146  CA        53.3250   75.6130   36.4030 C.3   632  ARG632      0.1563
    147  C         52.9950   75.8860   37.8790 C.2   632  ARG632      0.2260
    148  O         52.0680   76.6400   38.2010 O.2   632  ARG632     -0.2867
    149  CB        52.7320   74.2720   35.9600 C.3   632  ARG632      0.0307
    150  CG        51.2040   74.2370   35.9700 C.3   632  ARG632      0.0489
    151  CD        50.6890   72.8420   35.5960 C.3   632  ARG632      0.2205
    152  NE        51.1390   72.4270   34.2730 N.pl3 632  ARG632     -0.0865
    153  CZ        51.5240   71.1890   33.9660 C.cat 632  ARG632      0.5346
    154  NH1       51.5380   70.2450   34.9050 N.pl3 632  ARG632      0.1354
    155  NH2       51.8960   70.8940   32.7250 N.pl3 632  ARG632      0.1354
    156  N         63.9160   61.6100   32.1260 N.3   673  ASN673     -0.1225
    157  CA        62.8690   62.4270   32.7150 C.3   673  ASN673      0.1785
    158  C         63.3340   63.1270   34.0030 C.2   673  ASN673      0.2597
    159  O         63.5210   64.3500   34.0280 O.2   673  ASN673     -0.2718
    160  CB        61.6500   61.5170   32.9430 C.3   673  ASN673      0.1169
    161  CG        60.4620   62.2340   33.5370 C.2   673  ASN673      0.2627
    162  OD1       60.4770   63.4550   33.7750 O.2   673  ASN673     -0.2716
    163  ND2       59.4000   61.4730   33.7680 N.am  673  ASN673     -0.0877
    164  N         63.5010   62.3610   35.0730 N.am  674  VAL674     -0.1980
    165  CA        64.1940   62.8460   36.2590 C.3   674  VAL674      0.1595
    166  C         65.6230   62.3500   36.1040 C.2   674  VAL674      0.2287
    167  O         65.9010   61.1720   36.2500 O.2   674  VAL674     -0.2864
    168  CB        63.5700   62.3270   37.5720 C.3   674  VAL674      0.0276
    169  CG1       64.4040   62.7650   38.7770 C.3   674  VAL674      0.0022
    170  CG2       62.1200   62.8180   37.7080 C.3   674  VAL674      0.0022
    171  N         62.9840   56.1740   33.8820 N.3   703  HIS703     -0.1241
    172  CA        62.1640   56.5830   35.0030 C.3   703  HIS703      0.1621
    173  C         61.2100   55.5030   35.5210 C.2   703  HIS703      0.2264
    174  O         60.8070   55.5500   36.6860 O.2   703  HIS703     -0.2867
    175  CB        61.3930   57.8700   34.6820 C.3   703  HIS703      0.0745
    176  CG        60.8920   58.5800   35.9000 C.ar  703  HIS703      0.0817
    177  ND1       61.7260   58.9640   36.9280 N.ar  703  HIS703     -0.2268
    178  CD2       59.6430   58.9490   36.2690 C.ar  703  HIS703      0.1154
    179  CE1       61.0140   59.5550   37.8720 C.ar  703  HIS703      0.1986
    180  NE2       59.7430   59.5490   37.4980 N.ar  703  HIS703     -0.2212
@<TRIPOS>BOND
     1    32    33    2
     2    32    31    1
     3    30    31    1
     4     3     4    2
     5     3     2    1
     6    31    34    1
     7     1     2    1
     8    12    13    1
     9     2     5    1
    10    34    35    1
    11    57    55    1
    12    54    55    2
    13    54    53    1
    14    13    16    1
    15    13    14    1
    16    55    56    1
    17     5     6    1
    18    53    52    1
    19    21    14   am
    20    21    22    1
    21    16    17    1
    22    14    15    2
    23    23    22    1
    24    23    24    2
    25     6     7    1
    26    22    25    1
    27    52    51    1
    28    20    18   ar
    29    25    26    1
    30     7     8    1
    31    51    48    1
    32    17    18    1
    33    26    27    1
    34    18    19   ar
    35     8     9    2
    36    49    48    1
    37    49    50    2
    38    48    47    1
    39   156   157    1
    40    27    29   ar
    41    27    28   ar
    42     9    11    1
    43     9    10    1
    44   157   160    1
    45   157   158    1
    46   155   153    1
    47    39    38    2
    48    47    38   am
    49   160   161    1
    50    38    37    1
    51   161   163   am
    52   161   162    2
    53   133   134    1
    54   171   172    1
    55   153   152    2
    56   153   154    1
    57   158   159    2
    58   158   164   am
    59   152   151    1
    60    40    37    1
    61    40    41    1
    62    37    36    1
    63   175   172    1
    64   175   176    1
    65   132   131    1
    66   134   137    1
    67   134   135    1
    68   172   173    1
    69   124   123    2
    70   164   165    1
    71   137   138    1
    72   123   122    1
    73   131   130   ar
    74   131   129   ar
    75   173   174    2
    76    41    43   ar
    77    41    42   ar
    78   151   150    1
    79   130   128   ar
    80   129   127   ar
    81    43    45   ar
    82   176   178   ar
    83   176   177   ar
    84   149   150    1
    85   149   146    1
    86   135   136    2
    87   166   167    2
    88   166   165    1
    89   145   146    1
    90   165   168    1
    91   178   180   ar
    92   128   126   ar
    93    42    44   ar
    94   139   138   ar
    95   139   141   ar
    96   138   140   ar
    97   146   147    1
    98   122   121    1
    99   122   125    1
   100   127   126   ar
   101   126   125    1
   102   177   179   ar
   103    45    46   ar
   104   180   179   ar
   105    44    46   ar
   106   141   143   ar
   107   168   170    1
   108   168   169    1
   109   140   142   ar
   110   147   148    2
   111    81    80    1
   112   143   142   ar
   113   143   144    1
   114   110   109    2
   115    87    86    1
   116    78    80   ar
   117    78    76   ar
   118    80    79   ar
   119    69    68    1
   120   109   108    1
   121    86    83    1
   122    76    75   ar
   123   106   104    1
   124   119   117   ar
   125   119   120   ar
   126   117   114   ar
   127    79    77   ar
   128    68    67   ar
   129    68    66   ar
   130   108   111    1
   131   108   107    1
   132    83    82    1
   133    83    84    1
   134    67    65   ar
   135   120   118   ar
   136    75    77   ar
   137    75    74    1
   138   111   112    1
   139    66    64   ar
   140   104   105    1
   141   104   101    1
   142   114   112   ar
   143   114   116   ar
   144    88    84   am
   145    88    89    1
   146   101   100    1
   147   101   102    1
   148    84    85    2
   149   112   113   ar
   150    95    97   ar
   151    95    93   ar
   152    65    63   ar
   153    74    71    1
   154    92    89    1
   155    92    93    1
   156   118   116   ar
   157    64    63   ar
   158    71    70    1
   159    71    72    1
   160    89    90    1
   161   116   115   ar
   162    97    98   ar
   163    93    94   ar
   164   102   103    2
   165    63    62    1
   166   113   115   ar
   167    72    73    2
   168    90    91    2
   169    98    99    1
   170    98    96   ar
   171    62    59    1
   172    94    96   ar
   173    59    60    1
   174    59    58    1
   175    60    61    2
