@<TRIPOS>MOLECULE
tmp/3vjtA00.pdb
 119 112 0 0 0
SMALL
GASTEIGER

@<TRIPOS>ATOM
      1  N          9.6540   -0.9420   14.4250 N.3    53  GLN53      -0.1245
      2  CA         9.3950   -0.8990   12.9860 C.3    53  GLN53       0.1566
      3  C         10.5910   -0.3360   12.2340 C.2    53  GLN53       0.2260
      4  O         10.9340   -0.8250   11.1660 O.2    53  GLN53      -0.2867
      5  CB         8.1660   -0.0380   12.6740 C.3    53  GLN53       0.0367
      6  CG         6.8570   -0.6540   13.1020 C.3    53  GLN53       0.0905
      7  CD         5.6690    0.1580   12.6350 C.2    53  GLN53       0.2608
      8  OE1        5.5100    0.4150   11.4380 O.2    53  GLN53      -0.2717
      9  NE2        4.8260    0.5700   13.5770 N.am   53  GLN53      -0.0878
     10  N         13.5310   -2.8120   12.1190 N.3    56  ILE56      -0.1245
     11  CA        13.2720   -3.8850   11.1500 C.3    56  ILE56       0.1561
     12  C         13.6040   -3.3630    9.7460 C.2    56  ILE56       0.2260
     13  O         14.2480   -4.0500    8.9540 O.2    56  ILE56      -0.2867
     14  CB        11.7890   -4.3260   11.1960 C.3    56  ILE56       0.0252
     15  CG1       11.5310   -5.1380   12.4700 C.3    56  ILE56       0.0019
     16  CG2       11.4250   -5.1160    9.9390 C.3    56  ILE56       0.0019
     17  CD1       10.0510   -5.2790   12.8170 C.3    56  ILE56       0.0001
     18  N         16.5130   -5.2380    7.3020 N.3    60  LYS60      -0.1245
     19  CA        16.2590   -5.7910    5.9770 C.3    60  LYS60       0.1561
     20  C         17.2290   -5.2800    4.9280 C.2    60  LYS60       0.2260
     21  O         17.3920   -5.9020    3.8790 O.2    60  LYS60      -0.2867
     22  CB        14.8340   -5.4920    5.5190 C.3    60  LYS60       0.0271
     23  CG        13.7700   -6.0230    6.4450 C.3    60  LYS60       0.0035
     24  CD        12.4790   -6.3260    5.6990 C.3    60  LYS60       0.0206
     25  CE        11.9470   -5.1390    4.9310 C.3    60  LYS60       0.1093
     26  NZ        10.6180   -5.4710    4.3440 N.3    60  LYS60      -0.1314
     27  N         21.3920  -10.1260    5.1800 N.3    65  PHE65      -0.1227
     28  CA        20.2970  -10.4250    6.1050 C.3    65  PHE65       0.1736
     29  C         19.1290  -11.1260    5.4220 C.2    65  PHE65       0.2595
     30  O         18.5610  -12.0770    5.9650 O.2    65  PHE65      -0.2718
     31  CB        19.7750   -9.1400    6.7520 C.3    65  PHE65       0.0547
     32  CG        18.7400   -9.3770    7.8190 C.ar   65  PHE65      -0.0202
     33  CD1       19.1230   -9.6610    9.1230 C.ar   65  PHE65      -0.0042
     34  CD2       17.3850   -9.2980    7.5240 C.ar   65  PHE65      -0.0042
     35  CE1       18.1740   -9.8580   10.1250 C.ar   65  PHE65      -0.0003
     36  CE2       16.4220   -9.4930    8.5260 C.ar   65  PHE65      -0.0003
     37  CZ        16.8200   -9.7710    9.8240 C.ar   65  PHE65      -0.0000
     38  N         18.7650  -10.6370    4.2420 N.am   66  ARG66      -0.1980
     39  CA        17.6590  -11.2030    3.4780 C.3    66  ARG66       0.1597
     40  C         17.9270  -12.6400    3.0240 C.2    66  ARG66       0.2287
     41  O         16.9910  -13.3830    2.7330 O.2    66  ARG66      -0.2864
     42  CB        17.3660  -10.3310    2.2560 C.3    66  ARG66       0.0334
     43  CG        16.7650   -8.9620    2.5720 C.3    66  ARG66       0.0492
     44  CD        15.2800   -9.0580    2.8570 C.3    66  ARG66       0.2205
     45  NE        14.6010   -7.7840    2.6380 N.pl3  66  ARG66      -0.0865
     46  CZ        14.6110   -7.1160    1.4850 C.cat  66  ARG66       0.5346
     47  NH1       15.2680   -7.5980    0.4370 N.pl3  66  ARG66       0.1354
     48  NH2       13.9640   -5.9630    1.3770 N.pl3  66  ARG66       0.1354
     49  N         13.3390  -17.1010    7.1030 N.3    70  SER70      -0.1217
     50  CA        12.3200  -16.3030    7.7570 C.3    70  SER70       0.1889
     51  C         12.4500  -16.4070    9.2760 C.2    70  SER70       0.2288
     52  O         12.4100  -15.4000    9.9890 O.2    70  SER70      -0.2866
     53  CB        10.9410  -16.7900    7.3130 C.3    70  SER70       0.2089
     54  OG         9.9110  -16.0390    7.9130 O.3    70  SER70      -0.2183
     55  N         15.6350  -14.6700   10.6440 N.3    73  GLN73      -0.1231
     56  CA        15.4690  -13.2190   10.5920 C.3    73  GLN73       0.1698
     57  C         14.6290  -12.7830   11.7890 C.2    73  GLN73       0.2592
     58  O         14.9070  -11.7590   12.4300 O.2    73  GLN73      -0.2718
     59  CB        14.7630  -12.7940    9.3040 C.3    73  GLN73       0.0381
     60  CG        15.5230  -13.1300    8.0340 C.3    73  GLN73       0.0905
     61  CD        14.8590  -12.5620    6.7890 C.2    73  GLN73       0.2608
     62  OE1       15.2170  -12.9090    5.6640 O.2    73  GLN73      -0.2717
     63  NE2       13.8960  -11.6800    6.9860 N.am   73  GLN73      -0.0878
     64  N         13.6090  -13.5820   12.0960 N.am   74  ILE74      -0.1980
     65  CA        12.7110  -13.2910   13.2070 C.3    74  ILE74       0.1595
     66  C         13.4160  -13.4160   14.5520 C.2    74  ILE74       0.2287
     67  O         13.2480  -12.5780   15.4420 O.2    74  ILE74      -0.2864
     68  CB        11.4740  -14.2260   13.1610 C.3    74  ILE74       0.0276
     69  CG1       10.5230  -13.7390   12.0580 C.3    74  ILE74       0.0022
     70  CG2       10.7830  -14.2850   14.5320 C.3    74  ILE74       0.0022
     71  CD1        9.3530  -14.6720   11.7670 C.3    74  ILE74       0.0001
     72  N         15.8170  -10.3960   15.1060 N.3    77  LEU77      -0.1231
     73  CA        15.1100   -9.1590   15.3980 C.3    77  LEU77       0.1693
     74  C         14.4970   -9.1070   16.7890 C.2    77  LEU77       0.2591
     75  O         14.6100   -8.0950   17.4740 O.2    77  LEU77      -0.2718
     76  CB        14.0490   -8.9130   14.3300 C.3    77  LEU77       0.0284
     77  CG        14.6890   -8.3390   13.0690 C.3    77  LEU77       0.0019
     78  CD1       13.7190   -8.3880   11.9020 C.3    77  LEU77       0.0001
     79  CD2       15.1220   -6.8990   13.3710 C.3    77  LEU77       0.0001
     80  N         13.8750  -10.1960   17.2280 N.am   78  LYS78      -0.1980
     81  CA        13.2630  -10.2100   18.5520 C.3    78  LYS78       0.1596
     82  C         14.2910  -10.1070   19.6710 C.2    78  LYS78       0.2287
     83  O         14.0270   -9.5180   20.7230 O.2    78  LYS78      -0.2864
     84  CB        12.4380  -11.4840   18.7520 C.3    78  LYS78       0.0298
     85  CG        11.2450  -11.6300   17.8290 C.3    78  LYS78       0.0038
     86  CD        10.4740  -12.9070   18.1480 C.3    78  LYS78       0.0206
     87  CE         9.8870  -12.8690   19.5540 C.3    78  LYS78       0.1093
     88  NZ         9.1320  -14.1130   19.8840 N.3    78  LYS78      -0.1314
     89  N          0.2540   -4.0810   19.7640 N.3   230  PRO230     -0.2102
     90  CA         0.2970   -5.4480   19.2560 C.3   230  PRO230      0.1504
     91  C          1.7180   -5.8230   18.8470 C.2   230  PRO230      0.2575
     92  O          2.1730   -6.9340   19.1180 O.2   230  PRO230     -0.2718
     93  CB        -0.6530   -5.3970   18.0670 C.3   230  PRO230      0.0282
     94  CG        -1.6500   -4.3860   18.4970 C.3   230  PRO230      0.0208
     95  CD        -0.7570   -3.2940   19.0430 C.3   230  PRO230      0.0893
     96  N          2.4230   -4.8920   18.2070 N.am  231  LEU231     -0.1980
     97  CA         3.7950   -5.1670   17.7610 C.3   231  LEU231      0.1596
     98  C          4.7300   -5.4170   18.9420 C.2   231  LEU231      0.2287
     99  O          5.5430   -6.3450   18.9220 O.2   231  LEU231     -0.2864
    100  CB         4.3360   -4.0120   16.9040 C.3   231  LEU231      0.0297
    101  CG         5.7400   -4.2460   16.3190 C.3   231  LEU231      0.0022
    102  CD1        5.7120   -5.4490   15.3760 C.3   231  LEU231      0.0001
    103  CD2        6.2170   -3.0110   15.5750 C.3   231  LEU231      0.0001
    104  N          4.0130   -8.8750   20.3700 N.3   234  GLU234     -0.1231
    105  CA         4.4990   -9.9320   19.4970 C.3   234  GLU234      0.1699
    106  C          6.0200  -10.0620   19.5880 C.2   234  GLU234      0.2592
    107  O          6.5510  -11.1670   19.7170 O.2   234  GLU234     -0.2718
    108  CB         4.0990   -9.6440   18.0430 C.3   234  GLU234      0.0402
    109  CG         4.2870  -10.8310   17.1000 C.3   234  GLU234      0.1161
    110  CD         4.0960  -10.4600   15.6370 C.2   234  GLU234      0.3649
    111  OE1        5.0750  -10.0200   14.9950 O.co2 234  GLU234     -0.2457
    112  OE2        2.9610  -10.5940   15.1300 O.co2 234  GLU234     -0.2457
    113  N          6.7230   -8.9350   19.5440 N.am  235  VAL235     -0.1980
    114  CA         8.1830   -8.9810   19.5870 C.3   235  VAL235      0.1595
    115  C          8.8300   -9.1800   20.9540 C.2   235  VAL235      0.2287
    116  O          9.7220  -10.0150   21.0910 O.2   235  VAL235     -0.2864
    117  CB         8.7960   -7.7240   18.9260 C.3   235  VAL235      0.0276
    118  CG1       10.3100   -7.7350   19.0790 C.3   235  VAL235      0.0022
    119  CG2        8.4240   -7.6920   17.4560 C.3   235  VAL235      0.0022
@<TRIPOS>BOND
     1    47    46    1
     2    48    46    1
     3    46    45    2
     4    42    43    1
     5    42    39    1
     6    43    44    1
     7    45    44    1
     8    41    40    2
     9    40    39    1
    10    39    38    1
    11    21    20    2
    12    38    29   am
    13    26    25    1
    14    20    19    1
    15    25    24    1
    16    27    28    1
    17    29    30    2
    18    29    28    1
    19    22    19    1
    20    22    23    1
    21    62    61    2
    22    24    23    1
    23    19    18    1
    24    28    31    1
    25    31    32    1
    26    61    63   am
    27    61    60    1
    28    49    50    1
    29    53    50    1
    30    53    54    1
    31    34    32   ar
    32    34    36   ar
    33    50    51    1
    34    32    33   ar
    35    60    59    1
    36    36    37   ar
    37    13    12    2
    38    33    35   ar
    39    51    52    2
    40    59    56    1
    41    12    11    1
    42    37    35   ar
    43    16    14    1
    44    56    55    1
    45    56    57    1
    46    11    14    1
    47    11    10    1
    48     4     3    2
    49    14    15    1
    50     8     7    2
    51    71    69    1
    52    57    64   am
    53    57    58    2
    54    78    77    1
    55    69    68    1
    56    64    65    1
    57     3     2    1
    58    15    17    1
    59     7     6    1
    60     7     9   am
    61     5     2    1
    62     5     6    1
    63     2     1    1
    64    77    79    1
    65    77    76    1
    66    68    65    1
    67    68    70    1
    68    65    66    1
    69    76    73    1
    70    66    67    2
    71   111   110   ar
    72    72    73    1
    73   112   110   ar
    74   102   101    1
    75    73    74    1
    76   103   101    1
    77   110   109    1
    78   101   100    1
    79    74    80   am
    80    74    75    2
    81   100    97    1
    82   109   108    1
    83    80    81    1
    84   119   117    1
    85    97    96    1
    86    97    98    1
    87    85    86    1
    88    85    84    1
    89   108   105    1
    90    93    94    1
    91    93    90    1
    92    86    87    1
    93    96    91   am
    94    94    95    1
    95    81    84    1
    96    81    82    1
    97    91    92    2
    98    91    90    1
    99    99    98    2
   100   117   118    1
   101   117   114    1
   102    95    89    1
   103    90    89    1
   104   105   106    1
   105   105   104    1
   106   113   114    1
   107   113   106   am
   108    87    88    1
   109   114   115    1
   110   106   107    2
   111    82    83    2
   112   115   116    2
