@<TRIPOS>MOLECULE
tmp/3vk3B01.pdb
 94 90 0 0 0
SMALL
GASTEIGER

@<TRIPOS>ATOM
      1  N        -25.8390   18.5530  -21.0080 N.3   108  TYR108     -0.1227
      2  CA       -24.9530   17.5430  -21.5530 C.3   108  TYR108      0.1736
      3  C        -24.1210   18.1650  -22.6810 C.2   108  TYR108      0.2596
      4  O        -24.6620   18.8790  -23.5370 O.2   108  TYR108     -0.2718
      5  CB       -25.8060   16.3980  -22.0760 C.3   108  TYR108      0.0548
      6  CG       -25.0450   15.2980  -22.7540 C.ar  108  TYR108     -0.0200
      7  CD1      -24.2670   14.4050  -22.0130 C.ar  108  TYR108     -0.0009
      8  CD2      -25.1290   15.1300  -24.1390 C.ar  108  TYR108     -0.0009
      9  CE1      -23.5830   13.3910  -22.6280 C.ar  108  TYR108      0.0417
     10  CE2      -24.4440   14.1190  -24.7790 C.ar  108  TYR108      0.0417
     11  CZ       -23.6700   13.2490  -24.0200 C.ar  108  TYR108      0.1957
     12  OH       -22.9910   12.2400  -24.6480 O.3   108  TYR108     -0.2866
     13  N        -22.8130   17.9000  -22.6740 N.am  109  GLY109     -0.1942
     14  CA       -21.8780   18.5550  -23.5970 C.3   109  GLY109      0.2014
     15  C        -22.2260   18.4530  -25.0720 C.2   109  GLY109      0.2638
     16  O        -22.1680   19.4590  -25.7990 O.2   109  GLY109     -0.2714
     17  N        -22.5870   17.2630  -25.5520 N.am  110  HIS110     -0.1973
     18  CA       -22.8520   17.1560  -26.9960 C.3   110  HIS110      0.1656
     19  C        -24.1800   17.8260  -27.3660 C.2   110  HIS110      0.2291
     20  O        -24.3710   18.2300  -28.5020 O.2   110  HIS110     -0.2864
     21  CB       -22.7760   15.7190  -27.5210 C.3   110  HIS110      0.0771
     22  CG       -21.4680   15.0420  -27.2550 C.ar  110  HIS110      0.0820
     23  ND1      -20.2900   15.7350  -27.0700 N.ar  110  HIS110     -0.2267
     24  CD2      -21.1520   13.7330  -27.1440 C.ar  110  HIS110      0.1154
     25  CE1      -19.3070   14.8800  -26.8480 C.ar  110  HIS110      0.1986
     26  NE2      -19.8040   13.6570  -26.8950 N.ar  110  HIS110     -0.2212
     27  N        -26.6330   18.0400  -15.1900 N.3   155  ASN155     -0.1240
     28  CA       -25.1940   18.1950  -14.9720 C.3   155  ASN155      0.1653
     29  C        -24.7960   19.6680  -14.9370 C.2   155  ASN155      0.2266
     30  O        -25.3910   20.4750  -15.6510 O.2   155  ASN155     -0.2867
     31  CB       -24.4300   17.4880  -16.0800 C.3   155  ASN155      0.1155
     32  CG       -23.7790   16.2010  -15.6100 C.2   155  ASN155      0.2627
     33  OD1      -22.9870   15.6150  -16.3430 O.2   155  ASN155     -0.2716
     34  ND2      -24.0760   15.7730  -14.3790 N.am  155  ASN155     -0.0877
     35  N        -31.4410   10.8270  -16.6440 N.3   183  TYR183     -0.1241
     36  CA       -30.9300   10.5740  -15.3000 C.3   183  TYR183      0.1605
     37  C        -31.9290    9.8650  -14.3750 C.2   183  TYR183      0.2264
     38  O        -31.5440    8.9830  -13.6090 O.2   183  TYR183     -0.2867
     39  CB       -30.4470   11.8870  -14.6690 C.3   183  TYR183      0.0534
     40  CG       -29.0300   12.2670  -15.0380 C.ar  183  TYR183     -0.0201
     41  CD1      -28.4930   11.9380  -16.2930 C.ar  183  TYR183     -0.0009
     42  CD2      -28.2260   12.9750  -14.1440 C.ar  183  TYR183     -0.0009
     43  CE1      -27.1870   12.3020  -16.6410 C.ar  183  TYR183      0.0417
     44  CE2      -26.9160   13.3460  -14.4890 C.ar  183  TYR183      0.0417
     45  CZ       -26.4100   13.0060  -15.7330 C.ar  183  TYR183      0.1957
     46  OH       -25.1240   13.3630  -16.0640 O.3   183  TYR183     -0.2866
     47  N        -16.3240    8.1730  -19.1670 N.3   332  VAL332     -0.1231
     48  CA       -17.5170    9.0000  -19.3130 C.3   332  VAL332      0.1692
     49  C        -18.6830    8.0070  -19.4170 C.2   332  VAL332      0.2593
     50  O        -18.4580    6.7990  -19.5780 O.2   332  VAL332     -0.2718
     51  CB       -17.4440    9.9630  -20.5310 C.3   332  VAL332      0.0266
     52  CG1      -16.1150   10.7260  -20.5360 C.3   332  VAL332      0.0020
     53  CG2      -17.6270    9.1970  -21.8550 C.3   332  VAL332      0.0020
     54  N        -19.9060    8.5070  -19.3080 N.am  333  SER333     -0.1938
     55  CA       -21.1260    7.6900  -19.3310 C.3   333  SER333      0.2055
     56  C        -21.6030    7.3890  -17.9230 C.2   333  SER333      0.2642
     57  O        -20.9490    7.7410  -16.9310 O.2   333  SER333     -0.2714
     58  CB       -20.9810    6.3880  -20.1270 C.3   333  SER333      0.2130
     59  OG       -22.2710    5.9240  -20.5250 O.3   333  SER333     -0.2179
     60  N        -22.7540    6.7290  -17.8450 N.am  334  LEU334     -0.1977
     61  CA       -23.4230    6.5310  -16.5810 C.3   334  LEU334      0.1596
     62  C        -24.5150    5.4880  -16.7580 C.2   334  LEU334      0.2287
     63  O        -24.8230    5.0720  -17.8860 O.2   334  LEU334     -0.2864
     64  CB       -24.0210    7.8500  -16.1070 C.3   334  LEU334      0.0297
     65  CG       -25.1190    8.3650  -17.0430 C.3   334  LEU334      0.0022
     66  CD1      -26.4510    8.4350  -16.3370 C.3   334  LEU334      0.0001
     67  CD2      -24.7170    9.6530  -17.7050 C.3   334  LEU334      0.0001
     68  N        -15.8010   10.3830  -13.2150 N.3   342  GLN342     -0.1245
     69  CA       -15.0670   11.3060  -14.0610 C.3   342  GLN342      0.1566
     70  C        -14.7520   12.6100  -13.3450 C.2   342  GLN342      0.2260
     71  O        -15.4940   13.0570  -12.4580 O.2   342  GLN342     -0.2867
     72  CB       -15.8210   11.5880  -15.3520 C.3   342  GLN342      0.0367
     73  CG       -17.2020   12.1040  -15.1580 C.3   342  GLN342      0.0905
     74  CD       -17.8050   12.5380  -16.4760 C.2   342  GLN342      0.2608
     75  OE1      -18.5670   11.7950  -17.0920 O.2   342  GLN342     -0.2717
     76  NE2      -17.4410   13.7260  -16.9300 N.am  342  GLN342     -0.0878
     77  N        -12.4250   15.4160  -19.6310 N.3   348  THR348     -0.1218
     78  CA       -13.1830   15.9560  -20.7630 C.3   348  THR348      0.1862
     79  C        -12.8780   17.4170  -21.0640 C.2   348  THR348      0.2287
     80  O        -12.7950   17.8040  -22.2290 O.2   348  THR348     -0.2866
     81  CB       -14.7050   15.8150  -20.5580 C.3   348  THR348      0.1770
     82  OG1      -15.0650   16.3190  -19.2650 O.3   348  THR348     -0.2211
     83  CG2      -15.1310   14.3680  -20.6730 C.3   348  THR348      0.0375
     84  N        -17.6840   13.5520  -10.6930 N.3   368  ARG368     -0.1245
     85  CA       -19.0170   12.9970  -10.8170 C.3   368  ARG368      0.1563
     86  C        -18.9090   11.4920  -10.7560 C.2   368  ARG368      0.2260
     87  O        -18.0590   10.8850  -11.4270 O.2   368  ARG368     -0.2867
     88  CB       -19.6840   13.4320  -12.1250 C.3   368  ARG368      0.0307
     89  CG       -21.1680   13.1200  -12.1760 C.3   368  ARG368      0.0489
     90  CD       -21.7130   13.3070  -13.5720 C.3   368  ARG368      0.2205
     91  NE       -21.3710   12.1690  -14.4210 N.pl3 368  ARG368     -0.0865
     92  CZ       -21.5370   12.1240  -15.7380 C.cat 368  ARG368      0.5346
     93  NH1      -22.0210   13.1740  -16.4030 N.pl3 368  ARG368      0.1354
     94  NH2      -21.1920   11.0270  -16.3980 N.pl3 368  ARG368      0.1354
@<TRIPOS>BOND
     1    20    19    2
     2    21    22    1
     3    21    18    1
     4    19    18    1
     5    22    24   ar
     6    22    23   ar
     7    24    26   ar
     8    23    25   ar
     9    18    17    1
    10    26    25   ar
    11    16    15    2
    12    17    15   am
    13    15    14    1
    14    10     8   ar
    15    10    11   ar
    16    12    11    1
    17     8     6   ar
    18    11     9   ar
    19    14    13    1
    20     4     3    2
    21     6     5    1
    22     6     7   ar
    23     3    13   am
    24     3     2    1
    25     9     7   ar
    26    80    79    2
    27     5     2    1
    28    53    51    1
    29     2     1    1
    30    79    78    1
    31    78    81    1
    32    78    77    1
    33    83    81    1
    34    81    82    1
    35    52    51    1
    36    51    48    1
    37    59    58    1
    38    58    55    1
    39    50    49    2
    40    49    48    1
    41    49    54   am
    42    55    54    1
    43    55    56    1
    44    48    47    1
    45    56    60   am
    46    56    57    2
    47    63    62    2
    48    60    61    1
    49    67    65    1
    50    75    74    2
    51    65    66    1
    52    65    64    1
    53    76    74   am
    54    62    61    1
    55    35    36    1
    56    43    41   ar
    57    43    45   ar
    58    61    64    1
    59    74    73    1
    60    93    92    1
    61    94    92    1
    62    33    32    2
    63    41    40   ar
    64    31    32    1
    65    31    28    1
    66    46    45    1
    67    92    91    2
    68    45    44   ar
    69    30    29    2
    70    32    34   am
    71    72    73    1
    72    72    69    1
    73    36    39    1
    74    36    37    1
    75    27    28    1
    76    40    39    1
    77    40    42   ar
    78    28    29    1
    79    44    42   ar
    80    91    90    1
    81    37    38    2
    82    69    70    1
    83    69    68    1
    84    90    89    1
    85    70    71    2
    86    89    88    1
    87    88    85    1
    88    87    86    2
    89    85    86    1
    90    85    84    1
