@<TRIPOS>MOLECULE
tmp/3vkbB01.pdb
 197 189 0 0 0
SMALL
GASTEIGER

@<TRIPOS>ATOM
      1  N          6.7220    5.3380   25.8560 N.3    24  ILE24      -0.1245
      2  CA         6.0690    4.1670   25.2890 C.3    24  ILE24       0.1561
      3  C          5.9510    3.1360   26.4040 C.2    24  ILE24       0.2260
      4  O          6.9520    2.6860   26.9670 O.2    24  ILE24      -0.2867
      5  CB         6.9180    3.6330   24.1530 C.3    24  ILE24       0.0252
      6  CG1        6.9940    4.7300   23.0780 C.3    24  ILE24       0.0019
      7  CG2        6.3380    2.3660   23.5440 C.3    24  ILE24       0.0019
      8  CD1        8.2300    4.4020   22.1170 C.3    24  ILE24       0.0001
      9  N          2.9820   -0.0870   23.1610 N.3    53  ALA53      -0.1231
     10  CA         3.6710   -0.8080   22.1030 C.3    53  ALA53       0.1694
     11  C          4.5100   -1.9470   22.5690 C.2    53  ALA53       0.2593
     12  O          5.1250   -1.8830   23.6450 O.2    53  ALA53      -0.2718
     13  CB         4.5980    0.1410   21.3310 C.3    53  ALA53       0.0304
     14  N          4.5880   -2.9900   21.7400 N.am   54  SER54      -0.1938
     15  CA         5.4290   -4.1190   22.1230 C.3    54  SER54       0.2055
     16  C          5.6600   -4.9560   20.8710 C.2    54  SER54       0.2643
     17  O          4.7800   -5.0170   20.0060 O.2    54  SER54      -0.2714
     18  CB         4.6830   -5.0140   23.1460 C.3    54  SER54       0.2130
     19  OG         5.5420   -6.1180   23.5190 O.3    54  SER54      -0.2179
     20  N          6.8140   -5.6020   20.7760 N.am   55  THR55      -0.1950
     21  CA         7.0780   -6.5230   19.6400 C.3    55  THR55       0.1897
     22  C          6.2610   -7.8200   19.9060 C.2    55  THR55       0.2313
     23  O          5.6510   -8.3920   18.9980 O.2    55  THR55      -0.2863
     24  CB         8.5810   -6.8770   19.6100 C.3    55  THR55       0.1794
     25  OG1        9.3100   -5.6810   19.2640 O.3    55  THR55      -0.2208
     26  CG2        8.8570   -8.0330   18.5890 C.3    55  THR55       0.0378
     27  N          0.8900    0.4020   18.9200 N.3    82  HIS82      -0.1241
     28  CA         1.9040    0.1150   17.9260 C.3    82  HIS82       0.1621
     29  C          2.4080   -1.3040   18.1450 C.2    82  HIS82       0.2264
     30  O          3.1980   -1.5610   19.0710 O.2    82  HIS82      -0.2867
     31  CB         3.0760    1.0980   18.0110 C.3    82  HIS82       0.0745
     32  CG         4.0510    0.9470   16.8780 C.ar   82  HIS82       0.0817
     33  ND1        5.3470    1.4160   16.9400 N.ar   82  HIS82      -0.2268
     34  CD2        3.9120    0.3480   15.6610 C.ar   82  HIS82       0.1154
     35  CE1        5.9670    1.1280   15.7970 C.ar   82  HIS82       0.1986
     36  NE2        5.1210    0.4830   15.0070 N.ar   82  HIS82      -0.2212
     37  N          3.3370   -5.2810   15.8260 N.3    84  PRO84      -0.2116
     38  CA         3.5240   -5.8280   14.4610 C.3    84  PRO84       0.1372
     39  C          2.2610   -6.6260   14.0740 C.2    84  PRO84       0.2244
     40  O          1.5180   -7.1010   14.9140 O.2    84  PRO84      -0.2868
     41  CB         4.7490   -6.7260   14.5930 C.3    84  PRO84       0.0268
     42  CG         4.7200   -7.1560   16.0650 C.3    84  PRO84       0.0207
     43  CD         4.2200   -5.8990   16.8180 C.3    84  PRO84       0.0892
     44  N          2.8830    0.3640   10.7900 N.3   103  PRO103     -0.2116
     45  CA         4.2390    0.3900   10.2070 C.3   103  PRO103      0.1372
     46  C          4.3400   -0.4050    8.8980 C.2   103  PRO103      0.2244
     47  O          3.9940   -1.6200    8.8760 O.2   103  PRO103     -0.2868
     48  CB         5.1140   -0.2490   11.2870 C.3   103  PRO103      0.0268
     49  CG         4.1330   -1.1620   12.0480 C.3   103  PRO103      0.0207
     50  CD         2.7840   -0.4890   11.9960 C.3   103  PRO103      0.0892
     51  N          7.1410   -1.7870    6.8230 N.3   105  LEU105     -0.1245
     52  CA         8.5450   -2.0210    7.0110 C.3   105  LEU105      0.1561
     53  C          9.2050   -2.1200    5.6530 C.2   105  LEU105      0.2260
     54  O          9.4310   -3.2230    5.1250 O.2   105  LEU105     -0.2867
     55  CB         8.7060   -3.3290    7.8480 C.3   105  LEU105      0.0270
     56  CG         8.1120   -3.0340    9.2430 C.3   105  LEU105      0.0019
     57  CD1        7.3650   -4.2520    9.8190 C.3   105  LEU105      0.0001
     58  CD2        9.2060   -2.6110   10.1580 C.3   105  LEU105      0.0001
     59  N          8.2600    2.4880    8.5260 N.3   142  ALA142     -0.1231
     60  CA         9.0280    2.0390    9.7130 C.3   142  ALA142      0.1694
     61  C         10.3390    1.4360    9.2490 C.2   142  ALA142      0.2592
     62  O         10.3420    0.5000    8.4150 O.2   142  ALA142     -0.2718
     63  CB         8.2360    0.9880   10.4980 C.3   142  ALA142      0.0304
     64  N         11.4340    1.9410    9.8160 N.am  143  LEU143     -0.1966
     65  CA        12.7660    1.5560    9.4030 C.3   143  LEU143      0.1728
     66  C         13.6090    1.1880   10.6050 C.2   143  LEU143      0.2616
     67  O         13.5490    1.8830   11.6570 O.2   143  LEU143     -0.2715
     68  CB        13.4230    2.7120    8.6370 C.3   143  LEU143      0.0311
     69  CG        12.7040    3.1760    7.3490 C.3   143  LEU143      0.0022
     70  CD1       13.4720    4.3670    6.7050 C.3   143  LEU143      0.0001
     71  CD2       12.5880    1.9840    6.3160 C.3   143  LEU143      0.0001
     72  N         14.4100    0.1310   10.4480 N.am  144  THR144     -0.1951
     73  CA        15.2300   -0.3360   11.5690 C.3   144  THR144      0.1897
     74  C         16.7360   -0.1280   11.2930 C.2   144  THR144      0.2313
     75  O         17.2280   -0.3160   10.1660 O.2   144  THR144     -0.2863
     76  CB        14.9560   -1.8360   11.8660 C.3   144  THR144      0.1794
     77  OG1       15.4020   -2.6300   10.7800 O.3   144  THR144     -0.2208
     78  CG2       13.4190   -2.0880   12.0080 C.3   144  THR144      0.0378
     79  N         14.0190   -8.5560   15.3450 N.3   151  THR151     -0.1218
     80  CA        13.0430   -8.0360   14.3980 C.3   151  THR151      0.1862
     81  C         13.3050   -8.6820   13.0550 C.2   151  THR151      0.2287
     82  O         12.3850   -8.8910   12.2700 O.2   151  THR151     -0.2866
     83  CB        13.1610   -6.5010   14.2390 C.3   151  THR151      0.1770
     84  OG1       13.1580   -5.8930   15.5560 O.3   151  THR151     -0.2211
     85  CG2       11.9790   -5.9880   13.4660 C.3   151  THR151      0.0375
     86  N         10.0420  -10.2170   11.4840 N.3   155  LEU155     -0.1245
     87  CA         9.4490   -9.4140   10.4350 C.3   155  LEU155      0.1561
     88  C         10.2100   -9.3070    9.1120 C.2   155  LEU155      0.2260
     89  O          9.7360   -8.6000    8.1940 O.2   155  LEU155     -0.2867
     90  CB         9.2290   -7.9800   10.9860 C.3   155  LEU155      0.0270
     91  CG         8.5820   -7.9300   12.4110 C.3   155  LEU155      0.0019
     92  CD1        8.4120   -6.4790   12.8870 C.3   155  LEU155      0.0001
     93  CD2        7.1690   -8.6040   12.3620 C.3   155  LEU155      0.0001
     94  N          8.9710    6.3370   11.1960 N.3   184  TYR184     -0.1241
     95  CA         9.4200    5.9090   12.5140 C.3   184  TYR184      0.1605
     96  C         10.8130    5.2900   12.2860 C.2   184  TYR184      0.2264
     97  O         10.9520    4.2870   11.5810 O.2   184  TYR184     -0.2867
     98  CB         8.4220    4.8500   13.0600 C.3   184  TYR184      0.0534
     99  CG         8.5310    4.5500   14.5540 C.ar  184  TYR184     -0.0201
    100  CD1        9.7300    4.0620   15.1020 C.ar  184  TYR184     -0.0009
    101  CD2        7.4800    4.8440   15.4110 C.ar  184  TYR184     -0.0009
    102  CE1        9.8730    3.8780   16.4710 C.ar  184  TYR184      0.0417
    103  CE2        7.5960    4.6610   16.8040 C.ar  184  TYR184      0.0417
    104  CZ         8.7910    4.1690   17.3170 C.ar  184  TYR184      0.1957
    105  OH         8.8730    3.8390   18.6410 O.3   184  TYR184     -0.2866
    106  N         13.7910    3.3920   14.0350 N.3   186  TYR186     -0.1227
    107  CA        13.9750    2.5820   15.2470 C.3   186  TYR186      0.1736
    108  C         15.3080    1.8090   15.3220 C.2   186  TYR186      0.2596
    109  O         15.8510    1.3590   14.3220 O.2   186  TYR186     -0.2718
    110  CB        12.8340    1.5340   15.2530 C.3   186  TYR186      0.0548
    111  CG        12.9630    0.4590   16.2740 C.ar  186  TYR186     -0.0200
    112  CD1       12.8330    0.7650   17.6330 C.ar  186  TYR186     -0.0009
    113  CD2       13.1750   -0.8660   15.8930 C.ar  186  TYR186     -0.0009
    114  CE1       12.8990   -0.2100   18.5890 C.ar  186  TYR186      0.0417
    115  CE2       13.2350   -1.8830   16.8530 C.ar  186  TYR186      0.0417
    116  CZ        13.0900   -1.5220   18.2090 C.ar  186  TYR186      0.1957
    117  OH        13.1010   -2.4700   19.2010 O.3   186  TYR186     -0.2866
    118  N         15.8580    1.6830   16.5290 N.am  187  SER187     -0.1938
    119  CA        17.0320    0.8130   16.6680 C.3   187  SER187      0.2055
    120  C         16.8090   -0.0240   17.9180 C.2   187  SER187      0.2642
    121  O         16.6730    0.5130   19.0310 O.2   187  SER187     -0.2714
    122  CB        18.3520    1.5900   16.7480 C.3   187  SER187      0.2130
    123  OG        19.4110    0.6400   16.9080 O.3   187  SER187     -0.2179
    124  N         16.7340   -1.3380   17.7630 N.am  188  ARG188     -0.1977
    125  CA        16.4810   -2.1240   18.9600 C.3   188  ARG188      0.1597
    126  C         17.6860   -2.1930   19.8540 C.2   188  ARG188      0.2287
    127  O         17.5640   -2.0980   21.0870 O.2   188  ARG188     -0.2864
    128  CB        16.1390   -3.5710   18.5940 C.3   188  ARG188      0.0334
    129  CG        15.7950   -4.4490   19.8220 C.3   188  ARG188      0.0492
    130  CD        15.4190   -5.9130   19.3800 C.3   188  ARG188      0.2205
    131  NE        14.2130   -5.9140   18.5420 N.pl3 188  ARG188     -0.0865
    132  CZ        12.9600   -5.8520   18.9850 C.cat 188  ARG188      0.5346
    133  NH1       12.6780   -5.7650   20.3050 N.pl3 188  ARG188      0.1354
    134  NH2       11.9630   -5.8420   18.0930 N.pl3 188  ARG188      0.1354
    135  N         13.0550    6.2040   17.9650 N.3   213  SER213     -0.1202
    136  CA        13.1290    5.5740   19.2880 C.3   213  SER213      0.2020
    137  C         14.1970    4.4990   19.2610 C.2   213  SER213      0.2619
    138  O         14.6540    4.0730   18.1690 O.2   213  SER213     -0.2717
    139  CB        11.8090    4.9270   19.7680 C.3   213  SER213      0.2103
    140  OG        11.6170    3.6050   19.3050 O.3   213  SER213     -0.2182
    141  N         14.6020    4.0930   20.4640 N.am  214  GLY214     -0.1942
    142  CA        15.5800    3.0570   20.6430 C.3   214  GLY214      0.2014
    143  C         16.7360    3.4820   21.5450 C.2   214  GLY214      0.2639
    144  O         17.5810    4.2940   21.1510 O.2   214  GLY214     -0.2714
    145  N         16.7390    2.9140   22.7390 N.am  215  ASN215     -0.1958
    146  CA        17.8040    3.1330   23.7230 C.3   215  ASN215      0.1819
    147  C         18.0330    4.5730   24.1220 C.2   215  ASN215      0.2621
    148  O         19.1600    4.9830   24.4320 O.2   215  ASN215     -0.2715
    149  CB        19.0570    2.4470   23.1940 C.3   215  ASN215      0.1195
    150  CG        18.8130    0.9410   22.9980 C.2   215  ASN215      0.2630
    151  OD1       18.4590    0.2400   23.9770 O.2   215  ASN215     -0.2716
    152  ND2       18.9570    0.4520   21.7900 N.am  215  ASN215     -0.0877
    153  N         16.9490    5.3300   24.1280 N.am  216  VAL216     -0.1977
    154  CA        17.0170    6.7200   24.6070 C.3   216  VAL216      0.1596
    155  C         16.8220    6.6470   26.1170 C.2   216  VAL216      0.2287
    156  O         15.7770    6.2310   26.6230 O.2   216  VAL216     -0.2864
    157  CB        15.9260    7.6060   23.9790 C.3   216  VAL216      0.0276
    158  CG1       15.9820    9.0450   24.6040 C.3   216  VAL216      0.0022
    159  CG2       16.2080    7.7070   22.4660 C.3   216  VAL216      0.0022
    160  N         10.8470    8.6450   21.2530 N.3   234  GLY234     -0.1210
    161  CA        10.1850    7.6960   22.1320 C.3   234  GLY234      0.1956
    162  C         11.1350    6.9880   23.0520 C.2   234  GLY234      0.2612
    163  O         12.3210    6.8290   22.7200 O.2   234  GLY234     -0.2717
    164  N         10.6240    6.5600   24.2030 N.am  235  PHE235     -0.1962
    165  CA        11.4490    5.8120   25.1420 C.3   235  PHE235      0.1771
    166  C         10.5550    4.9110   25.9990 C.2   235  PHE235      0.2619
    167  O          9.4440    5.3030   26.4200 O.2   235  PHE235     -0.2715
    168  CB        12.3100    6.7570   26.0180 C.3   235  PHE235      0.0574
    169  CG        11.5060    7.6650   26.9190 C.ar  235  PHE235     -0.0200
    170  CD1       10.8570    8.7890   26.3940 C.ar  235  PHE235     -0.0042
    171  CD2       11.3540    7.3750   28.3190 C.ar  235  PHE235     -0.0042
    172  CE1       10.0750    9.6120   27.2150 C.ar  235  PHE235     -0.0003
    173  CE2       10.5630    8.2160   29.1350 C.ar  235  PHE235     -0.0003
    174  CZ         9.9300    9.3160   28.5910 C.ar  235  PHE235     -0.0000
    175  N         11.0310    3.6630   26.2000 N.am  236  ALA236     -0.1963
    176  CA        10.2520    2.6870   26.9940 C.3   236  ALA236      0.1728
    177  C         11.0440    2.1270   28.1630 C.2   236  ALA236      0.2617
    178  O         10.6970    2.3340   29.3430 O.2   236  ALA236     -0.2715
    179  CB         9.8220    1.5080   26.1040 C.3   236  ALA236      0.0334
    180  N         12.1400    1.4560   27.8250 N.am  237  GLY237     -0.1940
    181  CA        12.9170    0.7480   28.8280 C.3   237  GLY237      0.2014
    182  C         13.4170    1.5340   29.9920 C.2   237  GLY237      0.2638
    183  O         13.5310    0.9970   31.1200 O.2   237  GLY237     -0.2714
    184  N         13.7890    2.7740   29.7520 N.am  238  ALA238     -0.1977
    185  CA        14.2570    3.6050   30.8600 C.3   238  ALA238      0.1597
    186  C         13.2630    3.6340   32.0340 C.2   238  ALA238      0.2287
    187  O         13.6760    3.8080   33.2170 O.2   238  ALA238     -0.2864
    188  CB        14.4990    5.0730   30.3530 C.3   238  ALA238      0.0319
    189  N         11.0990    1.0890   32.8440 N.3   240  GLU240     -0.1245
    190  CA        10.6500   -0.2560   33.2770 C.3   240  GLU240      0.1567
    191  C         11.4950   -0.6940   34.4650 C.2   240  GLU240      0.2260
    192  O         12.2260   -1.7100   34.4140 O.2   240  GLU240     -0.2867
    193  CB        10.7500   -1.2370   32.0830 C.3   240  GLU240      0.0388
    194  CG         9.9190   -0.7130   30.9060 C.3   240  GLU240      0.1160
    195  CD        10.0650   -1.5530   29.6460 C.2   240  GLU240      0.3649
    196  OE1       10.9420   -2.4450   29.6450 O.co2 240  GLU240     -0.2457
    197  OE2        9.3170   -1.2970   28.6650 O.co2 240  GLU240     -0.2457
@<TRIPOS>BOND
     1    54    53    2
     2    53    52    1
     3    71    69    1
     4    70    69    1
     5    51    52    1
     6    52    55    1
     7    69    68    1
     8    55    56    1
     9    89    88    2
    10    62    61    2
    11    59    60    1
    12    68    65    1
    13    47    46    2
    14    46    45    1
    15    88    87    1
    16    56    57    1
    17    56    58    1
    18    61    60    1
    19    61    64   am
    20    65    64    1
    21    65    66    1
    22    60    63    1
    23    75    74    2
    24    45    44    1
    25    45    48    1
    26    87    90    1
    27    87    86    1
    28    72    66   am
    29    72    73    1
    30    66    67    2
    31    77    76    1
    32    44    50    1
    33    90    91    1
    34    94    95    1
    35    48    49    1
    36    74    73    1
    37    73    76    1
    38    97    96    2
    39    76    78    1
    40    50    49    1
    41    82    81    2
    42    96    95    1
    43    93    91    1
    44    91    92    1
    45    95    98    1
    46    81    80    1
    47    98    99    1
    48    85    83    1
    49   106   107    1
    50    39    38    1
    51    39    40    2
    52    83    80    1
    53    83    84    1
    54   109   108    2
    55    80    79    1
    56    38    41    1
    57    38    37    1
    58    99   100   ar
    59    99   101   ar
    60    41    42    1
    61    36    34   ar
    62    36    35   ar
    63   100   102   ar
    64   107   110    1
    65   107   108    1
    66   110   111    1
    67   108   118   am
    68   101   103   ar
    69    34    32   ar
    70    35    33   ar
    71    37    43    1
    72   113   111   ar
    73   113   115   ar
    74    42    43    1
    75   111   112   ar
    76   102   104   ar
    77   118   119    1
    78   119   122    1
    79   119   120    1
    80   122   123    1
    81   103   104   ar
    82   115   116   ar
    83    32    33   ar
    84    32    31    1
    85   104   105    1
    86   112   114   ar
    87   124   120   am
    88   124   125    1
    89   120   121    2
    90    28    31    1
    91    28    29    1
    92    28    27    1
    93   135   136    1
    94   134   132    1
    95    29    30    2
    96   138   137    2
    97   116   114   ar
    98   116   117    1
    99   131   132    2
   100   131   130    1
   101    26    24    1
   102   128   125    1
   103   128   129    1
   104   125   126    1
   105   132   133    1
   106    23    22    2
   107   137   136    1
   108   137   141   am
   109    25    24    1
   110   136   139    1
   111   140   139    1
   112   130   129    1
   113    24    21    1
   114    21    22    1
   115    21    20    1
   116   126   127    2
   117    17    16    2
   118   141   142    1
   119   142   143    1
   120    20    16   am
   121    16    15    1
   122   144   143    2
   123   160   161    1
   124    13    10    1
   125   143   145   am
   126    14    15    1
   127    14    11   am
   128   152   150   am
   129    10    11    1
   130    10     9    1
   131     8     6    1
   132    15    18    1
   133   161   162    1
   134   159   157    1
   135    11    12    2
   136   163   162    2
   137   145   146    1
   138   150   149    1
   139   150   151    2
   140   162   164   am
   141     6     5    1
   142    18    19    1
   143   149   146    1
   144     7     5    1
   145   146   147    1
   146   157   158    1
   147   157   154    1
   148   147   153   am
   149   147   148    2
   150   153   154    1
   151     5     2    1
   152   164   165    1
   153   154   155    1
   154   165   166    1
   155   165   168    1
   156     2     1    1
   157     2     3    1
   158   166   175   am
   159   166   167    2
   160   168   169    1
   161   179   176    1
   162   155   156    2
   163   175   176    1
   164   170   169   ar
   165   170   172   ar
   166     3     4    2
   167   169   171   ar
   168   176   177    1
   169   172   174   ar
   170   180   177   am
   171   180   181    1
   172   177   178    2
   173   171   173   ar
   174   174   173   ar
   175   197   195   ar
   176   181   182    1
   177   196   195   ar
   178   195   194    1
   179   184   182   am
   180   184   185    1
   181   182   183    2
   182   188   185    1
   183   185   186    1
   184   194   193    1
   185   186   187    2
   186   193   190    1
   187   189   190    1
   188   190   191    1
   189   192   191    2
