@<TRIPOS>MOLECULE
tmp/3vkbB00.pdb
 91 84 0 0 0
SMALL
GASTEIGER

@<TRIPOS>ATOM
      1  N          5.0160   -0.5840   27.4460 N.3    26  ASP26      -0.1239
      2  CA         4.8840   -1.9390   26.8300 C.3    26  ASP26       0.1674
      3  C          3.8160   -2.5820   27.6910 C.2    26  ASP26       0.2266
      4  O          4.1110   -2.9820   28.8350 O.2    26  ASP26      -0.2867
      5  CB         6.2140   -2.6990   26.9790 C.3    26  ASP26       0.1410
      6  CG         6.1530   -4.0780   26.3480 C.2    26  ASP26       0.3668
      7  OD1        5.1030   -4.7060   26.4550 O.co2  26  ASP26      -0.2456
      8  OD2        7.1310   -4.4990   25.7150 O.co2  26  ASP26      -0.2456
      9  N          4.2880   -6.0430   29.4570 N.3    29  LYS29      -0.1245
     10  CA         5.3670   -6.1710   30.4330 C.3    29  LYS29       0.1561
     11  C          5.0370   -5.2910   31.6400 C.2    29  LYS29       0.2260
     12  O          5.4330   -5.5960   32.7370 O.2    29  LYS29      -0.2867
     13  CB         6.7010   -5.6850   29.8600 C.3    29  LYS29       0.0271
     14  CG         7.8120   -5.7020   30.8750 C.3    29  LYS29       0.0035
     15  CD         9.1080   -5.0500   30.3830 C.3    29  LYS29       0.0206
     16  CE         9.5340   -5.5480   29.0250 C.3    29  LYS29       0.1093
     17  NZ        10.8880   -4.8770   28.7320 N.3    29  LYS29      -0.1314
     18  N          2.9820   -0.0870   23.1610 N.3    53  ALA53      -0.1231
     19  CA         3.6710   -0.8080   22.1030 C.3    53  ALA53       0.1694
     20  C          4.5100   -1.9470   22.5690 C.2    53  ALA53       0.2593
     21  O          5.1250   -1.8830   23.6450 O.2    53  ALA53      -0.2718
     22  CB         4.5980    0.1410   21.3310 C.3    53  ALA53       0.0304
     23  N          4.5880   -2.9900   21.7400 N.am   54  SER54      -0.1938
     24  CA         5.4290   -4.1190   22.1230 C.3    54  SER54       0.2055
     25  C          5.6600   -4.9560   20.8710 C.2    54  SER54       0.2644
     26  O          4.7800   -5.0170   20.0060 O.2    54  SER54      -0.2714
     27  CB         4.6830   -5.0140   23.1460 C.3    54  SER54       0.2130
     28  OG         5.5420   -6.1180   23.5190 O.3    54  SER54      -0.2179
     29  N          6.8140   -5.6020   20.7760 N.am   55  THR55      -0.1936
     30  CA         7.0780   -6.5230   19.6400 C.3    55  THR55       0.2028
     31  C          6.2610   -7.8200   19.9060 C.2    55  THR55       0.2642
     32  O          5.6510   -8.3920   18.9980 O.2    55  THR55      -0.2714
     33  CB         8.5810   -6.8770   19.6100 C.3    55  THR55       0.1808
     34  OG1        9.3100   -5.6810   19.2640 O.3    55  THR55      -0.2208
     35  CG2        8.8570   -8.0330   18.5890 C.3    55  THR55       0.0379
     36  N          6.3060   -8.3160   21.1470 N.am   56  ASP56      -0.1971
     37  CA         5.5540   -9.5180   21.5580 C.3    56  ASP56       0.1709
     38  C          4.1570   -9.1600   22.1060 C.2    56  ASP56       0.2293
     39  O          3.9810   -8.1100   22.7270 O.2    56  ASP56      -0.2864
     40  CB         6.3030  -10.2140   22.7140 C.3    56  ASP56       0.1436
     41  CG         6.5160   -9.2770   23.8890 C.2    56  ASP56       0.3671
     42  OD1        7.3240   -8.3080   23.7680 O.co2  56  ASP56      -0.2456
     43  OD2        5.8400   -9.4660   24.9410 O.co2  56  ASP56      -0.2456
     44  N         16.2540  -10.1000   16.2540 N.3   150  ARG150     -0.1245
     45  CA        14.9010  -10.3560   16.7500 C.3   150  ARG150      0.1563
     46  C         13.8760   -9.8120   15.7470 C.2   150  ARG150      0.2260
     47  O         12.9620  -10.5360   15.3170 O.2   150  ARG150     -0.2867
     48  CB        14.6390   -9.7070   18.1190 C.3   150  ARG150      0.0307
     49  CG        13.2150  -10.0320   18.7010 C.3   150  ARG150      0.0489
     50  CD        13.0880   -9.6110   20.1780 C.3   150  ARG150      0.2205
     51  NE        11.6960   -9.6520   20.7000 N.pl3 150  ARG150     -0.0865
     52  CZ        11.3300   -9.2540   21.9400 C.cat 150  ARG150      0.5346
     53  NH1       12.2520   -8.7920   22.7920 N.pl3 150  ARG150      0.1354
     54  NH2       10.0350   -9.2970   22.3390 N.pl3 150  ARG150      0.1354
     55  N         13.7910    3.3920   14.0350 N.3   186  TYR186     -0.1241
     56  CA        13.9750    2.5820   15.2470 C.3   186  TYR186      0.1605
     57  C         15.3080    1.8090   15.3220 C.2   186  TYR186      0.2264
     58  O         15.8510    1.3590   14.3220 O.2   186  TYR186     -0.2867
     59  CB        12.8340    1.5340   15.2530 C.3   186  TYR186      0.0534
     60  CG        12.9630    0.4590   16.2740 C.ar  186  TYR186     -0.0201
     61  CD1       12.8330    0.7650   17.6330 C.ar  186  TYR186     -0.0009
     62  CD2       13.1750   -0.8660   15.8930 C.ar  186  TYR186     -0.0009
     63  CE1       12.8990   -0.2100   18.5890 C.ar  186  TYR186      0.0417
     64  CE2       13.2350   -1.8830   16.8530 C.ar  186  TYR186      0.0417
     65  CZ        13.0900   -1.5220   18.2090 C.ar  186  TYR186      0.1957
     66  OH        13.1010   -2.4700   19.2010 O.3   186  TYR186     -0.2866
     67  N         16.7340   -1.3380   17.7630 N.3   188  ARG188     -0.1245
     68  CA        16.4810   -2.1240   18.9600 C.3   188  ARG188      0.1563
     69  C         17.6860   -2.1930   19.8540 C.2   188  ARG188      0.2260
     70  O         17.5640   -2.0980   21.0870 O.2   188  ARG188     -0.2867
     71  CB        16.1390   -3.5710   18.5940 C.3   188  ARG188      0.0307
     72  CG        15.7950   -4.4490   19.8220 C.3   188  ARG188      0.0489
     73  CD        15.4190   -5.9130   19.3800 C.3   188  ARG188      0.2205
     74  NE        14.2130   -5.9140   18.5420 N.pl3 188  ARG188     -0.0865
     75  CZ        12.9600   -5.8520   18.9850 C.cat 188  ARG188      0.5346
     76  NH1       12.6780   -5.7650   20.3050 N.pl3 188  ARG188      0.1354
     77  NH2       11.9630   -5.8420   18.0930 N.pl3 188  ARG188      0.1354
     78  N         11.0310    3.6630   26.2000 N.3   236  ALA236     -0.1245
     79  CA        10.2520    2.6870   26.9940 C.3   236  ALA236      0.1562
     80  C         11.0440    2.1270   28.1630 C.2   236  ALA236      0.2260
     81  O         10.6970    2.3340   29.3430 O.2   236  ALA236     -0.2867
     82  CB         9.8220    1.5080   26.1040 C.3   236  ALA236      0.0290
     83  N         11.0990    1.0890   32.8440 N.3   240  GLU240     -0.1245
     84  CA        10.6500   -0.2560   33.2770 C.3   240  GLU240      0.1567
     85  C         11.4950   -0.6940   34.4650 C.2   240  GLU240      0.2260
     86  O         12.2260   -1.7100   34.4140 O.2   240  GLU240     -0.2867
     87  CB        10.7500   -1.2370   32.0830 C.3   240  GLU240      0.0388
     88  CG         9.9190   -0.7130   30.9060 C.3   240  GLU240      0.1160
     89  CD        10.0650   -1.5530   29.6460 C.2   240  GLU240      0.3649
     90  OE1       10.9420   -2.4450   29.6450 O.co2 240  GLU240     -0.2457
     91  OE2        9.3170   -1.2970   28.6650 O.co2 240  GLU240     -0.2457
@<TRIPOS>BOND
     1    55    56    1
     2    58    57    2
     3    56    59    1
     4    56    57    1
     5    59    60    1
     6    47    46    2
     7    46    45    1
     8    62    60   ar
     9    62    64   ar
    10    44    45    1
    11    60    61   ar
    12    45    48    1
    13    64    65   ar
    14    61    63   ar
    15    67    68    1
    16    77    75    1
    17    48    49    1
    18    65    63   ar
    19    65    66    1
    20    74    75    2
    21    74    73    1
    22    35    33    1
    23    71    68    1
    24    71    72    1
    25    49    50    1
    26    68    69    1
    27    75    76    1
    28    32    31    2
    29    34    33    1
    30    73    72    1
    31    33    30    1
    32    30    31    1
    33    30    29    1
    34    69    70    2
    35    31    36   am
    36    26    25    2
    37    50    51    1
    38    51    52    2
    39    29    25   am
    40    25    24    1
    41    36    37    1
    42    22    19    1
    43    37    38    1
    44    37    40    1
    45    23    24    1
    46    23    20   am
    47    52    54    1
    48    52    53    1
    49    19    20    1
    50    19    18    1
    51    38    39    2
    52    24    27    1
    53    20    21    2
    54    40    41    1
    55    27    28    1
    56    42    41   ar
    57    41    43   ar
    58     8     6   ar
    59    82    79    1
    60    78    79    1
    61     6     7   ar
    62     6     5    1
    63     2     5    1
    64     2     1    1
    65     2     3    1
    66    79    80    1
    67     3     4    2
    68    80    81    2
    69    91    89   ar
    70    17    16    1
    71    16    15    1
    72     9    10    1
    73    90    89   ar
    74    89    88    1
    75    13    10    1
    76    13    14    1
    77    15    14    1
    78    10    11    1
    79    88    87    1
    80    11    12    2
    81    87    84    1
    82    83    84    1
    83    84    85    1
    84    86    85    2
