@<TRIPOS>MOLECULE
tmp/3vkcB01.pdb
 208 202 0 0 0
SMALL
GASTEIGER

@<TRIPOS>ATOM
      1  N          6.8080   23.2000  -12.8430 N.3    24  ILE24      -0.1245
      2  CA         6.1270   22.9640  -11.5750 C.3    24  ILE24       0.1561
      3  C          5.9590   24.3170  -10.9160 C.2    24  ILE24       0.2260
      4  O          6.9560   24.9960  -10.6490 O.2    24  ILE24      -0.2867
      5  CB         6.9900   22.0590  -10.6850 C.3    24  ILE24       0.0252
      6  CG1        7.0940   20.6800  -11.3440 C.3    24  ILE24       0.0019
      7  CG2        6.3440   21.8850   -9.2990 C.3    24  ILE24       0.0019
      8  CD1        8.4080   19.9520  -10.8870 C.3    24  ILE24       0.0001
      9  N          3.0560   22.1470   -6.8370 N.3    53  ALA53      -0.1231
     10  CA         3.7490   21.3520   -5.8280 C.3    53  ALA53       0.1694
     11  C          4.5380   22.1610   -4.8730 C.2    53  ALA53       0.2593
     12  O          5.1330   23.1800   -5.2460 O.2    53  ALA53      -0.2718
     13  CB         4.7000   20.3100   -6.5650 C.3    53  ALA53       0.0304
     14  N          4.6080   21.6890   -3.6310 N.am   54  SER54      -0.1938
     15  CA         5.4220   22.3740   -2.6380 C.3    54  SER54       0.2055
     16  C          5.7230   21.3690   -1.5260 C.2    54  SER54       0.2643
     17  O          4.9380   20.4680   -1.2640 O.2    54  SER54      -0.2714
     18  CB         4.6280   23.5440   -2.0510 C.3    54  SER54       0.2130
     19  OG         5.4920   24.2760   -1.2190 O.3    54  SER54      -0.2179
     20  N          6.8220   21.5930   -0.8260 N.am   55  THR55      -0.1950
     21  CA         7.1750   20.7280    0.3040 C.3    55  THR55       0.1897
     22  C          6.3200   21.1630    1.5170 C.2    55  THR55       0.2313
     23  O          5.9670   20.3570    2.4000 O.2    55  THR55      -0.2863
     24  CB         8.6590   20.9410    0.6580 C.3    55  THR55       0.1794
     25  OG1        9.4730   20.4850   -0.4590 O.3    55  THR55      -0.2208
     26  CG2        9.0230   20.2160    1.9800 C.3    55  THR55       0.0378
     27  N          1.0250   17.8750   -6.2420 N.3    82  HIS82      -0.1226
     28  CA         2.0470   16.9880   -5.6350 C.3    82  HIS82       0.1752
     29  C          2.5230   17.6200   -4.3490 C.2    82  HIS82       0.2596
     30  O          3.3170   18.6020   -4.3820 O.2    82  HIS82      -0.2718
     31  CB         3.2120   16.8170   -6.6080 C.3    82  HIS82       0.0759
     32  CG         4.2120   15.7950   -6.1460 C.ar   82  HIS82       0.0818
     33  ND1        5.4850   15.7210   -6.6710 N.ar   82  HIS82      -0.2268
     34  CD2        4.1100   14.8020   -5.2180 C.ar   82  HIS82       0.1154
     35  CE1        6.1250   14.7010   -6.0960 C.ar   82  HIS82       0.1986
     36  NE2        5.3170   14.1300   -5.2080 N.ar   82  HIS82      -0.2212
     37  N          2.0420   17.0610   -3.2310 N.am   83  PHE83      -0.1963
     38  CA         2.3830   17.5410   -1.8920 C.3    83  PHE83       0.1756
     39  C          2.5700   16.3640   -0.9500 C.2    83  PHE83       0.2461
     40  O          1.9800   15.3520   -1.1470 O.2    83  PHE83      -0.2730
     41  CB         1.2220   18.3940   -1.3610 C.3    83  PHE83       0.0574
     42  CG         0.9690   19.6320   -2.1970 C.ar   83  PHE83      -0.0200
     43  CD1        0.1140   19.5610   -3.2740 C.ar   83  PHE83      -0.0042
     44  CD2        1.6300   20.8160   -1.8870 C.ar   83  PHE83      -0.0042
     45  CE1       -0.1320   20.6640   -4.0820 C.ar   83  PHE83      -0.0003
     46  CE2        1.3980   21.9720   -2.6830 C.ar   83  PHE83      -0.0003
     47  CZ         0.5110   21.8880   -3.7820 C.ar   83  PHE83      -0.0000
     48  N          3.3530   16.5240    0.0910 N.am   84  PRO84      -0.2727
     49  CA         3.5260   15.4010    1.0390 C.3    84  PRO84       0.1402
     50  C          2.2960   15.3050    1.9130 C.2    84  PRO84       0.2269
     51  O          1.5340   16.2850    2.1020 O.2    84  PRO84      -0.2865
     52  CB         4.7330   15.8070    1.8600 C.3    84  PRO84       0.0296
     53  CG         4.7000   17.3860    1.8360 C.3    84  PRO84       0.0237
     54  CD         4.2300   17.6830    0.3940 C.3    84  PRO84       0.0939
     55  N          2.9650   10.2290   -3.6650 N.3   103  PRO103     -0.2116
     56  CA         4.3330    9.7060   -3.4960 C.3   103  PRO103      0.1372
     57  C          4.4410    8.6860   -2.3630 C.2   103  PRO103      0.2244
     58  O          4.1590    9.0240   -1.2210 O.2   103  PRO103     -0.2868
     59  CB         5.1670   10.9530   -3.2080 C.3   103  PRO103      0.0268
     60  CG         4.1800   11.9040   -2.4540 C.3   103  PRO103      0.0207
     61  CD         2.8560   11.6610   -3.2530 C.3   103  PRO103      0.0892
     62  N          7.1590    7.0690   -0.3910 N.3   105  LEU105     -0.1245
     63  CA         8.5680    7.4050   -0.2020 C.3   105  LEU105      0.1561
     64  C          9.2670    6.1540    0.2900 C.2   105  LEU105      0.2260
     65  O          9.5040    5.9640    1.4970 O.2   105  LEU105     -0.2867
     66  CB         8.6440    8.6000    0.7830 C.3   105  LEU105      0.0270
     67  CG         8.1070    9.8960    0.1130 C.3   105  LEU105      0.0019
     68  CD1        7.4290   10.8030    1.1700 C.3   105  LEU105      0.0001
     69  CD2        9.2310   10.6250   -0.5160 C.3   105  LEU105      0.0001
     70  N          8.3870    7.4980   -4.9220 N.3   142  ALA142     -0.1231
     71  CA         9.1260    8.7610   -4.8200 C.3   142  ALA142      0.1694
     72  C         10.4290    8.5350   -4.1230 C.2   142  ALA142      0.2592
     73  O         10.4440    8.0410   -3.0070 O.2   142  ALA142     -0.2718
     74  CB         8.2680    9.7890   -4.0720 C.3   142  ALA142      0.0304
     75  N         11.5200    8.9110   -4.7850 N.am  143  LEU143     -0.1966
     76  CA        12.8720    8.6560   -4.2640 C.3   143  LEU143      0.1728
     77  C         13.6910    9.9160   -4.2450 C.2   143  LEU143      0.2616
     78  O         13.5680   10.7450   -5.1350 O.2   143  LEU143     -0.2715
     79  CB        13.5480    7.5990   -5.1580 C.3   143  LEU143      0.0311
     80  CG        12.8210    6.2400   -5.1450 C.3   143  LEU143      0.0022
     81  CD1       13.4700    5.3130   -6.1710 C.3   143  LEU143      0.0001
     82  CD2       12.8490    5.6120   -3.7800 C.3   143  LEU143      0.0001
     83  N         14.5490   10.0600   -3.2410 N.am  144  THR144     -0.1951
     84  CA        15.3460   11.2680   -3.0910 C.3   144  THR144      0.1897
     85  C         16.8240   10.9760   -3.2060 C.2   144  THR144      0.2313
     86  O         17.2930    9.9160   -2.7750 O.2   144  THR144     -0.2863
     87  CB        15.0920   11.9910   -1.7370 C.3   144  THR144      0.1794
     88  OG1       15.5350   11.2140   -0.6120 O.3   144  THR144     -0.2208
     89  CG2       13.5750   12.2450   -1.5680 C.3   144  THR144      0.0378
     90  N         14.1520   17.3120    3.6700 N.3   151  THR151     -0.1218
     91  CA        13.1740   16.2480    3.4210 C.3   151  THR151      0.1862
     92  C         13.3480   15.1410    4.4260 C.2   151  THR151      0.2287
     93  O         12.3840   14.4780    4.8370 O.2   151  THR151     -0.2866
     94  CB        13.2990   15.6870    1.9770 C.3   151  THR151      0.1770
     95  OG1       13.4010   16.7680    1.0470 O.3   151  THR151     -0.2211
     96  CG2       12.0680   14.8910    1.6240 C.3   151  THR151      0.0375
     97  N         10.0630   14.1030    6.2650 N.3   155  LEU155     -0.1245
     98  CA         9.4710   12.8540    5.7650 C.3   155  LEU155      0.1561
     99  C         10.2490   11.5920    6.0330 C.2   155  LEU155      0.2260
    100  O          9.8030   10.4780    5.6360 O.2   155  LEU155     -0.2867
    101  CB         9.2510   12.9340    4.2190 C.3   155  LEU155      0.0270
    102  CG         8.6580   14.2550    3.7130 C.3   155  LEU155      0.0019
    103  CD1        8.5360   14.1590    2.1730 C.3   155  LEU155      0.0001
    104  CD2        7.2620   14.5440    4.3550 C.3   155  LEU155      0.0001
    105  N          9.2060    8.8980   -9.4390 N.3   184  TYR184     -0.1241
    106  CA         9.6390   10.2720   -9.4040 C.3   184  TYR184      0.1605
    107  C         10.9920   10.3020   -8.7220 C.2   184  TYR184      0.2264
    108  O         11.0850    9.9760   -7.5150 O.2   184  TYR184     -0.2867
    109  CB         8.5870   11.0750   -8.5660 C.3   184  TYR184      0.0534
    110  CG         8.6050   12.5830   -8.8050 C.ar  184  TYR184     -0.0201
    111  CD1        9.6490   13.3600   -8.3040 C.ar  184  TYR184     -0.0009
    112  CD2        7.5830   13.1870   -9.5370 C.ar  184  TYR184     -0.0009
    113  CE1        9.6810   14.7340   -8.5480 C.ar  184  TYR184      0.0417
    114  CE2        7.6140   14.5830   -9.8000 C.ar  184  TYR184      0.0417
    115  CZ         8.6500   15.3010   -9.3010 C.ar  184  TYR184      0.1957
    116  OH         8.6480   16.6420   -9.5720 O.3   184  TYR184     -0.2866
    117  N         13.9660   12.6180   -7.3830 N.3   186  TYR186     -0.1227
    118  CA        14.1600   14.0350   -7.0570 C.3   186  TYR186      0.1736
    119  C         15.4410   14.2770   -6.2880 C.2   186  TYR186      0.2596
    120  O         15.8650   13.4180   -5.5190 O.2   186  TYR186     -0.2718
    121  CB        12.9800   14.4380   -6.1360 C.3   186  TYR186      0.0548
    122  CG        13.1530   15.7090   -5.3450 C.ar  186  TYR186     -0.0200
    123  CD1       13.1360   16.9510   -5.9820 C.ar  186  TYR186     -0.0009
    124  CD2       13.2840   15.6490   -3.9460 C.ar  186  TYR186     -0.0009
    125  CE1       13.2380   18.1470   -5.2190 C.ar  186  TYR186      0.0417
    126  CE2       13.3600   16.8350   -3.1900 C.ar  186  TYR186      0.0417
    127  CZ        13.3340   18.0470   -3.8430 C.ar  186  TYR186      0.1957
    128  OH        13.3990   19.2230   -3.1180 O.3   186  TYR186     -0.2866
    129  N         16.0780   15.4110   -6.5540 N.am  187  SER187     -0.1938
    130  CA        17.2240   15.8050   -5.7010 C.3   187  SER187      0.2055
    131  C         17.0030   17.2660   -5.2710 C.2   187  SER187      0.2642
    132  O         16.9330   18.1740   -6.1170 O.2   187  SER187     -0.2714
    133  CB        18.5580   15.7320   -6.4760 C.3   187  SER187      0.2130
    134  OG        19.6120   16.0090   -5.5470 O.3   187  SER187     -0.2179
    135  N         16.9570   17.5130   -3.9740 N.am  188  ARG188     -0.1977
    136  CA        16.7670   18.9100   -3.5300 C.3   188  ARG188      0.1597
    137  C         18.0370   19.7110   -3.7110 C.2   188  ARG188      0.2287
    138  O         17.9830   20.8860   -4.1940 O.2   188  ARG188     -0.2864
    139  CB        16.3720   18.9430   -2.0360 C.3   188  ARG188      0.0334
    140  CG        16.0220   20.4110   -1.5700 C.3   188  ARG188      0.0492
    141  CD        15.5990   20.4230   -0.1120 C.3   188  ARG188      0.2205
    142  NE        14.3930   19.6250    0.1470 N.pl3 188  ARG188     -0.0865
    143  CZ        13.1450   20.0280   -0.0970 C.cat 188  ARG188      0.5346
    144  NH1       12.9020   21.2340   -0.6140 N.pl3 188  ARG188      0.1354
    145  NH2       12.1660   19.2180    0.2140 N.pl3 188  ARG188      0.1354
    146  N         13.3620   15.3540  -11.3170 N.3   213  SER213     -0.1202
    147  CA        13.4020   16.8130  -11.0510 C.3   213  SER213      0.2020
    148  C         14.4290   17.1370  -10.0200 C.2   213  SER213      0.2619
    149  O         14.9310   16.2220   -9.2810 O.2   213  SER213     -0.2717
    150  CB        12.0500   17.3880  -10.5700 C.3   213  SER213      0.2103
    151  OG        11.8460   17.1170   -9.2160 O.3   213  SER213     -0.2182
    152  N         14.7570   18.4500   -9.9600 N.am  214  GLY214     -0.1942
    153  CA        15.6740   18.9630   -8.9440 C.3   214  GLY214      0.2014
    154  C         16.8390   19.6910   -9.5990 C.2   214  GLY214      0.2639
    155  O         17.6810   19.0730  -10.2590 O.2   214  GLY214     -0.2714
    156  N         16.8600   20.9960   -9.4370 N.am  215  ASN215     -0.1958
    157  CA        17.9560   21.8040   -9.9750 C.3   215  ASN215      0.1819
    158  C         18.1730   21.7750  -11.4570 C.2   215  ASN215      0.2621
    159  O         19.3010   21.9730  -11.9450 O.2   215  ASN215     -0.2715
    160  CB        19.2270   21.4690   -9.2120 C.3   215  ASN215      0.1195
    161  CG        19.0410   21.7420   -7.7330 C.2   215  ASN215      0.2630
    162  OD1       18.6650   22.8830   -7.3540 O.2   215  ASN215     -0.2716
    163  ND2       19.1830   20.7240   -6.8910 N.am  215  ASN215     -0.0877
    164  N         17.0840   21.5460  -12.1840 N.am  216  VAL216     -0.1977
    165  CA        17.1190   21.6260  -13.6340 C.3   216  VAL216      0.1596
    166  C         16.9320   23.1140  -14.0030 C.2   216  VAL216      0.2287
    167  O         15.9050   23.7340  -13.7270 O.2   216  VAL216     -0.2864
    168  CB        15.9920   20.8030  -14.2350 C.3   216  VAL216      0.0276
    169  CG1       15.9460   21.0220  -15.7480 C.3   216  VAL216      0.0022
    170  CG2       16.2680   19.3210  -13.9380 C.3   216  VAL216      0.0022
    171  N         11.0300   17.7950  -14.5580 N.3   234  GLY234     -0.1210
    172  CA        10.3710   18.9020  -13.9200 C.3   234  GLY234      0.1956
    173  C         11.3040   19.9920  -13.4910 C.2   234  GLY234      0.2612
    174  O         12.4750   19.7360  -13.2350 O.2   234  GLY234     -0.2717
    175  N         10.7810   21.2110  -13.4150 N.am  235  PHE235     -0.1962
    176  CA        11.5930   22.3280  -12.9610 C.3   235  PHE235      0.1771
    177  C         10.6480   23.3950  -12.3740 C.2   235  PHE235      0.2619
    178  O          9.5860   23.7070  -12.9360 O.2   235  PHE235     -0.2715
    179  CB        12.4290   22.9230  -14.1140 C.3   235  PHE235      0.0574
    180  CG        11.6100   23.4810  -15.2720 C.ar  235  PHE235     -0.0200
    181  CD1       10.9850   22.6300  -16.1830 C.ar  235  PHE235     -0.0042
    182  CD2       11.4740   24.9020  -15.4420 C.ar  235  PHE235     -0.0042
    183  CE1       10.2150   23.1550  -17.2560 C.ar  235  PHE235     -0.0003
    184  CE2       10.7200   25.4280  -16.5180 C.ar  235  PHE235     -0.0003
    185  CZ        10.0770   24.5600  -17.4360 C.ar  235  PHE235     -0.0000
    186  N         11.0300   23.8540  -11.1800 N.am  236  ALA236     -0.1963
    187  CA        10.2590   24.8800  -10.5110 C.3   236  ALA236      0.1728
    188  C         11.0970   26.1340  -10.3510 C.2   236  ALA236      0.2617
    189  O         10.8060   27.2130  -10.9180 O.2   236  ALA236     -0.2715
    190  CB         9.8020   24.3780   -9.0690 C.3   236  ALA236      0.0334
    191  N         12.1500   26.0010   -9.5500 N.am  237  GLY237     -0.1940
    192  CA        12.9310   27.1630   -9.2260 C.3   237  GLY237      0.2014
    193  C         13.4750   28.0380  -10.3200 C.2   237  GLY237      0.2638
    194  O         13.6090   29.2410  -10.1400 O.2   237  GLY237     -0.2714
    195  N         13.8400   27.4380  -11.4440 N.am  238  ALA238     -0.1977
    196  CA        14.3280   28.2640  -12.5450 C.3   238  ALA238      0.1597
    197  C         13.3680   29.4020  -12.9210 C.2   238  ALA238      0.2287
    198  O         13.8160   30.4370  -13.4580 O.2   238  ALA238     -0.2864
    199  CB        14.5170   27.3830  -13.8030 C.3   238  ALA238      0.0319
    200  N         11.2160   30.9750  -10.7190 N.3   240  GLU240     -0.1245
    201  CA        10.7660   31.7320   -9.5130 C.3   240  GLU240      0.1567
    202  C         11.5930   32.9920   -9.3860 C.2   240  GLU240      0.2260
    203  O         12.3360   33.1730   -8.4000 O.2   240  GLU240     -0.2867
    204  CB        10.9010   30.8400   -8.2830 C.3   240  GLU240      0.0388
    205  CG         9.9820   29.6060   -8.4310 C.3   240  GLU240      0.1160
    206  CD        10.0940   28.5670   -7.3110 C.2   240  GLU240      0.3649
    207  OE1       11.0220   28.6510   -6.4890 O.co2 240  GLU240     -0.2457
    208  OE2        9.2290   27.6680   -7.2230 O.co2 240  GLU240     -0.2457
@<TRIPOS>BOND
     1   185   183   ar
     2   185   184   ar
     3   183   181   ar
     4   184   182   ar
     5   181   180   ar
     6   169   168    1
     7   182   180   ar
     8   180   179    1
     9   171   172    1
    10   168   170    1
    11   168   165    1
    12   179   176    1
    13   166   167    2
    14   166   165    1
    15   172   173    1
    16   199   196    1
    17   165   164    1
    18   173   175   am
    19   173   174    2
    20   198   197    2
    21   175   176    1
    22   176   177    1
    23   178   177    2
    24   197   196    1
    25     1     2    1
    26   196   195    1
    27   177   186   am
    28   164   158   am
    29   159   158    2
    30     2     3    1
    31     2     5    1
    32   158   157    1
    33   195   193   am
    34     6     8    1
    35     6     5    1
    36   146   147    1
    37   186   187    1
    38   147   150    1
    39   147   148    1
    40   189   188    2
    41     3     4    2
    42   200   201    1
    43     5     7    1
    44   150   151    1
    45   187   188    1
    46   187   190    1
    47   188   191   am
    48   193   194    2
    49   193   192    1
    50   155   154    2
    51   148   152   am
    52   148   149    2
    53   157   156    1
    54   157   160    1
    55   152   153    1
    56   114   112   ar
    57   114   115   ar
    58   154   156   am
    59   154   153    1
    60   116   115    1
    61   191   192    1
    62   112   110   ar
    63   201   202    1
    64   201   204    1
    65   105   106    1
    66   106   107    1
    67   106   109    1
    68   202   203    2
    69   115   113   ar
    70   160   161    1
    71   110   109    1
    72   110   111   ar
    73   107   108    2
    74   113   111   ar
    75   205   204    1
    76   205   206    1
    77   161   162    2
    78   161   163   am
    79   117   118    1
    80   206   208   ar
    81   206   207   ar
    82   118   119    1
    83   118   121    1
    84     9    10    1
    85    33    32   ar
    86    33    35   ar
    87    31    32    1
    88    31    28    1
    89    13    10    1
    90   129   119   am
    91   129   130    1
    92   133   130    1
    93   133   134    1
    94   119   120    2
    95    27    28    1
    96    81    80    1
    97    32    34   ar
    98   121   122    1
    99   132   131    2
   100    35    36   ar
   101   123   122   ar
   102   123   125   ar
   103    10    11    1
   104   130   131    1
   105    28    29    1
   106   122   124   ar
   107   131   135   am
   108    12    11    2
   109   125   127   ar
   110    34    36   ar
   111    79    80    1
   112    79    76    1
   113    80    82    1
   114    78    77    2
   115    70    71    1
   116    11    14   am
   117    71    72    1
   118    71    74    1
   119    75    76    1
   120    75    72   am
   121    30    29    2
   122    29    37   am
   123    76    77    1
   124    77    83   am
   125   138   137    2
   126    72    73    2
   127    45    47   ar
   128    45    43   ar
   129   135   136    1
   130   124   126   ar
   131   127   126   ar
   132   127   128    1
   133    47    46   ar
   134   137   136    1
   135    55    56    1
   136    55    61    1
   137    14    15    1
   138   136   139    1
   139    56    59    1
   140    56    57    1
   141    43    42   ar
   142    61    60    1
   143    83    84    1
   144    37    38    1
   145    59    60    1
   146    85    84    1
   147    85    86    2
   148    84    87    1
   149    46    44   ar
   150    15    18    1
   151    15    16    1
   152    57    58    2
   153    42    44   ar
   154    42    41    1
   155    18    19    1
   156   139   140    1
   157    38    41    1
   158    38    39    1
   159    87    89    1
   160    87    88    1
   161   140   141    1
   162    16    17    2
   163    16    20   am
   164    40    39    2
   165    39    48   am
   166    20    21    1
   167   144   143    1
   168    69    67    1
   169    25    24    1
   170    62    63    1
   171    63    64    1
   172    63    66    1
   173   141   142    1
   174   143   142    2
   175   143   145    1
   176    48    54    1
   177    48    49    1
   178    67    66    1
   179    67    68    1
   180    64    65    2
   181    21    24    1
   182    21    22    1
   183    54    53    1
   184    24    26    1
   185    49    52    1
   186    49    50    1
   187    95    94    1
   188    22    23    2
   189    96    94    1
   190    53    52    1
   191    50    51    2
   192    94    91    1
   193   103   102    1
   194    91    90    1
   195    91    92    1
   196   102   101    1
   197   102   104    1
   198   101    98    1
   199    92    93    2
   200   100    99    2
   201    98    99    1
   202    98    97    1
