@<TRIPOS>MOLECULE
tmp/3vkkA02.pdb
 157 156 0 0 0
SMALL
GASTEIGER

@<TRIPOS>ATOM
      1  N        -21.4330   -6.2800   10.8340 N.3    17  GLN17      -0.1245
      2  CA       -22.1020   -5.6410   11.9680 C.3    17  GLN17       0.1566
      3  C        -22.1610   -6.4550   13.2600 C.2    17  GLN17       0.2260
      4  O        -22.1990   -5.8510   14.3670 O.2    17  GLN17      -0.2867
      5  CB       -23.4890   -5.1670   11.5540 C.3    17  GLN17       0.0367
      6  CG       -23.3470   -4.2510   10.3570 C.3    17  GLN17       0.0905
      7  CD       -24.6050   -3.5020    9.9900 C.2    17  GLN17       0.2608
      8  OE1      -24.9470   -2.4320   10.5840 O.2    17  GLN17      -0.2717
      9  NE2      -25.2970   -4.0230    8.9840 N.am   17  GLN17      -0.0878
     10  N        -22.9810   -7.8100    1.8130 N.3   120  HIS120     -0.1226
     11  CA       -23.6290   -6.7570    2.5940 C.3   120  HIS120      0.1752
     12  C        -22.5800   -5.6790    2.9440 C.2   120  HIS120      0.2596
     13  O        -22.0180   -5.6660    4.0350 O.2   120  HIS120     -0.2718
     14  CB       -24.3100   -7.3830    3.8320 C.3   120  HIS120      0.0759
     15  CG       -25.2150   -6.4430    4.5530 C.ar  120  HIS120      0.0818
     16  ND1      -26.5260   -6.7440    4.8360 N.ar  120  HIS120     -0.2268
     17  CD2      -24.9880   -5.2040    5.0580 C.ar  120  HIS120      0.1154
     18  CE1      -27.0780   -5.7250    5.4840 C.ar  120  HIS120      0.1986
     19  NE2      -26.1700   -4.7730    5.6200 N.ar  120  HIS120     -0.2212
     20  N        -22.2910   -4.8390    1.9580 N.am  121  PHE121     -0.1976
     21  CA       -21.3900   -3.6960    2.0940 C.3   121  PHE121      0.1639
     22  C        -19.9430   -4.0670    2.3610 C.2   121  PHE121      0.2290
     23  O        -19.1360   -3.1580    2.5690 O.2   121  PHE121     -0.2864
     24  CB       -21.8430   -2.7050    3.2370 C.3   121  PHE121      0.0560
     25  CG       -23.1800   -2.1030    3.0550 C.ar  121  PHE121     -0.0200
     26  CD1      -23.8260   -2.0830    1.8230 C.ar  121  PHE121     -0.0042
     27  CD2      -23.8090   -1.4690    4.1400 C.ar  121  PHE121     -0.0042
     28  CE1      -25.0670   -1.5000    1.6850 C.ar  121  PHE121     -0.0003
     29  CE2      -25.0570   -0.8660    3.9920 C.ar  121  PHE121     -0.0003
     30  CZ       -25.6820   -0.8690    2.7880 C.ar  121  PHE121     -0.0000
     31  N        -26.9890   -6.5550   -0.7330 N.3   164  ASN164     -0.1225
     32  CA       -27.7130   -5.6490    0.1620 C.3   164  ASN164      0.1785
     33  C        -27.6260   -4.2000   -0.3260 C.2   164  ASN164      0.2597
     34  O        -26.5170   -3.6550   -0.4880 O.2   164  ASN164     -0.2718
     35  CB       -27.1610   -5.7400    1.5960 C.3   164  ASN164      0.1169
     36  CG       -27.9090   -4.8390    2.5460 C.2   164  ASN164      0.2627
     37  OD1      -27.4240   -3.7710    2.9540 O.2   164  ASN164     -0.2716
     38  ND2      -29.1390   -5.1830    2.7840 N.am  164  ASN164     -0.0877
     39  N        -28.7960   -3.6140   -0.5790 N.am  165  GLN165     -0.1979
     40  CA       -28.9560   -2.1700   -0.8110 C.3   165  GLN165      0.1601
     41  C        -27.9040   -1.6350   -1.7790 C.2   165  GLN165      0.2287
     42  O        -27.1370   -0.7380   -1.4230 O.2   165  GLN165     -0.2864
     43  CB       -28.8850   -1.4260    0.5340 C.3   165  GLN165      0.0394
     44  CG       -30.1100   -1.7980    1.3950 C.3   165  GLN165      0.0908
     45  CD       -30.0470   -1.2340    2.7550 C.2   165  GLN165      0.2608
     46  OE1      -30.5980   -1.9100    3.6890 O.2   165  GLN165     -0.2717
     47  NE2      -29.4790   -0.1260    2.9020 N.am  165  GLN165     -0.0878
     48  N        -27.6210    2.2130   -1.9860 N.3   168  VAL168     -0.1245
     49  CA       -26.8620    2.8570   -0.8990 C.3   168  VAL168      0.1561
     50  C        -25.3810    2.5930   -1.0150 C.2   168  VAL168      0.2260
     51  O        -24.5600    3.5200   -0.8720 O.2   168  VAL168     -0.2867
     52  CB       -27.3320    2.3880    0.5030 C.3   168  VAL168      0.0252
     53  CG1      -26.2950    2.7390    1.6410 C.3   168  VAL168      0.0019
     54  CG2      -28.5970    3.0550    0.7760 C.3   168  VAL168      0.0019
     55  N        -18.2910    5.4380    2.9200 N.3   179  PHE179     -0.1241
     56  CA       -18.0170    4.0390    3.2460 C.3   179  PHE179      0.1605
     57  C        -16.6920    3.6880    2.5670 C.2   179  PHE179      0.2264
     58  O        -16.3010    4.3360    1.6000 O.2   179  PHE179     -0.2867
     59  CB       -19.0920    3.1240    2.6140 C.3   179  PHE179      0.0534
     60  CG       -20.3500    2.9480    3.4280 C.ar  179  PHE179     -0.0203
     61  CD1      -20.6150    3.7230    4.5690 C.ar  179  PHE179     -0.0042
     62  CD2      -21.3000    2.0050    3.0070 C.ar  179  PHE179     -0.0042
     63  CE1      -21.7990    3.5260    5.2940 C.ar  179  PHE179     -0.0003
     64  CE2      -22.4790    1.8200    3.7090 C.ar  179  PHE179     -0.0003
     65  CZ       -22.7350    2.5760    4.8510 C.ar  179  PHE179     -0.0000
     66  N        -32.6230    0.1170   -0.7000 N.3   225  PHE225     -0.1241
     67  CA       -32.9250    1.1560    0.2680 C.3   225  PHE225      0.1605
     68  C        -33.9700    2.0880   -0.3890 C.2   225  PHE225      0.2264
     69  O        -33.8230    2.5230   -1.5560 O.2   225  PHE225     -0.2867
     70  CB       -31.5740    1.7870    0.5090 C.3   225  PHE225      0.0534
     71  CG       -31.5410    3.0020    1.3720 C.ar  225  PHE225     -0.0203
     72  CD1      -30.8760    2.9390    2.6260 C.ar  225  PHE225     -0.0042
     73  CD2      -31.9480    4.2480    0.8710 C.ar  225  PHE225     -0.0042
     74  CE1      -30.7250    4.0950    3.4130 C.ar  225  PHE225     -0.0003
     75  CE2      -31.8280    5.4070    1.6530 C.ar  225  PHE225     -0.0003
     76  CZ       -31.2210    5.3350    2.9230 C.ar  225  PHE225     -0.0000
     77  N        -35.7750   -2.0580    1.8440 N.3   307  GLN307     -0.1245
     78  CA       -35.5270   -1.5560    3.1750 C.3   307  GLN307      0.1566
     79  C        -36.2640   -0.2300    3.2820 C.2   307  GLN307      0.2260
     80  O        -36.2700    0.5510    2.3450 O.2   307  GLN307     -0.2867
     81  CB       -34.0400   -1.4020    3.4350 C.3   307  GLN307      0.0367
     82  CG       -33.6550   -0.7360    4.8410 C.3   307  GLN307      0.0905
     83  CD       -33.5640    0.7930    4.8470 C.2   307  GLN307      0.2608
     84  OE1      -33.4500    1.4270    5.9310 O.2   307  GLN307     -0.2717
     85  NE2      -33.6370    1.3940    3.6730 N.am  307  GLN307     -0.0878
     86  N        -36.8480    2.9260    6.3290 N.3   309  TYR309     -0.1241
     87  CA       -36.7800    3.4760    7.7060 C.3   309  TYR309      0.1605
     88  C        -37.5890    4.7780    7.8960 C.2   309  TYR309      0.2264
     89  O        -38.1880    5.0050    8.9700 O.2   309  TYR309     -0.2867
     90  CB       -35.3530    3.8430    8.1150 C.3   309  TYR309      0.0534
     91  CG       -34.3820    2.7780    8.5580 C.ar  309  TYR309     -0.0201
     92  CD1      -34.7770    1.4820    8.9630 C.ar  309  TYR309     -0.0009
     93  CD2      -33.0220    3.1100    8.6460 C.ar  309  TYR309     -0.0009
     94  CE1      -33.8300    0.5550    9.3770 C.ar  309  TYR309      0.0417
     95  CE2      -32.0770    2.1930    9.0220 C.ar  309  TYR309      0.0417
     96  CZ       -32.4750    0.9200    9.4090 C.ar  309  TYR309      0.1957
     97  OH       -31.4610    0.0510    9.8290 O.3   309  TYR309     -0.2866
     98  N        -30.7310    9.9570   11.6100 N.3   345  TRP345     -0.1241
     99  CA       -31.4830   10.2410   10.3890 C.3   345  TRP345      0.1605
    100  C        -32.8410    9.5250   10.2880 C.2   345  TRP345      0.2264
    101  O        -33.5510    9.6650    9.2740 O.2   345  TRP345     -0.2867
    102  CB       -30.6130    9.9390    9.1440 C.3   345  TRP345      0.0550
    103  CG       -30.1570    8.4990    9.0280 C.ar  345  TRP345      0.0003
    104  CD1      -29.1200    7.8890    9.7100 C.ar  345  TRP345      0.0946
    105  CD2      -30.7080    7.4940    8.1640 C.ar  345  TRP345      0.0152
    106  NE1      -29.0110    6.5570    9.3230 N.ar  345  TRP345     -0.2442
    107  CE2      -29.9800    6.2910    8.3880 C.ar  345  TRP345      0.0810
    108  CE3      -31.7690    7.4810    7.2390 C.ar  345  TRP345      0.0012
    109  CZ2      -30.2740    5.0900    7.7030 C.ar  345  TRP345      0.0191
    110  CZ3      -32.0490    6.2680    6.5470 C.ar  345  TRP345      0.0001
    111  CH2      -31.3020    5.1070    6.7960 C.ar  345  TRP345      0.0015
    112  N        -35.3470   -5.0100    5.7740 N.3   373  GLU373     -0.1245
    113  CA       -34.8520   -4.2110    6.9080 C.3   373  GLU373      0.1567
    114  C        -35.8270   -3.0950    7.2260 C.2   373  GLU373      0.2260
    115  O        -36.2060   -2.2970    6.3530 O.2   373  GLU373     -0.2867
    116  CB       -33.4640   -3.5760    6.5860 C.3   373  GLU373      0.0388
    117  CG       -32.3410   -4.4010    7.1840 C.3   373  GLU373      0.1160
    118  CD       -30.9310   -3.9410    6.7670 C.2   373  GLU373      0.3649
    119  OE1      -30.5230   -2.7640    6.9950 O.co2 373  GLU373     -0.2457
    120  OE2      -30.2150   -4.7990    6.2620 O.co2 373  GLU373     -0.2457
    121  N        -34.7050   -4.8860   11.4560 N.3   417  TRP417     -0.1241
    122  CA       -33.3310   -4.5340   11.7710 C.3   417  TRP417      0.1605
    123  C        -33.3180   -3.9180   13.1780 C.2   417  TRP417      0.2264
    124  O        -33.8410   -2.8110   13.3420 O.2   417  TRP417     -0.2867
    125  CB       -32.8350   -3.4690   10.7860 C.3   417  TRP417      0.0550
    126  CG       -31.3760   -3.2590   11.0750 C.ar  417  TRP417      0.0003
    127  CD1      -30.8000   -2.2650   11.8510 C.ar  417  TRP417      0.0946
    128  CD2      -30.3150   -4.1490   10.6910 C.ar  417  TRP417      0.0152
    129  NE1      -29.4300   -2.4990   11.9460 N.ar  417  TRP417     -0.2442
    130  CE2      -29.1140   -3.6250   11.2170 C.ar  417  TRP417      0.0810
    131  CE3      -30.2660   -5.3180    9.9090 C.ar  417  TRP417      0.0012
    132  CZ2      -27.8910   -4.2490   11.0200 C.ar  417  TRP417      0.0191
    133  CZ3      -29.0550   -5.9160    9.6820 C.ar  417  TRP417      0.0001
    134  CH2      -27.8750   -5.3800   10.2320 C.ar  417  TRP417      0.0015
    135  N        -23.2040    0.0490   13.7910 N.3   424  GLU424     -0.1231
    136  CA       -24.0130    0.7850   12.8270 C.3   424  GLU424      0.1699
    137  C        -23.1030    1.6070   11.9410 C.2   424  GLU424      0.2592
    138  O        -23.1500    2.8350   11.9400 O.2   424  GLU424     -0.2718
    139  CB       -25.0950    1.6510   13.5280 C.3   424  GLU424      0.0402
    140  CG       -26.0560    2.4650   12.6180 C.3   424  GLU424      0.1161
    141  CD       -26.8210    1.6440   11.5390 C.2   424  GLU424      0.3649
    142  OE1      -27.0520    0.4240   11.7410 O.co2 424  GLU424     -0.2457
    143  OE2      -27.2160    2.2530   10.5040 O.co2 424  GLU424     -0.2457
    144  N        -22.2430    0.9170   11.2020 N.am  425  TRP425     -0.1976
    145  CA       -21.3550    1.5240   10.2130 C.3   425  TRP425      0.1640
    146  C        -20.6590    2.7690   10.8330 C.2   425  TRP425      0.2290
    147  O        -20.0160    2.6420   11.8910 O.2   425  TRP425     -0.2864
    148  CB       -22.1090    1.8310    8.9070 C.3   425  TRP425      0.0576
    149  CG       -22.8250    0.5840    8.3620 C.ar  425  TRP425      0.0006
    150  CD1      -24.1720    0.4180    8.1750 C.ar  425  TRP425      0.0946
    151  CD2      -22.2110   -0.6570    8.0150 C.ar  425  TRP425      0.0152
    152  NE1      -24.4340   -0.8610    7.7020 N.ar  425  TRP425     -0.2442
    153  CE2      -23.2460   -1.5340    7.5760 C.ar  425  TRP425      0.0810
    154  CE3      -20.8860   -1.1120    7.9920 C.ar  425  TRP425      0.0012
    155  CZ2      -22.9860   -2.8440    7.1430 C.ar  425  TRP425      0.0191
    156  CZ3      -20.6320   -2.4220    7.5540 C.ar  425  TRP425      0.0001
    157  CH2      -21.6730   -3.2720    7.1590 C.ar  425  TRP425      0.0015
@<TRIPOS>BOND
     1    48    49    1
     2    41    42    2
     3    41    40    1
     4    69    68    2
     5    50    49    1
     6    50    51    2
     7    49    52    1
     8    40    39    1
     9    40    43    1
    10    31    32    1
    11    66    67    1
    12    39    33   am
    13    34    33    2
    14    68    67    1
    15    33    32    1
    16    32    35    1
    17    67    70    1
    18    52    54    1
    19    52    53    1
    20    70    71    1
    21    43    44    1
    22    73    71   ar
    23    73    75   ar
    24    71    72   ar
    25    44    45    1
    26    35    36    1
    27    58    57    2
    28    75    76   ar
    29    28    26   ar
    30    28    30   ar
    31    10    11    1
    32    26    25   ar
    33    77    78    1
    34    20    21    1
    35    20    12   am
    36    21    22    1
    37    21    24    1
    38    80    79    2
    39    22    23    2
    40    36    38   am
    41    36    37    2
    42    57    56    1
    43    11    12    1
    44    11    14    1
    45    59    56    1
    46    59    60    1
    47    72    74   ar
    48    45    47   am
    49    45    46    2
    50    30    29   ar
    51    55    56    1
    52    76    74   ar
    53    12    13    2
    54    62    60   ar
    55    62    64   ar
    56    25    24    1
    57    25    27   ar
    58    78    79    1
    59    78    81    1
    60    60    61   ar
    61    81    82    1
    62    85    83   am
    63    64    65   ar
    64    14    15    1
    65    29    27   ar
    66    15    16   ar
    67    15    17   ar
    68    61    63   ar
    69    16    18   ar
    70    82    83    1
    71    83    84    2
    72    65    63   ar
    73    17    19   ar
    74    18    19   ar
    75   112   113    1
    76   120   118   ar
    77    86    87    1
    78   115   114    2
    79   110   111   ar
    80   110   108   ar
    81   116   113    1
    82   116   117    1
    83   118   119   ar
    84   118   117    1
    85   111   109   ar
    86   113   114    1
    87   155   157   ar
    88   155   153   ar
    89   157   156   ar
    90   108   105   ar
    91   156   154   ar
    92   153   152   ar
    93   153   151   ar
    94   152   150   ar
    95   109   107   ar
    96    87    88    1
    97    87    90    1
    98    88    89    2
    99   154   151   ar
   100   151   149   ar
   101    90    91    1
   102   105   107   ar
   103   105   103   ar
   104   150   149   ar
   105   149   148    1
   106   107   106   ar
   107    91    93   ar
   108    91    92   ar
   109    93    95   ar
   110   148   145    1
   111    92    94   ar
   112     9     7   am
   113    95    96   ar
   114   103   102    1
   115   103   104   ar
   116   102    99    1
   117   101   100    2
   118   106   104   ar
   119    94    96   ar
   120    96    97    1
   121   133   131   ar
   122   133   134   ar
   123   131   128   ar
   124     7     6    1
   125     7     8    2
   126   145   146    1
   127   145   144    1
   128   134   132   ar
   129   100    99    1
   130     6     5    1
   131    99    98    1
   132   143   141   ar
   133   128   126   ar
   134   128   130   ar
   135   125   126    1
   136   125   122    1
   137   146   147    2
   138     1     2    1
   139   132   130   ar
   140   126   127   ar
   141   144   137   am
   142   130   129   ar
   143   121   122    1
   144   141   142   ar
   145   141   140    1
   146     5     2    1
   147   122   123    1
   148   127   129   ar
   149   138   137    2
   150   137   136    1
   151     2     3    1
   152   140   139    1
   153   136   139    1
   154   136   135    1
   155   123   124    2
   156     3     4    2
