@<TRIPOS>MOLECULE
tmp/3vkkA00.pdb
 150 144 0 0 0
SMALL
GASTEIGER

@<TRIPOS>ATOM
      1  N        -28.1210    0.2950   -4.0310 N.3   167  ASN167     -0.1225
      2  CA       -28.2590    1.7210   -4.3030 C.3   167  ASN167      0.1785
      3  C        -27.4790    2.5560   -3.2590 C.2   167  ASN167      0.2597
      4  O        -26.7630    3.4950   -3.6300 O.2   167  ASN167     -0.2718
      5  CB       -29.7280    2.1610   -4.5020 C.3   167  ASN167      0.1169
      6  CG       -30.6400    1.7410   -3.3670 C.2   167  ASN167      0.2627
      7  OD1      -30.3180    0.8200   -2.5570 O.2   167  ASN167     -0.2716
      8  ND2      -31.8110    2.3930   -3.3000 N.am  167  ASN167     -0.0877
      9  N        -27.6210    2.2130   -1.9860 N.am  168  VAL168     -0.1980
     10  CA       -26.8620    2.8570   -0.8990 C.3   168  VAL168      0.1595
     11  C        -25.3810    2.5930   -1.0150 C.2   168  VAL168      0.2287
     12  O        -24.5600    3.5200   -0.8720 O.2   168  VAL168     -0.2864
     13  CB       -27.3320    2.3880    0.5030 C.3   168  VAL168      0.0276
     14  CG1      -26.2950    2.7390    1.6410 C.3   168  VAL168      0.0022
     15  CG2      -28.5970    3.0550    0.7760 C.3   168  VAL168      0.0022
     16  N        -23.6250    1.9540   -3.7270 N.3   170  SER170     -0.1202
     17  CA       -23.0010    2.7050   -4.8230 C.3   170  SER170      0.2020
     18  C        -22.7760    4.1630   -4.4260 C.2   170  SER170      0.2619
     19  O        -21.7210    4.6940   -4.7250 O.2   170  SER170     -0.2717
     20  CB       -23.7990    2.6110   -6.1270 C.3   170  SER170      0.2103
     21  OG       -25.0620    3.2240   -5.9930 O.3   170  SER170     -0.2182
     22  N        -23.7340    4.7780   -3.7310 N.am  171  VAL171     -0.1965
     23  CA       -23.5980    6.1780   -3.2800 C.3   171  VAL171      0.1727
     24  C        -22.5440    6.3230   -2.1670 C.2   171  VAL171      0.2616
     25  O        -21.5860    7.0940   -2.3010 O.2   171  VAL171     -0.2715
     26  CB       -24.9720    6.7670   -2.8980 C.3   171  VAL171      0.0290
     27  CG1      -24.8330    8.1900   -2.2830 C.3   171  VAL171      0.0023
     28  CG2      -25.8000    6.8560   -4.1590 C.3   171  VAL171      0.0023
     29  N        -22.6880    5.5430   -1.1020 N.am  172  MET172     -0.1977
     30  CA       -21.8360    5.6780    0.0700 C.3   172  MET172      0.1605
     31  C        -20.4070    5.2740   -0.2040 C.2   172  MET172      0.2287
     32  O        -19.4670    5.9410    0.2890 O.2   172  MET172     -0.2864
     33  CB       -22.3950    4.9110    1.2680 C.3   172  MET172      0.0413
     34  CG       -23.6900    5.4000    1.7410 C.3   172  MET172      0.0598
     35  SD       -23.6040    7.1190    2.3400 S.3   172  MET172     -0.1393
     36  CE       -23.0030    6.7600    3.9830 C.3   172  MET172      0.0692
     37  N        -20.0920    9.3920   -2.5690 N.3   176  LEU176     -0.1245
     38  CA       -19.7470   10.2000   -1.4010 C.3   176  LEU176      0.1561
     39  C        -18.4470    9.7710   -0.7690 C.2   176  LEU176      0.2260
     40  O        -17.7510   10.5720   -0.1400 O.2   176  LEU176     -0.2867
     41  CB       -20.8490   10.1020   -0.3290 C.3   176  LEU176      0.0270
     42  CG       -22.2500   10.5300   -0.7610 C.3   176  LEU176      0.0019
     43  CD1      -23.2080   10.3420    0.4420 C.3   176  LEU176      0.0001
     44  CD2      -22.2280   11.9800   -1.2610 C.3   176  LEU176      0.0001
     45  N        -18.1450    7.9110    1.8290 N.3   178  MET178     -0.1245
     46  CA       -18.3330    7.8420    3.2690 C.3   178  MET178      0.1570
     47  C        -18.1040    6.4310    3.7960 C.2   178  MET178      0.2261
     48  O        -17.7900    6.2440    4.9630 O.2   178  MET178     -0.2867
     49  CB       -19.7320    8.3500    3.6510 C.3   178  MET178      0.0387
     50  CG       -19.9210    9.8710    3.4360 C.3   178  MET178      0.0595
     51  SD       -21.5180   10.5060    4.0100 S.3   178  MET178     -0.1393
     52  CE       -21.3860   10.2290    5.7800 C.3   178  MET178      0.0692
     53  N        -20.7510    6.7800   -8.1900 N.3   190  GLY190     -0.1210
     54  CA       -22.0230    6.1150   -7.8890 C.3   190  GLY190      0.1956
     55  C        -22.6140    5.4240   -9.1050 C.2   190  GLY190      0.2611
     56  O        -23.0050    4.2460   -9.0250 O.2   190  GLY190     -0.2717
     57  N        -22.7050    6.1430  -10.2400 N.am  191  TYR191     -0.1976
     58  CA       -23.2920    5.5430  -11.4500 C.3   191  TYR191      0.1639
     59  C        -22.4300    4.4030  -12.0450 C.2   191  TYR191      0.2290
     60  O        -22.9540    3.4130  -12.5320 O.2   191  TYR191     -0.2864
     61  CB       -23.5210    6.5920  -12.5270 C.3   191  TYR191      0.0560
     62  CG       -24.3570    7.7610  -12.1170 C.ar  191  TYR191     -0.0198
     63  CD1      -25.5700    7.5810  -11.4430 C.ar  191  TYR191     -0.0009
     64  CD2      -23.9780    9.0520  -12.4490 C.ar  191  TYR191     -0.0009
     65  CE1      -26.3720    8.6710  -11.0870 C.ar  191  TYR191      0.0417
     66  CE2      -24.7730   10.1640  -12.0790 C.ar  191  TYR191      0.0417
     67  CZ       -25.9450    9.9770  -11.3930 C.ar  191  TYR191      0.1957
     68  OH       -26.7260   11.0630  -11.0380 O.3   191  TYR191     -0.2866
     69  N        -22.9840    1.5090   -9.7040 N.3   194  ALA194     -0.1245
     70  CA       -24.3600    1.0050   -9.9430 C.3   194  ALA194      0.1562
     71  C        -24.4600    0.1120  -11.2030 C.2   194  ALA194      0.2260
     72  O        -25.1080   -0.9070  -11.2090 O.2   194  ALA194     -0.2867
     73  CB       -25.3010    2.1590  -10.0640 C.3   194  ALA194      0.0290
     74  N        -32.6230    0.1170   -0.7000 N.3   225  PHE225     -0.1241
     75  CA       -32.9250    1.1560    0.2680 C.3   225  PHE225      0.1605
     76  C        -33.9700    2.0880   -0.3890 C.2   225  PHE225      0.2264
     77  O        -33.8230    2.5230   -1.5560 O.2   225  PHE225     -0.2867
     78  CB       -31.5740    1.7870    0.5090 C.3   225  PHE225      0.0534
     79  CG       -31.5410    3.0020    1.3720 C.ar  225  PHE225     -0.0203
     80  CD1      -30.8760    2.9390    2.6260 C.ar  225  PHE225     -0.0042
     81  CD2      -31.9480    4.2480    0.8710 C.ar  225  PHE225     -0.0042
     82  CE1      -30.7250    4.0950    3.4130 C.ar  225  PHE225     -0.0003
     83  CE2      -31.8280    5.4070    1.6530 C.ar  225  PHE225     -0.0003
     84  CZ       -31.2210    5.3350    2.9230 C.ar  225  PHE225     -0.0000
     85  N        -36.4370    5.4520    0.6220 N.3   227  VAL227     -0.1245
     86  CA       -36.9610    6.5460    1.4760 C.3   227  VAL227      0.1561
     87  C        -38.2320    6.9760    0.7770 C.2   227  VAL227      0.2260
     88  O        -38.1980    7.2580   -0.4100 O.2   227  VAL227     -0.2867
     89  CB       -36.0190    7.7260    1.5490 C.3   227  VAL227      0.0252
     90  CG1      -36.5610    8.7900    2.5620 C.3   227  VAL227      0.0019
     91  CG2      -34.6090    7.2880    1.9380 C.3   227  VAL227      0.0019
     92  N        -34.9000    8.3100   -9.1820 N.3   249  PHE249     -0.1227
     93  CA       -33.4630    8.2960   -9.0870 C.3   249  PHE249      0.1736
     94  C        -32.9120    7.2740   -8.0880 C.2   249  PHE249      0.2595
     95  O        -31.9080    6.6600   -8.3600 O.2   249  PHE249     -0.2718
     96  CB       -32.8810    9.6820   -8.7530 C.3   249  PHE249      0.0547
     97  CG       -32.4120   10.4790   -9.9930 C.ar  249  PHE249     -0.0202
     98  CD1      -33.3350   11.1120  -10.8300 C.ar  249  PHE249     -0.0042
     99  CD2      -31.0590   10.5640  -10.3080 C.ar  249  PHE249     -0.0042
    100  CE1      -32.8960   11.8430  -11.9780 C.ar  249  PHE249     -0.0003
    101  CE2      -30.6120   11.2890  -11.4210 C.ar  249  PHE249     -0.0003
    102  CZ       -31.5330   11.9200  -12.2530 C.ar  249  PHE249     -0.0000
    103  N        -33.5090    7.1670   -6.9150 N.am  250  HIS250     -0.1975
    104  CA       -32.8220    6.4770   -5.8360 C.3   250  HIS250      0.1656
    105  C        -33.2260    5.0370   -5.7940 C.2   250  HIS250      0.2291
    106  O        -32.4440    4.2020   -5.3160 O.2   250  HIS250     -0.2864
    107  CB       -32.9600    7.1850   -4.4720 C.3   250  HIS250      0.0771
    108  CG       -34.1770    6.8240   -3.6750 C.ar  250  HIS250      0.0820
    109  ND1      -35.3830    7.4870   -3.8160 N.ar  250  HIS250     -0.2267
    110  CD2      -34.3540    5.9290   -2.6690 C.ar  250  HIS250      0.1154
    111  CE1      -36.2670    6.9760   -2.9720 C.ar  250  HIS250      0.1986
    112  NE2      -35.6570    6.0580   -2.2380 N.ar  250  HIS250     -0.2212
    113  N        -33.9670    3.5710  -10.3370 N.3   253  LEU253     -0.1231
    114  CA       -32.7330    3.4700  -11.1530 C.3   253  LEU253      0.1693
    115  C        -32.2640    2.0020  -11.1830 C.2   253  LEU253      0.2592
    116  O        -31.8120    1.4920  -12.2120 O.2   253  LEU253     -0.2718
    117  CB       -31.6150    4.3510  -10.6080 C.3   253  LEU253      0.0284
    118  CG       -30.3230    4.6080  -11.4470 C.3   253  LEU253      0.0019
    119  CD1      -29.7480    6.0260  -11.1420 C.3   253  LEU253      0.0001
    120  CD2      -29.2190    3.5900  -11.2270 C.3   253  LEU253      0.0001
    121  N        -32.3610    1.3360  -10.0260 N.am  254  PHE254     -0.1976
    122  CA       -31.9790   -0.0800   -9.9430 C.3   254  PHE254      0.1639
    123  C        -33.1260   -1.0140  -10.2860 C.2   254  PHE254      0.2290
    124  O        -32.9140   -1.9820  -10.9970 O.2   254  PHE254     -0.2864
    125  CB       -31.4730   -0.4270   -8.5700 C.3   254  PHE254      0.0560
    126  CG       -30.0940    0.0620   -8.2950 C.ar  254  PHE254     -0.0200
    127  CD1      -29.0330   -0.8280   -8.2850 C.ar  254  PHE254     -0.0042
    128  CD2      -29.8500    1.4100   -8.0290 C.ar  254  PHE254     -0.0042
    129  CE1      -27.7160   -0.3780   -8.0210 C.ar  254  PHE254     -0.0003
    130  CE2      -28.5070    1.8730   -7.7720 C.ar  254  PHE254     -0.0003
    131  CZ       -27.4710    0.9870   -7.7710 C.ar  254  PHE254     -0.0000
    132  N        -25.1160   13.6910   -7.7440 N.3   326  ILE326     -0.1245
    133  CA       -26.4140   13.0320   -7.9620 C.3   326  ILE326      0.1561
    134  C        -27.6160   13.9060   -7.6020 C.2   326  ILE326      0.2260
    135  O        -28.6230   13.9570   -8.3300 O.2   326  ILE326     -0.2867
    136  CB       -26.5140   11.6540   -7.2170 C.3   326  ILE326      0.0252
    137  CG1      -25.3660   10.7150   -7.6410 C.3   326  ILE326      0.0019
    138  CG2      -27.8780   10.9830   -7.5130 C.3   326  ILE326      0.0019
    139  CD1      -25.1170    9.5290   -6.6360 C.3   326  ILE326      0.0001
    140  N        -33.6160   17.6950   -0.2410 N.3   334  PHE334     -0.1241
    141  CA       -34.4240   16.8840    0.6800 C.3   334  PHE334      0.1605
    142  C        -34.2680   17.3630    2.1250 C.2   334  PHE334      0.2264
    143  O        -33.2030   17.8440    2.5130 O.2   334  PHE334     -0.2867
    144  CB       -34.1590   15.3590    0.5120 C.3   334  PHE334      0.0534
    145  CG       -32.8220   14.8860    1.0270 C.ar  334  PHE334     -0.0203
    146  CD1      -32.6580   14.5470    2.3790 C.ar  334  PHE334     -0.0042
    147  CD2      -31.7450   14.7280    0.1620 C.ar  334  PHE334     -0.0042
    148  CE1      -31.4300   14.0760    2.8570 C.ar  334  PHE334     -0.0003
    149  CE2      -30.5150   14.2870    0.6340 C.ar  334  PHE334     -0.0003
    150  CZ       -30.3600   13.9630    1.9890 C.ar  334  PHE334     -0.0000
@<TRIPOS>BOND
     1    60    59    2
     2    61    62    1
     3    61    58    1
     4    64    62   ar
     5    64    66   ar
     6   102   100   ar
     7   102   101   ar
     8   116   115    2
     9    62    63   ar
    10    66    67   ar
    11    59    58    1
    12   100    98   ar
    13    58    57    1
    14   118   120    1
    15   118   119    1
    16   118   117    1
    17    63    65   ar
    18   101    99   ar
    19    67    65   ar
    20    67    68    1
    21    72    71    2
    22    71    70    1
    23   115   114    1
    24   115   121   am
    25   114   117    1
    26   114   113    1
    27   124   123    2
    28    98    97   ar
    29    99    97   ar
    30   123   122    1
    31    57    55   am
    32    73    70    1
    33   121   122    1
    34    97    96    1
    35    70    69    1
    36   122   125    1
    37    92    93    1
    38    55    56    2
    39    55    54    1
    40    93    96    1
    41    93    94    1
    42   125   126    1
    43    95    94    2
    44   135   134    2
    45   126   127   ar
    46   126   128   ar
    47   127   129   ar
    48    53    54    1
    49    94   103   am
    50   128   130   ar
    51   129   131   ar
    52   133   132    1
    53   133   134    1
    54   133   136    1
    55   130   131   ar
    56   137   136    1
    57   137   139    1
    58   138   136    1
    59   103   104    1
    60    20    21    1
    61    20    17    1
    62   104   105    1
    63   104   107    1
    64   105   106    2
    65    17    18    1
    66    17    16    1
    67    19    18    2
    68     5     2    1
    69     5     6    1
    70   107   108    1
    71    18    22   am
    72     2     1    1
    73     2     3    1
    74    28    26    1
    75   109   108   ar
    76   109   111   ar
    77    22    23    1
    78   108   110   ar
    79     4     3    2
    80     6     8   am
    81     6     7    2
    82    23    26    1
    83    23    24    1
    84     3     9   am
    85   111   112   ar
    86    26    27    1
    87   110   112   ar
    88    37    38    1
    89    25    24    2
    90    24    29   am
    91     9    10    1
    92    77    76    2
    93    38    39    1
    94    38    41    1
    95    44    42    1
    96    29    30    1
    97    11    10    1
    98    11    12    2
    99    10    13    1
   100    39    40    2
   101    42    41    1
   102    42    43    1
   103    74    75    1
   104    88    87    2
   105    76    75    1
   106   140   141    1
   107    31    30    1
   108    31    32    2
   109    30    33    1
   110   147   149   ar
   111   147   145   ar
   112    75    78    1
   113    13    15    1
   114    13    14    1
   115    78    79    1
   116   144   141    1
   117   144   145    1
   118    85    86    1
   119   149   150   ar
   120   141   142    1
   121    87    86    1
   122    81    79   ar
   123    81    83   ar
   124   145   146   ar
   125    33    34    1
   126    79    80   ar
   127    86    89    1
   128    89    91    1
   129    89    90    1
   130    83    84   ar
   131    34    35    1
   132    45    46    1
   133   150   148   ar
   134   142   143    2
   135    35    36    1
   136   146   148   ar
   137    80    82   ar
   138    84    82   ar
   139    46    49    1
   140    46    47    1
   141    50    49    1
   142    50    51    1
   143    47    48    2
   144    51    52    1
