@<TRIPOS>MOLECULE
tmp/3vkkA01.pdb
 155 146 0 0 0
SMALL
GASTEIGER

@<TRIPOS>ATOM
      1  N        -23.7340    4.7780   -3.7310 N.3   171  VAL171     -0.1245
      2  CA       -23.5980    6.1780   -3.2800 C.3   171  VAL171      0.1561
      3  C        -22.5440    6.3230   -2.1670 C.2   171  VAL171      0.2260
      4  O        -21.5860    7.0940   -2.3010 O.2   171  VAL171     -0.2867
      5  CB       -24.9720    6.7670   -2.8980 C.3   171  VAL171      0.0252
      6  CG1      -24.8330    8.1900   -2.2830 C.3   171  VAL171      0.0019
      7  CG2      -25.8000    6.8560   -4.1590 C.3   171  VAL171      0.0019
      8  N        -19.6060    7.2570   -4.4470 N.3   175  ASP175     -0.1225
      9  CA       -19.9660    8.6080   -4.8510 C.3   175  ASP175      0.1805
     10  C        -19.5460    9.5780   -3.7640 C.2   175  ASP175      0.2597
     11  O        -18.6920   10.4530   -4.0130 O.2   175  ASP175     -0.2718
     12  CB       -21.4470    8.7640   -5.2120 C.3   175  ASP175      0.1424
     13  CG       -21.6790    9.9480   -6.1490 C.2   175  ASP175      0.3668
     14  OD1      -21.5830    9.7470   -7.3530 O.co2 175  ASP175     -0.2456
     15  OD2      -21.9340   11.0580   -5.6710 O.co2 175  ASP175     -0.2456
     16  N        -20.0920    9.3920   -2.5690 N.am  176  LEU176     -0.1979
     17  CA       -19.7470   10.2000   -1.4010 C.3   176  LEU176      0.1596
     18  C        -18.4470    9.7710   -0.7690 C.2   176  LEU176      0.2287
     19  O        -17.7510   10.5720   -0.1400 O.2   176  LEU176     -0.2864
     20  CB       -20.8490   10.1020   -0.3290 C.3   176  LEU176      0.0297
     21  CG       -22.2500   10.5300   -0.7610 C.3   176  LEU176      0.0022
     22  CD1      -23.2080   10.3420    0.4420 C.3   176  LEU176      0.0001
     23  CD2      -22.2280   11.9800   -1.2610 C.3   176  LEU176      0.0001
     24  N        -32.6230    0.1170   -0.7000 N.3   225  PHE225     -0.1241
     25  CA       -32.9250    1.1560    0.2680 C.3   225  PHE225      0.1605
     26  C        -33.9700    2.0880   -0.3890 C.2   225  PHE225      0.2264
     27  O        -33.8230    2.5230   -1.5560 O.2   225  PHE225     -0.2867
     28  CB       -31.5740    1.7870    0.5090 C.3   225  PHE225      0.0534
     29  CG       -31.5410    3.0020    1.3720 C.ar  225  PHE225     -0.0203
     30  CD1      -30.8760    2.9390    2.6260 C.ar  225  PHE225     -0.0042
     31  CD2      -31.9480    4.2480    0.8710 C.ar  225  PHE225     -0.0042
     32  CE1      -30.7250    4.0950    3.4130 C.ar  225  PHE225     -0.0003
     33  CE2      -31.8280    5.4070    1.6530 C.ar  225  PHE225     -0.0003
     34  CZ       -31.2210    5.3350    2.9230 C.ar  225  PHE225     -0.0000
     35  N        -36.4370    5.4520    0.6220 N.3   227  VAL227     -0.1245
     36  CA       -36.9610    6.5460    1.4760 C.3   227  VAL227      0.1561
     37  C        -38.2320    6.9760    0.7770 C.2   227  VAL227      0.2260
     38  O        -38.1980    7.2580   -0.4100 O.2   227  VAL227     -0.2867
     39  CB       -36.0190    7.7260    1.5490 C.3   227  VAL227      0.0252
     40  CG1      -36.5610    8.7900    2.5620 C.3   227  VAL227      0.0019
     41  CG2      -34.6090    7.2880    1.9380 C.3   227  VAL227      0.0019
     42  N        -40.9810    9.5550   -0.3600 N.3   229  LEU229     -0.1245
     43  CA       -40.7410   10.9640   -0.6340 C.3   229  LEU229      0.1561
     44  C        -42.0140   11.6620   -1.0110 C.2   229  LEU229      0.2260
     45  O        -42.7830   11.1670   -1.8390 O.2   229  LEU229     -0.2867
     46  CB       -39.6880   11.1430   -1.7360 C.3   229  LEU229      0.0270
     47  CG       -38.3260   10.4870   -1.4690 C.3   229  LEU229      0.0019
     48  CD1      -37.5020   10.5420   -2.7470 C.3   229  LEU229      0.0001
     49  CD2      -37.5420   11.1420   -0.2990 C.3   229  LEU229      0.0001
     50  N        -37.1430   12.0630   -7.5930 N.3   246  ALA246     -0.1245
     51  CA       -36.2310   11.6320   -6.5200 C.3   246  ALA246      0.1562
     52  C        -36.4300   10.1620   -6.1820 C.2   246  ALA246      0.2260
     53  O        -35.4920    9.4990   -5.7400 O.2   246  ALA246     -0.2867
     54  CB       -36.4350   12.4810   -5.2680 C.3   246  ALA246      0.0290
     55  N        -34.9000    8.3100   -9.1820 N.3   249  PHE249     -0.1227
     56  CA       -33.4630    8.2960   -9.0870 C.3   249  PHE249      0.1736
     57  C        -32.9120    7.2740   -8.0880 C.2   249  PHE249      0.2595
     58  O        -31.9080    6.6600   -8.3600 O.2   249  PHE249     -0.2718
     59  CB       -32.8810    9.6820   -8.7530 C.3   249  PHE249      0.0547
     60  CG       -32.4120   10.4790   -9.9930 C.ar  249  PHE249     -0.0202
     61  CD1      -33.3350   11.1120  -10.8300 C.ar  249  PHE249     -0.0042
     62  CD2      -31.0590   10.5640  -10.3080 C.ar  249  PHE249     -0.0042
     63  CE1      -32.8960   11.8430  -11.9780 C.ar  249  PHE249     -0.0003
     64  CE2      -30.6120   11.2890  -11.4210 C.ar  249  PHE249     -0.0003
     65  CZ       -31.5330   11.9200  -12.2530 C.ar  249  PHE249     -0.0000
     66  N        -33.5090    7.1670   -6.9150 N.am  250  HIS250     -0.1975
     67  CA       -32.8220    6.4770   -5.8360 C.3   250  HIS250      0.1656
     68  C        -33.2260    5.0370   -5.7940 C.2   250  HIS250      0.2291
     69  O        -32.4440    4.2020   -5.3160 O.2   250  HIS250     -0.2864
     70  CB       -32.9600    7.1850   -4.4720 C.3   250  HIS250      0.0771
     71  CG       -34.1770    6.8240   -3.6750 C.ar  250  HIS250      0.0820
     72  ND1      -35.3830    7.4870   -3.8160 N.ar  250  HIS250     -0.2267
     73  CD2      -34.3540    5.9290   -2.6690 C.ar  250  HIS250      0.1154
     74  CE1      -36.2670    6.9760   -2.9720 C.ar  250  HIS250      0.1986
     75  NE2      -35.6570    6.0580   -2.2380 N.ar  250  HIS250     -0.2212
     76  N        -37.6220    5.6010    6.8580 N.3   310  THR310     -0.1218
     77  CA       -38.0110    7.0140    7.0290 C.3   310  THR310      0.1862
     78  C        -38.5100    7.6300    5.7090 C.2   310  THR310      0.2287
     79  O        -38.4900    6.9780    4.6410 O.2   310  THR310     -0.2866
     80  CB       -36.8120    7.8060    7.6450 C.3   310  THR310      0.1770
     81  OG1      -37.2310    9.0800    8.1830 O.3   310  THR310     -0.2211
     82  CG2      -35.6530    7.9840    6.6140 C.3   310  THR310      0.0375
     83  N        -38.8130   11.6370    3.4570 N.3   312  ARG312     -0.1245
     84  CA       -38.3100   13.0210    3.3730 C.3   312  ARG312      0.1563
     85  C        -39.2440   13.8270    2.5090 C.2   312  ARG312      0.2260
     86  O        -40.0070   13.2970    1.6910 O.2   312  ARG312     -0.2867
     87  CB       -36.8590   13.1380    2.8200 C.3   312  ARG312      0.0307
     88  CG       -35.7320   12.6970    3.7860 C.3   312  ARG312      0.0489
     89  CD       -35.6100   13.5430    5.0470 C.3   312  ARG312      0.2205
     90  NE       -34.4980   13.0800    5.8760 N.pl3 312  ARG312     -0.0865
     91  CZ       -34.5630   12.0490    6.7170 C.cat 312  ARG312      0.5346
     92  NH1      -35.7060   11.3610    6.8710 N.pl3 312  ARG312      0.1354
     93  NH2      -33.4890   11.7240    7.4200 N.pl3 312  ARG312      0.1354
     94  N        -39.3060   16.7080   -0.4440 N.3   314  ILE314     -0.1245
     95  CA       -38.4790   17.0240   -1.5760 C.3   314  ILE314      0.1561
     96  C        -38.9200   18.3390   -2.1820 C.2   314  ILE314      0.2260
     97  O        -40.1260   18.5710   -2.4300 O.2   314  ILE314     -0.2867
     98  CB       -38.6020   15.9380   -2.7030 C.3   314  ILE314      0.0252
     99  CG1      -38.0780   14.5910   -2.2190 C.3   314  ILE314      0.0019
    100  CG2      -37.8890   16.4290   -4.0000 C.3   314  ILE314      0.0019
    101  CD1      -36.5480   14.5170   -2.0600 C.3   314  ILE314      0.0001
    102  N        -25.1160   13.6910   -7.7440 N.3   326  ILE326     -0.1231
    103  CA       -26.4140   13.0320   -7.9620 C.3   326  ILE326      0.1692
    104  C        -27.6160   13.9060   -7.6020 C.2   326  ILE326      0.2591
    105  O        -28.6230   13.9570   -8.3300 O.2   326  ILE326     -0.2718
    106  CB       -26.5140   11.6540   -7.2170 C.3   326  ILE326      0.0266
    107  CG1      -25.3660   10.7150   -7.6410 C.3   326  ILE326      0.0019
    108  CG2      -27.8780   10.9830   -7.5130 C.3   326  ILE326      0.0020
    109  CD1      -25.1170    9.5290   -6.6360 C.3   326  ILE326      0.0001
    110  N        -27.5380   14.5890   -6.4720 N.am  327  LEU327     -0.1980
    111  CA       -28.6480   15.5010   -6.0880 C.3   327  LEU327      0.1596
    112  C        -28.8340   16.5660   -7.1590 C.2   327  LEU327      0.2287
    113  O        -29.9580   16.9280   -7.5050 O.2   327  LEU327     -0.2864
    114  CB       -28.3080   16.2090   -4.7790 C.3   327  LEU327      0.0297
    115  CG       -28.3230   15.4210   -3.4760 C.3   327  LEU327      0.0022
    116  CD1      -27.7550   16.3040   -2.3730 C.3   327  LEU327      0.0001
    117  CD2      -29.7390   15.0140   -3.1770 C.3   327  LEU327      0.0001
    118  N        -30.4760   15.1240  -10.1720 N.3   330  ALA330     -0.1245
    119  CA       -31.9210   14.9820   -9.8980 C.3   330  ALA330      0.1562
    120  C        -32.5980   16.3620   -9.7330 C.2   330  ALA330      0.2260
    121  O        -33.8000   16.4880   -9.8860 O.2   330  ALA330     -0.2867
    122  CB       -32.1480   14.1270   -8.6570 C.3   330  ALA330      0.0290
    123  N        -32.8930   18.3300   -6.9650 N.3   332  ILE332     -0.1245
    124  CA       -33.8010   18.2360   -5.8480 C.3   332  ILE332      0.1561
    125  C        -33.0120   18.6200   -4.6180 C.2   332  ILE332      0.2260
    126  O        -31.7680   18.5700   -4.6150 O.2   332  ILE332     -0.2867
    127  CB       -34.5000   16.7870   -5.6870 C.3   332  ILE332      0.0252
    128  CG1      -33.5050   15.6710   -5.5010 C.3   332  ILE332      0.0019
    129  CG2      -35.3970   16.4530   -6.8530 C.3   332  ILE332      0.0019
    130  CD1      -33.0940   15.4730   -4.0680 C.3   332  ILE332      0.0001
    131  N        -33.6160   17.6950   -0.2410 N.3   334  PHE334     -0.1241
    132  CA       -34.4240   16.8840    0.6800 C.3   334  PHE334      0.1605
    133  C        -34.2680   17.3630    2.1250 C.2   334  PHE334      0.2264
    134  O        -33.2030   17.8440    2.5130 O.2   334  PHE334     -0.2867
    135  CB       -34.1590   15.3590    0.5120 C.3   334  PHE334      0.0534
    136  CG       -32.8220   14.8860    1.0270 C.ar  334  PHE334     -0.0203
    137  CD1      -32.6580   14.5470    2.3790 C.ar  334  PHE334     -0.0042
    138  CD2      -31.7450   14.7280    0.1620 C.ar  334  PHE334     -0.0042
    139  CE1      -31.4300   14.0760    2.8570 C.ar  334  PHE334     -0.0003
    140  CE2      -30.5150   14.2870    0.6340 C.ar  334  PHE334     -0.0003
    141  CZ       -30.3600   13.9630    1.9890 C.ar  334  PHE334     -0.0000
    142  N        -30.7310    9.9570   11.6100 N.3   345  TRP345     -0.1241
    143  CA       -31.4830   10.2410   10.3890 C.3   345  TRP345      0.1605
    144  C        -32.8410    9.5250   10.2880 C.2   345  TRP345      0.2264
    145  O        -33.5510    9.6650    9.2740 O.2   345  TRP345     -0.2867
    146  CB       -30.6130    9.9390    9.1440 C.3   345  TRP345      0.0550
    147  CG       -30.1570    8.4990    9.0280 C.ar  345  TRP345      0.0003
    148  CD1      -29.1200    7.8890    9.7100 C.ar  345  TRP345      0.0946
    149  CD2      -30.7080    7.4940    8.1640 C.ar  345  TRP345      0.0152
    150  NE1      -29.0110    6.5570    9.3230 N.ar  345  TRP345     -0.2442
    151  CE2      -29.9800    6.2910    8.3880 C.ar  345  TRP345      0.0810
    152  CE3      -31.7690    7.4810    7.2390 C.ar  345  TRP345      0.0012
    153  CZ2      -30.2740    5.0900    7.7030 C.ar  345  TRP345      0.0191
    154  CZ3      -32.0490    6.2680    6.5470 C.ar  345  TRP345      0.0001
    155  CH2      -31.3020    5.1070    6.7960 C.ar  345  TRP345      0.0015
@<TRIPOS>BOND
     1    65    63   ar
     2    65    64   ar
     3    63    61   ar
     4    64    62   ar
     5    61    60   ar
     6    62    60   ar
     7   118   119    1
     8    60    59    1
     9   119   120    1
    10   119   122    1
    11   121   120    2
    12    55    56    1
    13    56    59    1
    14    56    57    1
    15    58    57    2
    16   105   104    2
    17    57    66   am
    18   103   102    1
    19   103   104    1
    20   103   106    1
    21   107   106    1
    22   107   109    1
    23   104   110   am
    24    50    51    1
    25   108   106    1
    26   113   112    2
    27    14    13   ar
    28   112   111    1
    29   123   124    1
    30    66    67    1
    31   129   127    1
    32    51    52    1
    33    51    54    1
    34   110   111    1
    35    52    53    2
    36    13    15   ar
    37    13    12    1
    38   111   114    1
    39   124   127    1
    40   124   125    1
    41    67    68    1
    42    67    70    1
    43    68    69    2
    44   127   128    1
    45   128   130    1
    46    12     9    1
    47     9     8    1
    48     9    10    1
    49   114   115    1
    50   125   126    2
    51    70    71    1
    52     7     5    1
    53    11    10    2
    54   100    98    1
    55    72    71   ar
    56    72    74   ar
    57    10    16   am
    58     1     2    1
    59    71    73   ar
    60   115   117    1
    61   115   116    1
    62     2     5    1
    63     2     3    1
    64    74    75   ar
    65     5     6    1
    66    48    47    1
    67    98    99    1
    68    98    95    1
    69    73    75   ar
    70    16    17    1
    71    97    96    2
    72     4     3    2
    73    99   101    1
    74    96    95    1
    75    45    44    2
    76    46    47    1
    77    46    43    1
    78    95    94    1
    79    27    26    2
    80    47    49    1
    81    17    18    1
    82    17    20    1
    83    23    21    1
    84    44    43    1
    85    18    19    2
    86    21    20    1
    87    21    22    1
    88    24    25    1
    89    43    42    1
    90    38    37    2
    91    26    25    1
    92   131   132    1
    93   138   140   ar
    94   138   136   ar
    95    25    28    1
    96    28    29    1
    97   135   132    1
    98   135   136    1
    99    35    36    1
   100   140   141   ar
   101   132   133    1
   102    37    36    1
   103    31    29   ar
   104    31    33   ar
   105   136   137   ar
   106    29    30   ar
   107    36    39    1
   108    39    41    1
   109    39    40    1
   110    33    34   ar
   111    86    85    2
   112   141   139   ar
   113   133   134    2
   114   137   139   ar
   115    85    84    1
   116    30    32   ar
   117    87    84    1
   118    87    88    1
   119    34    32   ar
   120    84    83    1
   121    88    89    1
   122    79    78    2
   123    89    90    1
   124    78    77    1
   125    90    91    2
   126   154   155   ar
   127   154   152   ar
   128    82    80    1
   129    91    92    1
   130    91    93    1
   131   155   153   ar
   132    76    77    1
   133    77    80    1
   134   152   149   ar
   135    80    81    1
   136   153   151   ar
   137   149   151   ar
   138   149   147   ar
   139   151   150   ar
   140   147   146    1
   141   147   148   ar
   142   146   143    1
   143   145   144    2
   144   150   148   ar
   145   144   143    1
   146   143   142    1
