@<TRIPOS>MOLECULE
tmp/3vkmB00.pdb
 110 103 0 0 0
SMALL
GASTEIGER

@<TRIPOS>ATOM
      1  N        -24.9780    9.5760  -16.1450 N.3    45  ARG45      -0.1245
      2  CA       -23.6550    9.0120  -16.3930 C.3    45  ARG45       0.1563
      3  C        -22.9030    8.7910  -15.0930 C.2    45  ARG45       0.2260
      4  O        -23.2000    9.4300  -14.0820 O.2    45  ARG45      -0.2867
      5  CB       -22.8140    9.9550  -17.2530 C.3    45  ARG45       0.0307
      6  CG       -22.3090   11.1930  -16.5050 C.3    45  ARG45       0.0489
      7  CD       -21.3070   11.9710  -17.3350 C.3    45  ARG45       0.2205
      8  NE       -19.9350   11.7840  -16.8780 N.pl3  45  ARG45      -0.0865
      9  CZ       -18.8540   12.1470  -17.5670 C.cat  45  ARG45       0.5346
     10  NH1      -18.9770   12.7170  -18.7590 N.pl3  45  ARG45       0.1354
     11  NH2      -17.6430   11.9440  -17.0630 N.pl3  45  ARG45       0.1354
     12  N        -18.6880    7.0510  -13.7520 N.3    47  GLN47      -0.1245
     13  CA       -17.4010    6.6300  -14.3010 C.3    47  GLN47       0.1566
     14  C        -16.4810    5.9480  -13.3070 C.2    47  GLN47       0.2260
     15  O        -16.5820    6.1770  -12.1000 O.2    47  GLN47      -0.2867
     16  CB       -16.6640    7.8390  -14.8730 C.3    47  GLN47       0.0367
     17  CG       -16.0310    8.7110  -13.8030 C.3    47  GLN47       0.0905
     18  CD       -15.7740   10.1180  -14.2760 C.2    47  GLN47       0.2608
     19  OE1      -16.7060   10.8380  -14.6280 O.2    47  GLN47      -0.2717
     20  NE2      -14.5080   10.5250  -14.2910 N.am   47  GLN47      -0.0878
     21  N         -5.2320   18.0980  -11.4080 N.3    59  ARG59      -0.1245
     22  CA        -6.0040   16.8730  -11.3210 C.3    59  ARG59       0.1563
     23  C         -5.1500   15.6650  -11.6950 C.2    59  ARG59       0.2260
     24  O         -4.5060   15.6390  -12.7420 O.2    59  ARG59      -0.2867
     25  CB        -7.2240   16.9500  -12.2250 C.3    59  ARG59       0.0307
     26  CG        -8.0590   15.6880  -12.2220 C.3    59  ARG59       0.0489
     27  CD        -9.0700   15.7770  -13.3270 C.3    59  ARG59       0.2205
     28  NE        -9.8890   14.5840  -13.4470 N.pl3  59  ARG59      -0.0865
     29  CZ       -10.8630   14.4570  -14.3360 C.cat  59  ARG59       0.5346
     30  NH1      -11.1180   15.4500  -15.1710 N.pl3  59  ARG59       0.1354
     31  NH2      -11.5820   13.3450  -14.3810 N.pl3  59  ARG59       0.1354
     32  N        -10.1210    5.8100  -17.9530 N.3    65  HIS65      -0.1241
     33  CA       -11.4140    6.3910  -17.6210 C.3    65  HIS65       0.1621
     34  C        -12.4810    5.5900  -18.3720 C.2    65  HIS65       0.2264
     35  O        -12.5770    5.6360  -19.6050 O.2    65  HIS65      -0.2867
     36  CB       -11.3780    7.8590  -18.0600 C.3    65  HIS65       0.0745
     37  CG       -12.7010    8.5490  -18.0670 C.ar   65  HIS65       0.0817
     38  ND1      -13.3180    8.9820  -16.9160 N.ar   65  HIS65      -0.2268
     39  CD2      -13.4850    8.9530  -19.0920 C.ar   65  HIS65       0.1154
     40  CE1      -14.4250    9.6300  -17.2320 C.ar   65  HIS65       0.1986
     41  NE2      -14.5480    9.6260  -18.5460 N.ar   65  HIS65      -0.2212
     42  N        -16.2750    5.3640  -18.7960 N.3    67  ASN67      -0.1240
     43  CA       -17.4020    6.2560  -18.5990 C.3    67  ASN67       0.1653
     44  C        -18.7200    5.8790  -19.2670 C.2    67  ASN67       0.2266
     45  O        -19.0030    6.3140  -20.3780 O.2    67  ASN67      -0.2867
     46  CB       -16.9790    7.6500  -19.0690 C.3    67  ASN67       0.1155
     47  CG       -18.0450    8.7010  -18.8410 C.2    67  ASN67       0.2627
     48  OD1      -17.9880    9.7810  -19.4230 O.2    67  ASN67      -0.2716
     49  ND2      -19.0150    8.3990  -17.9880 N.am   67  ASN67      -0.0877
     50  N        -22.3670    6.1570  -20.3750 N.3    69  ARG69      -0.1245
     51  CA       -23.2690    7.3010  -20.4750 C.3    69  ARG69       0.1563
     52  C        -24.6370    6.7960  -20.8730 C.2    69  ARG69       0.2260
     53  O        -24.7550    5.8890  -21.7060 O.2    69  ARG69      -0.2867
     54  CB       -22.7610    8.3010  -21.5040 C.3    69  ARG69       0.0307
     55  CG       -21.4630    8.9310  -21.0850 C.3    69  ARG69       0.0489
     56  CD       -21.0200   10.0130  -22.0300 C.3    69  ARG69       0.2205
     57  NE       -19.7740   10.5930  -21.5540 N.pl3  69  ARG69      -0.0865
     58  CZ       -19.1520   11.6140  -22.1270 C.cat  69  ARG69       0.5346
     59  NH1      -19.6650   12.1790  -23.2160 N.pl3  69  ARG69       0.1354
     60  NH2      -18.0210   12.0700  -21.6010 N.pl3  69  ARG69       0.1354
     61  N        -17.7540    5.7790  -22.8200 N.3    77  VAL77      -0.1245
     62  CA       -16.7000    6.5940  -23.3800 C.3    77  VAL77       0.1561
     63  C        -15.4610    6.2790  -22.5770 C.2    77  VAL77       0.2260
     64  O        -15.4600    6.3890  -21.3520 O.2    77  VAL77      -0.2867
     65  CB       -17.0270    8.1010  -23.2310 C.3    77  VAL77       0.0252
     66  CG1      -15.7800    8.9320  -23.4940 C.3    77  VAL77       0.0019
     67  CG2      -18.1440    8.4950  -24.1790 C.3    77  VAL77       0.0019
     68  N        -11.2540    7.0100  -22.1280 N.3    79  ASN79      -0.1240
     69  CA       -10.2150    7.9510  -22.5060 C.3    79  ASN79       0.1653
     70  C         -9.1040    7.9910  -21.4760 C.2    79  ASN79       0.2266
     71  O         -9.1400    7.2800  -20.4740 O.2    79  ASN79      -0.2867
     72  CB       -10.8180    9.3510  -22.6530 C.3    79  ASN79       0.1155
     73  CG       -10.0740   10.1980  -23.6610 C.2    79  ASN79       0.2627
     74  OD1       -8.8400   10.1820  -23.7100 O.2    79  ASN79      -0.2716
     75  ND2      -10.8180   10.9500  -24.4720 N.am   79  ASN79      -0.0877
     76  N         -7.7380   15.6970  -22.0040 N.3    86  TRP86      -0.1241
     77  CA        -8.3210   14.4420  -22.4520 C.3    86  TRP86       0.1605
     78  C         -7.7390   13.9920  -23.7900 C.2    86  TRP86       0.2264
     79  O         -7.5130   14.7950  -24.6880 O.2    86  TRP86      -0.2867
     80  CB        -9.8370   14.5760  -22.5690 C.3    86  TRP86       0.0550
     81  CG       -10.5270   14.3860  -21.2830 C.ar   86  TRP86       0.0003
     82  CD1      -11.3020   15.2920  -20.6210 C.ar   86  TRP86       0.0946
     83  CD2      -10.4920   13.2120  -20.4700 C.ar   86  TRP86       0.0152
     84  NE1      -11.7520   14.7560  -19.4400 N.ar   86  TRP86      -0.2442
     85  CE2      -11.2690   13.4780  -19.3220 C.ar   86  TRP86       0.0810
     86  CE3       -9.8770   11.9580  -20.6000 C.ar   86  TRP86       0.0012
     87  CZ2      -11.4500   12.5320  -18.3040 C.ar   86  TRP86       0.0191
     88  CZ3      -10.0560   11.0180  -19.5900 C.ar   86  TRP86       0.0001
     89  CH2      -10.8360   11.3120  -18.4550 C.ar   86  TRP86       0.0015
     90  N        -11.0130   10.0810  -27.7060 N.3    89  GLU89      -0.1245
     91  CA       -12.1490    9.3580  -27.1540 C.3    89  GLU89       0.1567
     92  C        -12.3990    8.0350  -27.8800 C.2    89  GLU89       0.2260
     93  O        -12.3310    7.9570  -29.1040 O.2    89  GLU89      -0.2867
     94  CB       -13.3960   10.2340  -27.2780 C.3    89  GLU89       0.0388
     95  CG       -14.0640   10.5810  -25.9730 C.3    89  GLU89       0.1160
     96  CD       -15.0120   11.7590  -26.1060 C.2    89  GLU89       0.3649
     97  OE1      -15.8150   11.7910  -27.0660 O.co2  89  GLU89      -0.2457
     98  OE2      -14.9540   12.6490  -25.2350 O.co2  89  GLU89      -0.2457
     99  N        -17.1080    8.0360   -9.6920 N.3   141  TYR141     -0.1241
    100  CA       -17.9230    9.2360   -9.5640 C.3   141  TYR141      0.1605
    101  C        -19.2250    9.1630  -10.3560 C.2   141  TYR141      0.2264
    102  O        -19.3760    8.3440  -11.2610 O.2   141  TYR141     -0.2867
    103  CB       -17.1220   10.4460  -10.0520 C.3   141  TYR141      0.0534
    104  CG       -15.6630   10.4130   -9.6590 C.ar  141  TYR141     -0.0201
    105  CD1      -15.2610   10.6280   -8.3360 C.ar  141  TYR141     -0.0009
    106  CD2      -14.6790   10.1450  -10.6100 C.ar  141  TYR141     -0.0009
    107  CE1      -13.9080   10.5760   -7.9780 C.ar  141  TYR141      0.0417
    108  CE2      -13.3260   10.0900  -10.2610 C.ar  141  TYR141      0.0417
    109  CZ       -12.9480   10.3060   -8.9490 C.ar  141  TYR141      0.1957
    110  OH       -11.6130   10.2530   -8.6230 O.3   141  TYR141     -0.2866
@<TRIPOS>BOND
     1    93    92    2
     2    92    91    1
     3    90    91    1
     4    94    91    1
     5    94    95    1
     6    97    96   ar
     7    96    95    1
     8    96    98   ar
     9    79    78    2
    10    75    73   am
    11    67    65    1
    12    78    77    1
    13    74    73    2
    14    73    72    1
    15    66    65    1
    16    62    65    1
    17    62    61    1
    18    62    63    1
    19    59    58    1
    20    72    69    1
    21    63    64    2
    22    80    77    1
    23    80    81    1
    24    69    68    1
    25    69    70    1
    26    77    76    1
    27    58    60    1
    28    58    57    2
    29    56    57    1
    30    56    55    1
    31    53    52    2
    32    54    55    1
    33    54    51    1
    34    70    71    2
    35    81    82   ar
    36    81    83   ar
    37    52    51    1
    38    82    84   ar
    39    86    83   ar
    40    86    88   ar
    41    51    50    1
    42    83    85   ar
    43    45    44    2
    44    35    34    2
    45    88    89   ar
    46    84    85   ar
    47    48    47    2
    48    85    87   ar
    49    44    43    1
    50    39    41   ar
    51    39    37   ar
    52    46    47    1
    53    46    43    1
    54    47    49   am
    55    42    43    1
    56    10     9    1
    57    41    40   ar
    58    89    87   ar
    59    34    33    1
    60    37    36    1
    61    37    38   ar
    62    36    33    1
    63    32    33    1
    64     9    11    1
    65     9     8    2
    66     7     8    1
    67     7     6    1
    68     5     6    1
    69     5     2    1
    70    40    38   ar
    71     2     1    1
    72     2     3    1
    73    30    29    1
    74     3     4    2
    75    16    13    1
    76    16    17    1
    77    19    18    2
    78    31    29    1
    79    29    28    2
    80    13    12    1
    81    13    14    1
    82    20    18   am
    83    18    17    1
    84    28    27    1
    85    27    26    1
    86    14    15    2
    87    24    23    2
    88    25    26    1
    89    25    22    1
    90    23    22    1
    91    21    22    1
    92   102   101    2
    93   106   108   ar
    94   106   104   ar
    95   101   100    1
    96   108   109   ar
    97   103   104    1
    98   103   100    1
    99    99   100    1
   100   104   105   ar
   101   109   110    1
   102   109   107   ar
   103   105   107   ar
