@<TRIPOS>MOLECULE
tmp/3vkoB00.pdb
 118 110 0 0 0
SMALL
GASTEIGER

@<TRIPOS>ATOM
      1  N         39.2480   -1.3890   34.1040 N.3    39  ARG39      -0.1245
      2  CA        39.7820   -1.1530   32.7700 C.3    39  ARG39       0.1563
      3  C         38.7240   -1.4670   31.7200 C.2    39  ARG39       0.2260
      4  O         37.6940   -2.0810   32.0140 O.2    39  ARG39      -0.2867
      5  CB        40.9900   -2.0540   32.5080 C.3    39  ARG39       0.0307
      6  CG        40.6690   -3.5410   32.5750 C.3    39  ARG39       0.0489
      7  CD        41.8060   -4.3950   32.0380 C.3    39  ARG39       0.2205
      8  NE        41.7770   -4.5080   30.5810 N.pl3  39  ARG39      -0.0865
      9  CZ        42.7580   -5.0380   29.8550 C.cat  39  ARG39       0.5346
     10  NH1       43.8470   -5.4980   30.4540 N.pl3  39  ARG39       0.1354
     11  NH2       42.6480   -5.1190   28.5340 N.pl3  39  ARG39       0.1354
     12  N         38.5860   -1.5150   26.9660 N.3    41  GLN41      -0.1245
     13  CA        39.4360   -1.4080   25.7930 C.3    41  GLN41       0.1566
     14  C         38.6770   -1.2100   24.4940 C.2    41  GLN41       0.2260
     15  O         37.5470   -1.6710   24.3230 O.2    41  GLN41      -0.2867
     16  CB        40.3130   -2.6600   25.6690 C.3    41  GLN41       0.0367
     17  CG        39.5260   -3.9140   25.3290 C.3    41  GLN41       0.0905
     18  CD        40.2460   -5.1840   25.7440 C.2    41  GLN41       0.2608
     19  OE1       40.4330   -5.4400   26.9370 O.2    41  GLN41      -0.2717
     20  NE2       40.6620   -5.9840   24.7610 N.am   41  GLN41      -0.0878
     21  N         41.3580  -16.0510   18.0190 N.3    53  ARG53      -0.1245
     22  CA        41.1100  -14.6420   18.2510 C.3    53  ARG53       0.1563
     23  C         41.6370  -13.8260   17.0840 C.2    53  ARG53       0.2260
     24  O         42.7970  -13.9590   16.7000 O.2    53  ARG53      -0.2867
     25  CB        41.7850  -14.1870   19.5440 C.3    53  ARG53       0.0307
     26  CG        41.4360  -12.7630   19.9540 C.3    53  ARG53       0.0489
     27  CD        42.0620  -12.3920   21.2880 C.3    53  ARG53       0.2205
     28  NE        41.7350  -11.0240   21.6890 N.pl3  53  ARG53      -0.0865
     29  CZ        42.2340  -10.4220   22.7670 C.cat  53  ARG53       0.5346
     30  NH1       43.0850  -11.0630   23.5580 N.pl3  53  ARG53       0.1354
     31  NH2       41.8870   -9.1780   23.0530 N.pl3  53  ARG53       0.1354
     32  N         45.1170   -1.8370   20.0090 N.3    59  HIS59      -0.1241
     33  CA        44.5460   -2.0760   21.3240 C.3    59  HIS59       0.1621
     34  C         44.6430   -0.7980   22.1590 C.2    59  HIS59       0.2264
     35  O         45.7280   -0.4400   22.6110 O.2    59  HIS59      -0.2867
     36  CB        45.3290   -3.2080   21.9970 C.3    59  HIS59       0.0745
     37  CG        44.7670   -3.6570   23.3070 C.ar   59  HIS59       0.0817
     38  ND1       43.4530   -4.0450   23.4580 N.ar   59  HIS59      -0.2268
     39  CD2       45.3540   -3.8350   24.5160 C.ar   59  HIS59       0.1154
     40  CE1       43.2550   -4.4430   24.7030 C.ar   59  HIS59       0.1986
     41  NE2       44.3910   -4.3260   25.3660 N.ar   59  HIS59      -0.2212
     42  N         43.8710    0.4500   25.4570 N.3    61  ASN61      -0.1240
     43  CA        43.4910   -0.0380   26.7710 C.3    61  ASN61       0.1653
     44  C         43.7030    0.8950   27.9560 C.2    61  ASN61       0.2266
     45  O         44.8060    0.9860   28.4900 O.2    61  ASN61      -0.2867
     46  CB        44.2370   -1.3450   27.0290 C.3    61  ASN61       0.1155
     47  CG        43.8850   -1.9700   28.3530 C.2    61  ASN61       0.2627
     48  OD1       44.6750   -2.7260   28.9160 O.2    61  ASN61      -0.2716
     49  ND2       42.6870   -1.6770   28.8510 N.am   61  ASN61      -0.0877
     50  N         43.6720    1.8330   31.7000 N.3    63  ARG63      -0.1245
     51  CA        43.6730    1.1150   32.9750 C.3    63  ARG63       0.1563
     52  C         43.5870    2.1560   34.0830 C.2    63  ARG63       0.2260
     53  O         44.0750    3.2760   33.9260 O.2    63  ARG63      -0.2867
     54  CB        44.9320    0.2540   33.0970 C.3    63  ARG63       0.0307
     55  CG        44.9640   -0.8580   32.0570 C.3    63  ARG63       0.0489
     56  CD        46.1970   -1.7360   32.1640 C.3    63  ARG63       0.2205
     57  NE        46.1870   -2.7830   31.1440 N.pl3  63  ARG63      -0.0865
     58  CZ        47.1370   -3.7050   31.0030 C.cat  63  ARG63       0.5346
     59  NH1       48.1810   -3.7140   31.8230 N.pl3  63  ARG63       0.1354
     60  NH2       47.0440   -4.6140   30.0410 N.pl3  63  ARG63       0.1354
     61  N         47.3270    1.7300   28.0150 N.3    71  VAL71      -0.1245
     62  CA        48.1920    0.7570   27.3710 C.3    71  VAL71       0.1561
     63  C         47.7720    0.5880   25.9150 C.2    71  VAL71       0.2260
     64  O         46.5850    0.4530   25.6200 O.2    71  VAL71      -0.2867
     65  CB        48.0950   -0.6250   28.0650 C.3    71  VAL71       0.0252
     66  CG1       49.0410   -1.6210   27.3990 C.3    71  VAL71       0.0019
     67  CG2       48.4120   -0.4860   29.5370 C.3    71  VAL71       0.0019
     68  N         48.7480   -1.6730   22.3640 N.3    73  ASN73      -0.1240
     69  CA        49.4980   -2.8050   21.8410 C.3    73  ASN73       0.1653
     70  C         48.7940   -3.3670   20.6170 C.2    73  ASN73       0.2266
     71  O         47.7520   -2.8630   20.1980 O.2    73  ASN73      -0.2867
     72  CB        49.6070   -3.8980   22.9120 C.3    73  ASN73       0.1155
     73  CG        50.8210   -4.7960   22.7210 C.2    73  ASN73       0.2627
     74  OD1       51.3130   -4.9760   21.6090 O.2    73  ASN73      -0.2716
     75  ND2       51.2960   -5.3790   23.8140 N.am   73  ASN73      -0.0877
     76  N         50.4190  -11.2200   21.8170 N.3    80  TRP80      -0.1241
     77  CA        50.5660   -9.7990   22.1050 C.3    80  TRP80       0.1605
     78  C         51.9790   -9.3150   21.8110 C.2    80  TRP80       0.2264
     79  O         52.9510  -10.0440   22.0090 O.2    80  TRP80      -0.2867
     80  CB        50.2290   -9.5070   23.5710 C.3    80  TRP80       0.0550
     81  CG        48.7570   -9.3670   23.8310 C.ar   80  TRP80       0.0003
     82  CD1       47.9690  -10.2000   24.5710 C.ar   80  TRP80       0.0946
     83  CD2       47.8950   -8.3370   23.3310 C.ar   80  TRP80       0.0152
     84  NE1       46.6700   -9.7550   24.5620 N.ar   80  TRP80      -0.2442
     85  CE2       46.5950   -8.6150   23.8100 C.ar   80  TRP80       0.0810
     86  CE3       48.0960   -7.2080   22.5240 C.ar   80  TRP80       0.0012
     87  CZ2       45.4960   -7.8030   23.5080 C.ar   80  TRP80       0.0191
     88  CZ3       47.0000   -6.4000   22.2230 C.ar   80  TRP80       0.0001
     89  CH2       45.7170   -6.7040   22.7170 C.ar   80  TRP80       0.0015
     90  N         54.1550   -3.5930   24.5270 N.3    83  GLU83      -0.1245
     91  CA        53.2310   -2.5550   24.9640 C.3    83  GLU83       0.1567
     92  C         53.8400   -1.1640   24.8340 C.2    83  GLU83       0.2260
     93  O         55.0540   -0.9890   24.9160 O.2    83  GLU83      -0.2867
     94  CB        52.8010   -2.7900   26.4180 C.3    83  GLU83       0.0388
     95  CG        52.1770   -4.1560   26.6810 C.3    83  GLU83       0.1160
     96  CD        51.5770   -4.2670   28.0660 C.2    83  GLU83       0.3649
     97  OE1       52.0650   -3.5740   28.9830 O.co2  83  GLU83      -0.2457
     98  OE2       50.6260   -5.0560   28.2450 O.co2  83  GLU83      -0.2457
     99  N         52.9380    2.0190   26.7180 N.3    85  ILE85      -0.1245
    100  CA        52.1940    2.6980   27.7680 C.3    85  ILE85       0.1561
    101  C         52.2810    4.2160   27.7560 C.2    85  ILE85       0.2260
    102  O         53.3350    4.7930   27.4900 O.2    85  ILE85      -0.2867
    103  CB        52.6400    2.1970   29.1500 C.3    85  ILE85       0.0252
    104  CG1       52.5520    0.6680   29.1840 C.3    85  ILE85       0.0019
    105  CG2       51.7700    2.8210   30.2370 C.3    85  ILE85       0.0019
    106  CD1       52.9830    0.0480   30.4890 C.3    85  ILE85       0.0001
    107  N         35.3110   -3.5780   24.8800 N.3   135  TYR135     -0.1241
    108  CA        35.0750   -4.4890   25.9880 C.3   135  TYR135      0.1605
    109  C         35.4360   -3.8810   27.3310 C.2   135  TYR135      0.2264
    110  O         36.0390   -2.8090   27.3980 O.2   135  TYR135     -0.2867
    111  CB        35.9150   -5.7520   25.7840 C.3   135  TYR135      0.0534
    112  CG        35.9350   -6.2640   24.3590 C.ar  135  TYR135     -0.0201
    113  CD1       34.9820   -7.1790   23.9090 C.ar  135  TYR135     -0.0009
    114  CD2       36.9230   -5.8460   23.4640 C.ar  135  TYR135     -0.0009
    115  CE1       35.0190   -7.6740   22.6080 C.ar  135  TYR135      0.0417
    116  CE2       36.9650   -6.3320   22.1630 C.ar  135  TYR135      0.0417
    117  CZ        36.0120   -7.2460   21.7440 C.ar  135  TYR135      0.1957
    118  OH        36.0530   -7.7310   20.4570 O.3   135  TYR135     -0.2866
@<TRIPOS>BOND
     1    24    23    2
     2    23    22    1
     3    21    22    1
     4    22    25    1
     5    25    26    1
     6    26    27    1
     7    32    33    1
     8    71    70    2
     9   118   117    1
    10    70    69    1
    11    27    28    1
    12    33    36    1
    13    33    34    1
    14    74    73    2
    15    28    29    2
    16   117   116   ar
    17   117   115   ar
    18    78    79    2
    19    78    77    1
    20    76    77    1
    21    69    68    1
    22    69    72    1
    23    36    37    1
    24    77    80    1
    25    34    35    2
    26   116   114   ar
    27    88    86   ar
    28    88    89   ar
    29    86    83   ar
    30   115   113   ar
    31    89    87   ar
    32    73    72    1
    33    73    75   am
    34    29    31    1
    35    29    30    1
    36    37    38   ar
    37    37    39   ar
    38    83    85   ar
    39    83    81   ar
    40    38    40   ar
    41   114   112   ar
    42    87    85   ar
    43    80    81    1
    44    85    84   ar
    45    81    82   ar
    46   113   112   ar
    47    15    14    2
    48   112   111    1
    49    14    13    1
    50    39    41   ar
    51    90    91    1
    52    84    82   ar
    53    40    41   ar
    54    20    18   am
    55    92    93    2
    56    92    91    1
    57   107   108    1
    58    91    94    1
    59    17    16    1
    60    17    18    1
    61    42    43    1
    62    64    63    2
    63    16    13    1
    64    18    19    2
    65   111   108    1
    66    13    12    1
    67    63    62    1
    68   108   109    1
    69    94    95    1
    70    95    96    1
    71    99   100    1
    72    43    46    1
    73    43    44    1
    74    46    47    1
    75   109   110    2
    76    62    61    1
    77    62    65    1
    78    66    65    1
    79   102   101    2
    80   101   100    1
    81   100   103    1
    82    44    45    2
    83    65    67    1
    84    96    98   ar
    85    96    97   ar
    86    47    49   am
    87    47    48    2
    88    11     9    1
    89   103   104    1
    90   103   105    1
    91   104   106    1
    92     9    10    1
    93     9     8    2
    94    60    58    1
    95     8     7    1
    96    58    57    2
    97    58    59    1
    98    57    56    1
    99    50    51    1
   100     3     4    2
   101     3     2    1
   102     7     6    1
   103    55    56    1
   104    55    54    1
   105     5     6    1
   106     5     2    1
   107     2     1    1
   108    51    54    1
   109    51    52    1
   110    53    52    2
