@<TRIPOS>MOLECULE
tmp/3vkxA00.pdb
 128 125 0 0 0
SMALL
GASTEIGER

@<TRIPOS>ATOM
      1  N        -19.6230    9.3700   43.1100 N.3    40  MET40      -0.1245
      2  CA       -20.9140    9.0370   42.5180 C.3    40  MET40       0.1570
      3  C        -21.8550   10.1980   42.8410 C.2    40  MET40       0.2261
      4  O        -21.7190   10.8500   43.8780 O.2    40  MET40      -0.2867
      5  CB       -21.4770    7.7360   43.1250 C.3    40  MET40       0.0387
      6  CG       -20.7120    6.4650   42.7760 C.3    40  MET40       0.0595
      7  SD       -20.6970    6.0940   41.0130 S.3    40  MET40      -0.1393
      8  CE       -22.4700    5.9630   40.6550 C.3    40  MET40       0.0692
      9  N        -26.5630    7.8110   42.8010 N.3    44  HIS44      -0.1226
     10  CA       -25.6810    6.6810   42.5020 C.3    44  HIS44       0.1752
     11  C        -25.7490    6.2330   41.0680 C.2    44  HIS44       0.2595
     12  O        -25.5830    5.0630   40.8010 O.2    44  HIS44      -0.2718
     13  CB       -25.9900    5.5060   43.4160 C.3    44  HIS44       0.0759
     14  CG       -25.8360    5.8110   44.8780 C.ar   44  HIS44       0.0818
     15  ND1      -24.6440    5.7810   45.4990 N.ar   44  HIS44      -0.2268
     16  CD2      -26.7810    6.1490   45.8500 C.ar   44  HIS44       0.1154
     17  CE1      -24.8110    6.0890   46.8000 C.ar   44  HIS44       0.1986
     18  NE2      -26.1190    6.3160   47.0110 N.ar   44  HIS44      -0.2212
     19  N        -25.9660    7.1580   40.1280 N.am   45  VAL45      -0.1980
     20  CA       -26.0420    6.8110   38.7120 C.3    45  VAL45       0.1595
     21  C        -24.7480    7.1200   37.9500 C.2    45  VAL45       0.2287
     22  O        -24.1620    6.2330   37.3490 O.2    45  VAL45      -0.2864
     23  CB       -27.2210    7.5470   38.0160 C.3    45  VAL45       0.0276
     24  CG1      -27.1960    7.2840   36.5070 C.3    45  VAL45       0.0022
     25  CG2      -28.5670    7.1250   38.6340 C.3    45  VAL45       0.0022
     26  N        -20.7590    9.0220   37.6560 N.3    47  LEU47      -0.1245
     27  CA       -19.5450    9.2610   38.4310 C.3    47  LEU47       0.1561
     28  C        -18.9670   10.5430   37.8850 C.2    47  LEU47       0.2260
     29  O        -18.9460   10.7480   36.6710 O.2    47  LEU47      -0.2867
     30  CB       -18.5530    8.1050   38.2910 C.3    47  LEU47       0.0270
     31  CG       -17.2240    8.1720   39.0730 C.3    47  LEU47       0.0019
     32  CD1      -16.4770    6.8680   38.9450 C.3    47  LEU47       0.0001
     33  CD2      -16.2870    9.2640   38.5840 C.3    47  LEU47       0.0001
     34  N        -12.5650    4.8340   44.3450 N.3   126  LEU126     -0.1231
     35  CA       -12.9990    3.9010   43.2850 C.3   126  LEU126      0.1693
     36  C        -12.0130    3.8950   42.1170 C.2   126  LEU126      0.2593
     37  O        -11.5140    4.9350   41.7140 O.2   126  LEU126     -0.2718
     38  CB       -14.3820    4.2750   42.7340 C.3   126  LEU126      0.0284
     39  CG       -15.5690    4.4750   43.6670 C.3   126  LEU126      0.0019
     40  CD1      -16.8100    4.7100   42.8380 C.3   126  LEU126      0.0001
     41  CD2      -15.7630    3.2890   44.5970 C.3   126  LEU126      0.0001
     42  N        -11.7460    2.7150   41.5690 N.am  127  GLY127     -0.1942
     43  CA       -10.9280    2.5860   40.3680 C.3   127  GLY127      0.2014
     44  C        -11.7560    2.8950   39.1320 C.2   127  GLY127      0.2639
     45  O        -12.8060    2.2660   38.9050 O.2   127  GLY127     -0.2714
     46  N        -11.2960    3.8770   38.3570 N.am  128  ILE128     -0.1963
     47  CA       -11.9160    4.2440   37.0920 C.3   128  ILE128      0.1712
     48  C        -11.1010    3.5670   35.9930 C.2   128  ILE128      0.2458
     49  O         -9.9680    3.9680   35.7330 O.2   128  ILE128     -0.2730
     50  CB       -11.9030    5.7780   36.8670 C.3   128  ILE128      0.0289
     51  CG1      -12.7700    6.4950   37.9040 C.3   128  ILE128      0.0022
     52  CG2      -12.4200    6.1310   35.4830 C.3   128  ILE128      0.0023
     53  CD1      -12.5680    8.0080   37.9550 C.3   128  ILE128      0.0001
     54  N        -11.6550    2.5230   35.3510 N.am  129  PRO129     -0.2727
     55  CA       -10.8650    1.8210   34.3300 C.3   129  PRO129      0.1402
     56  C        -10.6270    2.6690   33.0760 C.2   129  PRO129      0.2269
     57  O        -11.3980    3.6060   32.7750 O.2   129  PRO129     -0.2865
     58  CB       -11.7350    0.6100   33.9980 C.3   129  PRO129      0.0296
     59  CG       -13.1300    1.0890   34.2270 C.3   129  PRO129      0.0237
     60  CD       -13.0420    2.0400   35.3960 C.3   129  PRO129      0.0939
     61  N        -10.4930    2.7010   28.9630 N.3   131  GLN131     -0.1245
     62  CA       -11.2170    2.0050   27.9020 C.3   131  GLN131      0.1566
     63  C        -10.7570    2.4900   26.5200 C.2   131  GLN131      0.2260
     64  O        -10.1970    3.5740   26.3750 O.2   131  GLN131     -0.2867
     65  CB       -12.7370    2.2290   28.0250 C.3   131  GLN131      0.0367
     66  CG       -13.3470    1.9830   29.3940 C.3   131  GLN131      0.0905
     67  CD       -13.4290    0.5230   29.7780 C.2   131  GLN131      0.2608
     68  OE1      -13.0360   -0.3720   29.0290 O.2   131  GLN131     -0.2717
     69  NE2      -13.9750    0.2740   30.9520 N.am  131  GLN131     -0.0878
     70  N        -12.0590    3.9030   23.3090 N.3   133  TYR133     -0.1241
     71  CA       -13.2600    4.5500   22.8290 C.3   133  TYR133      0.1605
     72  C        -13.2710    4.5470   21.3190 C.2   133  TYR133      0.2264
     73  O        -12.5090    5.2680   20.6800 O.2   133  TYR133     -0.2867
     74  CB       -13.3740    5.9610   23.3890 C.3   133  TYR133      0.0534
     75  CG       -13.5810    5.9380   24.8780 C.ar  133  TYR133     -0.0201
     76  CD1      -12.5360    6.2480   25.7520 C.ar  133  TYR133     -0.0009
     77  CD2      -14.8200    5.5830   25.4210 C.ar  133  TYR133     -0.0009
     78  CE1      -12.7250    6.2190   27.1230 C.ar  133  TYR133      0.0417
     79  CE2      -15.0130    5.5410   26.7920 C.ar  133  TYR133      0.0417
     80  CZ       -13.9660    5.8570   27.6350 C.ar  133  TYR133      0.1957
     81  OH       -14.1470    5.8110   28.9930 O.3   133  TYR133     -0.2866
     82  N        -20.9430   -0.8180   25.3320 N.3   225  ASP225     -0.1225
     83  CA       -20.7240   -1.4980   26.6200 C.3   225  ASP225      0.1805
     84  C        -19.8170   -0.8290   27.6690 C.2   225  ASP225      0.2598
     85  O        -19.4470   -1.4830   28.6480 O.2   225  ASP225     -0.2718
     86  CB       -20.2150   -2.9240   26.3810 C.3   225  ASP225      0.1424
     87  CG       -21.1930   -3.7620   25.6060 C.2   225  ASP225      0.3668
     88  OD1      -22.3400   -3.9580   26.0900 O.co2 225  ASP225     -0.2456
     89  OD2      -20.8000   -4.2210   24.5160 O.co2 225  ASP225     -0.2456
     90  N        -19.4730    0.4510   27.4810 N.am  226  VAL226     -0.1966
     91  CA       -18.8310    1.2510   28.5350 C.3   226  VAL226      0.1712
     92  C        -19.5370    2.6120   28.6980 C.2   226  VAL226      0.2458
     93  O        -20.2230    3.0600   27.7950 O.2   226  VAL226     -0.2730
     94  CB       -17.3310    1.4680   28.2400 C.3   226  VAL226      0.0289
     95  CG1      -16.6380    0.1270   28.0360 C.3   226  VAL226      0.0023
     96  CG2      -17.1430    2.3650   27.0220 C.3   226  VAL226      0.0023
     97  N        -19.3950    3.2640   29.8640 N.am  227  PRO227     -0.2727
     98  CA       -19.9650    4.5970   30.0310 C.3   227  PRO227      0.1402
     99  C        -19.5300    5.6220   28.9970 C.2   227  PRO227      0.2269
    100  O        -18.4170    5.5910   28.4860 O.2   227  PRO227     -0.2865
    101  CB       -19.4410    5.0360   31.3980 C.3   227  PRO227      0.0296
    102  CG       -19.3350    3.7650   32.1560 C.3   227  PRO227      0.0237
    103  CD       -18.9060    2.7260   31.1500 C.3   227  PRO227      0.0939
    104  N        -19.2070   10.4970   33.8680 N.3   243  TYR243     -0.1227
    105  CA       -19.3970    9.1880   33.2720 C.3   243  TYR243      0.1736
    106  C        -20.8340    8.6950   33.4450 C.2   243  TYR243      0.2595
    107  O        -21.3660    8.7010   34.5610 O.2   243  TYR243     -0.2718
    108  CB       -18.4730    8.1920   33.9320 C.3   243  TYR243      0.0548
    109  CG       -16.9890    8.5030   33.8220 C.ar  243  TYR243     -0.0200
    110  CD1      -16.2190    7.9390   32.8270 C.ar  243  TYR243     -0.0009
    111  CD2      -16.3540    9.3020   34.7590 C.ar  243  TYR243     -0.0009
    112  CE1      -14.8600    8.1910   32.7370 C.ar  243  TYR243      0.0417
    113  CE2      -14.9940    9.5840   34.6670 C.ar  243  TYR243      0.0417
    114  CZ       -14.2510    9.0110   33.6560 C.ar  243  TYR243      0.1957
    115  OH       -12.8940    9.2340   33.5740 O.3   243  TYR243     -0.2866
    116  N        -21.4470    8.2470   32.3490 N.am  244  LEU244     -0.1966
    117  CA       -22.8340    7.8380   32.3440 C.3   244  LEU244      0.1728
    118  C        -23.0300    6.5710   31.5330 C.2   244  LEU244      0.2616
    119  O        -22.7500    6.5440   30.3450 O.2   244  LEU244     -0.2715
    120  CB       -23.6850    8.9680   31.7820 C.3   244  LEU244      0.0311
    121  CG       -25.1970    8.7830   31.7290 C.3   244  LEU244      0.0022
    122  CD1      -25.7660    8.3800   33.0990 C.3   244  LEU244      0.0001
    123  CD2      -25.8030   10.0810   31.1870 C.3   244  LEU244      0.0001
    124  N        -23.4930    5.5120   32.1990 N.am  245  ALA245     -0.1977
    125  CA       -23.7150    4.2250   31.5580 C.3   245  ALA245      0.1597
    126  C        -24.8560    4.3870   30.5670 C.2   245  ALA245      0.2287
    127  O        -25.8440    5.0500   30.8700 O.2   245  ALA245     -0.2864
    128  CB       -24.0590    3.1520   32.5940 C.3   245  ALA245      0.0319
@<TRIPOS>BOND
     1    73    72    2
     2    72    71    1
     3    71    70    1
     4    71    74    1
     5    74    75    1
     6    89    87   ar
     7    75    77   ar
     8    75    76   ar
     9    82    83    1
    10    77    79   ar
    11    87    88   ar
    12    87    86    1
    13    76    78   ar
    14    64    63    2
    15    86    83    1
    16    63    62    1
    17    83    84    1
    18    79    80   ar
    19    96    94    1
    20    78    80   ar
    21    90    84   am
    22    90    91    1
    23    80    81    1
    24    84    85    2
    25    93    92    2
    26    62    65    1
    27    62    61    1
    28    65    66    1
    29    95    94    1
    30    94    91    1
    31   100    99    2
    32    91    92    1
    33    92    97   am
    34    99    98    1
    35    68    67    2
    36    66    67    1
    37    67    69   am
    38    97    98    1
    39    97   103    1
    40    98   101    1
    41   119   118    2
    42   126   127    2
    43   126   125    1
    44   103   102    1
    45   123   121    1
    46   101   102    1
    47   118   124   am
    48   118   117    1
    49   125   124    1
    50   125   128    1
    51   121   120    1
    52   121   122    1
    53   120   117    1
    54   117   116    1
    55   116   106   am
    56   112   110   ar
    57   112   114   ar
    58    57    56    2
    59   110   109   ar
    60    56    55    1
    61   105   106    1
    62   105   104    1
    63   105   108    1
    64   106   107    2
    65   115   114    1
    66   114   113   ar
    67   109   108    1
    68   109   111   ar
    69    58    59    1
    70    58    55    1
    71    59    60    1
    72    55    54    1
    73   113   111   ar
    74    54    60    1
    75    54    48   am
    76    52    50    1
    77    49    48    2
    78    48    47    1
    79    24    23    1
    80    29    28    2
    81    50    47    1
    82    50    51    1
    83    47    46    1
    84    22    21    2
    85    26    27    1
    86    28    27    1
    87    51    53    1
    88    21    20    1
    89    23    25    1
    90    23    20    1
    91    30    27    1
    92    30    31    1
    93    46    44   am
    94    33    31    1
    95    20    19    1
    96    45    44    2
    97    32    31    1
    98    44    43    1
    99    19    11   am
   100    43    42    1
   101     8     7    1
   102    12    11    2
   103     7     6    1
   104    11    10    1
   105    42    36   am
   106    37    36    2
   107    36    35    1
   108    10     9    1
   109    10    13    1
   110     2     3    1
   111     2     1    1
   112     2     5    1
   113    38    35    1
   114    38    39    1
   115     6     5    1
   116    40    39    1
   117     3     4    2
   118    35    34    1
   119    13    14    1
   120    39    41    1
   121    14    15   ar
   122    14    16   ar
   123    15    17   ar
   124    16    18   ar
   125    17    18   ar
