@<TRIPOS>MOLECULE
tmp/3vl9A00.pdb
 159 149 0 0 0
SMALL
GASTEIGER

@<TRIPOS>ATOM
      1  N         14.0180   25.7360   -0.5230 N.3    11  TRP11      -0.1241
      2  CA        14.0540   26.6070   -1.6900 C.3    11  TRP11       0.1605
      3  C         14.6820   25.9260   -2.9050 C.2    11  TRP11       0.2264
      4  O         15.0830   26.6250   -3.8370 O.2    11  TRP11      -0.2867
      5  CB        14.7710   27.9140   -1.3340 C.3    11  TRP11       0.0550
      6  CG        14.1980   28.5880   -0.1390 C.ar   11  TRP11       0.0003
      7  CD1       14.8100   28.7450    1.0780 C.ar   11  TRP11       0.0946
      8  CD2       12.8710   29.1460    0.0150 C.ar   11  TRP11       0.0152
      9  NE1       13.9790   29.3940    1.9440 N.ar   11  TRP11      -0.2442
     10  CE2       12.7680   29.6340    1.3440 C.ar   11  TRP11       0.0810
     11  CE3       11.7560   29.2760   -0.8280 C.ar   11  TRP11       0.0012
     12  CZ2       11.6130   30.2640    1.8250 C.ar   11  TRP11       0.0191
     13  CZ3       10.6170   29.8650   -0.3580 C.ar   11  TRP11       0.0001
     14  CH2       10.5350   30.3370    0.9450 C.ar   11  TRP11       0.0015
     15  N          9.4500   24.7300   -8.4920 N.3    22  TYR22      -0.1241
     16  CA         9.8520   25.2280   -7.1980 C.3    22  TYR22       0.1605
     17  C          9.3650   24.3240   -6.1000 C.2    22  TYR22       0.2264
     18  O          8.1920   24.0030   -6.0520 O.2    22  TYR22      -0.2867
     19  CB         9.2610   26.6100   -6.9490 C.3    22  TYR22       0.0534
     20  CG         9.7500   27.7310   -7.7940 C.ar   22  TYR22      -0.0201
     21  CD1       10.9250   28.3760   -7.4810 C.ar   22  TYR22      -0.0009
     22  CD2        8.9840   28.2310   -8.8450 C.ar   22  TYR22      -0.0009
     23  CE1       11.3820   29.4570   -8.2170 C.ar   22  TYR22       0.0417
     24  CE2        9.4240   29.2890   -9.5950 C.ar   22  TYR22       0.0417
     25  CZ        10.6050   29.9480   -9.2370 C.ar   22  TYR22       0.1957
     26  OH        11.1000   31.0180   -9.9490 O.3    22  TYR22      -0.2866
     27  N          9.5220   25.6040   -2.8840 N.3    24  ASP24      -0.1239
     28  CA         8.7760   26.6820   -2.2080 C.3    24  ASP24       0.1674
     29  C          8.1040   26.2040   -0.9370 C.2    24  ASP24       0.2266
     30  O          6.8900   26.3960   -0.7370 O.2    24  ASP24      -0.2867
     31  CB         7.7510   27.2670   -3.1880 C.3    24  ASP24       0.1410
     32  CG         7.1200   28.5800   -2.7340 C.2    24  ASP24       0.3668
     33  OD1        7.5240   29.2050   -1.7320 O.co2  24  ASP24      -0.2456
     34  OD2        6.1380   28.9930   -3.4650 O.co2  24  ASP24      -0.2456
     35  N          7.5830   27.4710    1.8150 N.3    26  TRP26      -0.1241
     36  CA         7.6650   28.7820    2.4590 C.3    26  TRP26       0.1605
     37  C          7.1210   28.8180    3.8440 C.2    26  TRP26       0.2264
     38  O          7.5450   29.6410    4.6570 O.2    26  TRP26      -0.2867
     39  CB         6.9940   29.8290    1.5580 C.3    26  TRP26       0.0550
     40  CG         5.4940   29.7160    1.4210 C.ar   26  TRP26       0.0003
     41  CD1        4.8170   29.1420    0.3920 C.ar   26  TRP26       0.0946
     42  CD2        4.5060   30.2450    2.3100 C.ar   26  TRP26       0.0152
     43  NE1        3.4760   29.2720    0.5760 N.ar   26  TRP26      -0.2442
     44  CE2        3.2430   29.9520    1.7340 C.ar   26  TRP26       0.0810
     45  CE3        4.5500   30.9300    3.5150 C.ar   26  TRP26       0.0012
     46  CZ2        2.0550   30.3440    2.3380 C.ar   26  TRP26       0.0191
     47  CZ3        3.3680   31.3040    4.1170 C.ar   26  TRP26       0.0001
     48  CH2        2.1390   31.0060    3.5300 C.ar   26  TRP26       0.0015
     49  N         -0.6640   27.2640    5.6540 N.3    62  VAL62      -0.1245
     50  CA        -0.0480   26.6320    4.4870 C.3    62  VAL62       0.1561
     51  C          1.4220   26.3840    4.7440 C.2    62  VAL62       0.2260
     52  O          2.1550   27.2690    5.2050 O.2    62  VAL62      -0.2867
     53  CB        -0.2490   27.5220    3.2170 C.3    62  VAL62       0.0252
     54  CG1        0.5680   26.9570    2.0410 C.3    62  VAL62       0.0019
     55  CG2       -1.7150   27.5670    2.8300 C.3    62  VAL62       0.0019
     56  N          4.1170   25.6740   -1.3090 N.3    65  TYR65      -0.1241
     57  CA         3.4030   25.7630   -2.6030 C.3    65  TYR65       0.1605
     58  C          4.3350   25.2260   -3.6800 C.2    65  TYR65       0.2264
     59  O          4.9100   25.9740   -4.4450 O.2    65  TYR65      -0.2867
     60  CB         2.8950   27.1780   -2.9050 C.3    65  TYR65       0.0534
     61  CG         2.1280   27.3030   -4.2220 C.ar   65  TYR65      -0.0201
     62  CD1        1.0040   26.5350   -4.4590 C.ar   65  TYR65      -0.0009
     63  CD2        2.5470   28.1740   -5.2340 C.ar   65  TYR65      -0.0009
     64  CE1        0.3050   26.6390   -5.6570 C.ar   65  TYR65       0.0417
     65  CE2        1.8570   28.2690   -6.4170 C.ar   65  TYR65       0.0417
     66  CZ         0.7650   27.4920   -6.6490 C.ar   65  TYR65       0.1957
     67  OH         0.1270   27.6250   -7.8760 O.3    65  TYR65      -0.2866
     68  N          5.2380   24.0660   -7.0810 N.3    67  ASN67      -0.1240
     69  CA         4.5490   24.5340   -8.2760 C.3    67  ASN67       0.1653
     70  C          5.4440   24.5550   -9.4780 C.2    67  ASN67       0.2266
     71  O          6.6550   24.7720   -9.3770 O.2    67  ASN67      -0.2867
     72  CB         3.9250   25.9340   -8.0660 C.3    67  ASN67       0.1155
     73  CG         4.9460   27.0390   -8.1070 C.2    67  ASN67       0.2627
     74  OD1        5.2180   27.5780   -9.1780 O.2    67  ASN67      -0.2716
     75  ND2        5.5420   27.3600   -6.9510 N.am   67  ASN67      -0.0877
     76  N         -1.8120   29.8240   -9.2430 N.3   103  ASP103     -0.1239
     77  CA        -1.4920   31.0260   -8.4540 C.3   103  ASP103      0.1674
     78  C         -0.8600   32.0230   -9.4230 C.2   103  ASP103      0.2266
     79  O          0.0760   31.7030  -10.1380 O.2   103  ASP103     -0.2867
     80  CB        -0.5240   30.7080   -7.2990 C.3   103  ASP103      0.1410
     81  CG        -0.4270   31.8070   -6.2710 C.2   103  ASP103      0.3668
     82  OD1       -1.4280   32.5900   -6.1680 O.co2 103  ASP103     -0.2456
     83  OD2        0.5880   31.9020   -5.5480 O.co2 103  ASP103     -0.2456
     84  N         -0.2760   36.5540  -10.2640 N.3   105  PHE105     -0.1241
     85  CA        -0.1030   37.8610   -9.6210 C.3   105  PHE105      0.1605
     86  C         -0.1220   38.9530  -10.6600 C.2   105  PHE105      0.2264
     87  O          0.3950   38.7710  -11.7710 O.2   105  PHE105     -0.2867
     88  CB         1.1950   37.9700   -8.8150 C.3   105  PHE105      0.0534
     89  CG         1.2580   37.0610   -7.6180 C.ar  105  PHE105     -0.0203
     90  CD1        0.9610   37.5570   -6.3660 C.ar  105  PHE105     -0.0042
     91  CD2        1.6040   35.7310   -7.7330 C.ar  105  PHE105     -0.0042
     92  CE1        0.9960   36.7140   -5.2530 C.ar  105  PHE105     -0.0003
     93  CE2        1.6450   34.8960   -6.6340 C.ar  105  PHE105     -0.0003
     94  CZ         1.3760   35.3950   -5.3810 C.ar  105  PHE105     -0.0000
     95  N         -3.7070   39.1000   -6.4120 N.3   117  GLU117     -0.1245
     96  CA        -3.3670   37.6950   -6.6210 C.3   117  GLU117      0.1567
     97  C         -4.6410   36.9800   -7.0300 C.2   117  GLU117      0.2260
     98  O         -5.7070   37.2340   -6.4350 O.2   117  GLU117     -0.2867
     99  CB        -2.7980   37.1350   -5.3360 C.3   117  GLU117      0.0388
    100  CG        -2.3670   35.6930   -5.4510 C.3   117  GLU117      0.1160
    101  CD        -1.7740   35.1550   -4.1790 C.2   117  GLU117      0.3649
    102  OE1       -1.7570   35.8690   -3.1670 O.co2 117  GLU117     -0.2457
    103  OE2       -1.2670   34.0270   -4.1820 O.co2 117  GLU117     -0.2457
    104  N         -6.1040   33.1440   -7.6500 N.3   119  MET119     -0.1245
    105  CA        -5.9260   31.6990   -7.5590 C.3   119  MET119      0.1570
    106  C         -7.1290   31.0260   -8.2310 C.2   119  MET119      0.2261
    107  O         -8.2430   31.5570   -8.2110 O.2   119  MET119     -0.2867
    108  CB        -5.8780   31.1940   -6.1060 C.3   119  MET119      0.0387
    109  CG        -4.9100   31.9430   -5.1860 C.3   119  MET119      0.0595
    110  SD        -4.6250   31.0570   -3.6440 S.3   119  MET119     -0.1393
    111  CE        -3.3690   29.8930   -4.1100 C.3   119  MET119      0.0692
    112  N         -8.8850   32.0780    1.0450 N.3   131  ILE131     -0.1245
    113  CA        -8.9320   33.3660    1.6990 C.3   131  ILE131      0.1561
    114  C        -10.2560   34.0250    1.3610 C.2   131  ILE131      0.2260
    115  O        -10.6740   34.1140    0.1950 O.2   131  ILE131     -0.2867
    116  CB        -7.7370   34.2320    1.2760 C.3   131  ILE131      0.0252
    117  CG1       -6.4380   33.6130    1.7690 C.3   131  ILE131      0.0019
    118  CG2       -7.9080   35.6760    1.7050 C.3   131  ILE131      0.0019
    119  CD1       -5.1670   34.2360    1.1530 C.3   131  ILE131      0.0001
    120  N         -4.5560   39.7960    1.6880 N.3   155  ASN155     -0.1240
    121  CA        -3.3450   39.1890    2.2730 C.3   155  ASN155      0.1653
    122  C         -2.3140   40.3160    2.2930 C.2   155  ASN155      0.2266
    123  O         -1.8050   40.7450    1.2600 O.2   155  ASN155     -0.2867
    124  CB        -2.8390   37.9700    1.5130 C.3   155  ASN155      0.1155
    125  CG        -1.6990   37.2690    2.2140 C.2   155  ASN155      0.2627
    126  OD1       -1.2030   37.7510    3.2300 O.2   155  ASN155     -0.2716
    127  ND2       -1.3320   36.1120    1.7180 N.am  155  ASN155     -0.0877
    128  N         -6.6800   39.0760   -2.7290 N.3   160  VAL160     -0.1245
    129  CA        -6.6360   37.7370   -3.2860 C.3   160  VAL160      0.1561
    130  C         -8.0460   37.3520   -3.7300 C.2   160  VAL160      0.2260
    131  O         -8.9570   37.2840   -2.8990 O.2   160  VAL160     -0.2867
    132  CB        -6.0760   36.7120   -2.2650 C.3   160  VAL160      0.0252
    133  CG1       -5.8830   35.3600   -2.9640 C.3   160  VAL160      0.0019
    134  CG2       -4.7670   37.2080   -1.6260 C.3   160  VAL160      0.0019
    135  N          3.2960   36.4280  -12.9620 N.3   197  THR197     -0.1218
    136  CA         3.4790   35.1000  -12.3980 C.3   197  THR197      0.1862
    137  C          2.3560   34.1880  -12.8430 C.2   197  THR197      0.2287
    138  O          1.1790   34.5640  -12.7160 O.2   197  THR197     -0.2866
    139  CB         3.4380   35.2130  -10.8710 C.3   197  THR197      0.1770
    140  OG1        4.3950   36.1430  -10.4060 O.3   197  THR197     -0.2211
    141  CG2        3.7100   33.8750  -10.1800 C.3   197  THR197      0.0375
    142  N          1.7100   30.1960  -12.0840 N.3   199  GLU199     -0.1245
    143  CA         2.1300   29.0010  -11.3740 C.3   199  GLU199      0.1567
    144  C          0.9720   28.0160  -11.2250 C.2   199  GLU199      0.2260
    145  O         -0.1940   28.4470  -11.1290 O.2   199  GLU199     -0.2867
    146  CB         2.7010   29.3500  -10.0120 C.3   199  GLU199      0.0388
    147  CG         3.9710   30.1340  -10.1300 C.3   199  GLU199      0.1160
    148  CD         4.6190   30.5710   -8.8640 C.2   199  GLU199      0.3649
    149  OE1        4.0180   30.5570   -7.7910 O.co2 199  GLU199     -0.2457
    150  OE2        5.8340   31.0080   -8.9960 O.co2 199  GLU199     -0.2457
    151  N         -1.0560   23.6790   -2.3970 N.3   203  GLU203     -0.1245
    152  CA        -0.8170   24.1470   -1.0270 C.3   203  GLU203      0.1567
    153  C         -1.2910   23.1100   -0.0070 C.2   203  GLU203      0.2260
    154  O         -2.4850   22.8680    0.1390 O.2   203  GLU203     -0.2867
    155  CB        -1.6140   25.4040   -0.7050 C.3   203  GLU203      0.0388
    156  CG        -1.3460   26.5980   -1.5590 C.3   203  GLU203      0.1160
    157  CD        -2.1160   27.7960   -1.0530 C.2   203  GLU203      0.3649
    158  OE1       -3.3410   27.8500   -1.2790 O.co2 203  GLU203     -0.2457
    159  OE2       -1.4990   28.6360   -0.3720 O.co2 203  GLU203     -0.2457
@<TRIPOS>BOND
     1   135   136    1
     2   137   138    2
     3   137   136    1
     4   136   139    1
     5   142   143    1
     6    87    86    2
     7   143   144    1
     8   143   146    1
     9   144   145    2
    10   139   140    1
    11   139   141    1
    12    86    85    1
    13    84    85    1
    14    79    78    2
    15   147   146    1
    16   147   148    1
    17    26    25    1
    18    85    88    1
    19    24    25   ar
    20    24    22   ar
    21    70    71    2
    22    70    69    1
    23    78    77    1
    24    76    77    1
    25    25    23   ar
    26    74    73    2
    27   150   148   ar
    28   148   149   ar
    29    22    20   ar
    30    88    89    1
    31    15    16    1
    32    77    80    1
    33    69    72    1
    34    69    68    1
    35   106   107    2
    36   106   105    1
    37    23    21   ar
    38    73    72    1
    39    73    75   am
    40    67    66    1
    41    20    21   ar
    42    20    19    1
    43    91    89   ar
    44    91    93   ar
    45   104   105    1
    46    89    90   ar
    47   105   108    1
    48    80    81    1
    49    16    19    1
    50    16    17    1
    51    97    96    1
    52    97    98    2
    53    66    65   ar
    54    66    64   ar
    55    93    94   ar
    56    96    95    1
    57    96    99    1
    58    65    63   ar
    59    90    92   ar
    60    81    82   ar
    61    81    83   ar
    62   108   109    1
    63    17    18    2
    64    64    62   ar
    65   100    99    1
    66   100   101    1
    67    94    92   ar
    68    63    61   ar
    69   109   110    1
    70    62    61   ar
    71    59    58    2
    72    61    60    1
    73   103   101   ar
    74   101   102   ar
    75   111   110    1
    76     4     3    2
    77   130   129    1
    78   130   131    2
    79    58    57    1
    80    34    32   ar
    81   129   128    1
    82   129   132    1
    83    31    32    1
    84    31    28    1
    85   133   132    1
    86     3     2    1
    87    60    57    1
    88    27    28    1
    89    32    33   ar
    90    57    56    1
    91   151   152    1
    92   132   134    1
    93    28    29    1
    94     2     5    1
    95     2     1    1
    96   156   157    1
    97   156   155    1
    98     5     6    1
    99   158   157   ar
   100   157   159   ar
   101   152   155    1
   102   152   153    1
   103    29    30    2
   104    11    13   ar
   105    11     8   ar
   106    13    14   ar
   107     6     8   ar
   108     6     7   ar
   109   153   154    2
   110     8    10   ar
   111   115   114    2
   112    41    43   ar
   113    41    40   ar
   114    43    44   ar
   115    14    12   ar
   116   112   113    1
   117     7     9   ar
   118   119   117    1
   119   123   122    2
   120   116   113    1
   121   116   118    1
   122   116   117    1
   123    10    12   ar
   124    10     9   ar
   125   114   113    1
   126    40    39    1
   127    40    42   ar
   128   124   125    1
   129   124   121    1
   130    39    36    1
   131   120   121    1
   132   127   125   am
   133    44    42   ar
   134    44    46   ar
   135    35    36    1
   136    54    53    1
   137   125   126    2
   138   121   122    1
   139    42    45   ar
   140    46    48   ar
   141    36    37    1
   142    55    53    1
   143    53    50    1
   144    45    47   ar
   145    48    47   ar
   146    37    38    2
   147    50    51    1
   148    50    49    1
   149    51    52    2
