@<TRIPOS>MOLECULE
tmp/3vl9B00.pdb
 159 149 0 0 0
SMALL
GASTEIGER

@<TRIPOS>ATOM
      1  N         10.6240   53.7940    1.5450 N.3    10  TRP10      -0.1241
      2  CA        10.4430   52.7940    0.5090 C.3    10  TRP10       0.1605
      3  C          9.6580   53.3570   -0.6660 C.2    10  TRP10       0.2264
      4  O          9.1240   52.5900   -1.4410 O.2    10  TRP10      -0.2867
      5  CB         9.7680   51.5160    1.0670 C.3    10  TRP10       0.0550
      6  CG        10.4810   50.9480    2.2620 C.ar   10  TRP10       0.0003
      7  CD1       10.0070   50.8360    3.5540 C.ar   10  TRP10       0.0946
      8  CD2       11.8250   50.4220    2.2930 C.ar   10  TRP10       0.0152
      9  NE1       10.9700   50.2980    4.3490 N.ar   10  TRP10      -0.2442
     10  CE2       12.0970   50.0480    3.6340 C.ar   10  TRP10       0.0810
     11  CE3       12.8440   50.2960    1.3360 C.ar   10  TRP10       0.0012
     12  CZ2       13.3220   49.5240    4.0230 C.ar   10  TRP10       0.0191
     13  CZ3       14.0640   49.7760    1.7390 C.ar   10  TRP10       0.0001
     14  CH2       14.2780   49.3890    3.0650 C.ar   10  TRP10       0.0015
     15  N         14.1870   54.0410   -6.9580 N.3    21  TYR21      -0.1241
     16  CA        13.9230   53.6460   -5.5790 C.3    21  TYR21       0.1605
     17  C         14.5590   54.6230   -4.6370 C.2    21  TYR21       0.2264
     18  O         15.7580   54.9490   -4.7620 O.2    21  TYR21      -0.2867
     19  CB        14.5760   52.2980   -5.2650 C.3    21  TYR21       0.0534
     20  CG        13.9450   51.1220   -5.9760 C.ar   21  TYR21      -0.0201
     21  CD1       12.8000   50.5100   -5.4700 C.ar   21  TYR21      -0.0009
     22  CD2       14.5310   50.5330   -7.0960 C.ar   21  TYR21      -0.0009
     23  CE1       12.2450   49.4160   -6.0810 C.ar   21  TYR21       0.0417
     24  CE2       13.9400   49.4240   -7.7080 C.ar   21  TYR21       0.0417
     25  CZ        12.8030   48.8610   -7.1880 C.ar   21  TYR21       0.1957
     26  OH        12.1990   47.7760   -7.7970 O.3    21  TYR21      -0.2866
     27  N         14.7690   53.8050   -1.2740 N.3    23  ASP23      -0.1239
     28  CA        15.5800   52.7760   -0.6390 C.3    23  ASP23       0.1674
     29  C         16.4180   53.3170    0.5250 C.2    23  ASP23       0.2266
     30  O         17.6500   53.1720    0.5360 O.2    23  ASP23      -0.2867
     31  CB        16.4570   52.0850   -1.6890 C.3    23  ASP23       0.1410
     32  CG        17.1920   50.8560   -1.1970 C.2    23  ASP23       0.3668
     33  OD1       16.8890   50.2870   -0.1560 O.co2  23  ASP23      -0.2456
     34  OD2       18.1170   50.4280   -1.9360 O.co2  23  ASP23      -0.2456
     35  N         17.3750   52.3440    3.2580 N.3    25  TRP25      -0.1241
     36  CA        17.3790   51.1100    4.0440 C.3    25  TRP25       0.1605
     37  C         18.1510   51.1980    5.3410 C.2    25  TRP25       0.2264
     38  O         17.9000   50.4640    6.2840 O.2    25  TRP25      -0.2867
     39  CB        17.9280   49.9570    3.2080 C.3    25  TRP25       0.0550
     40  CG        19.3790   50.0590    2.7830 C.ar   25  TRP25       0.0003
     41  CD1       19.8870   50.5030    1.6150 C.ar   25  TRP25       0.0946
     42  CD2       20.5130   49.6380    3.5710 C.ar   25  TRP25       0.0152
     43  NE1       21.2620   50.4230    1.6160 N.ar   25  TRP25      -0.2442
     44  CE2       21.6710   49.8810    2.8020 C.ar   25  TRP25       0.0810
     45  CE3       20.6670   49.1040    4.8590 C.ar   25  TRP25       0.0012
     46  CZ2       22.9450   49.6070    3.2740 C.ar   25  TRP25       0.0191
     47  CZ3       21.9560   48.8300    5.3310 C.ar   25  TRP25       0.0001
     48  CH2       23.0670   49.0810    4.5400 C.ar   25  TRP25       0.0015
     49  N         26.1270   53.0610    5.8270 N.3    61  VAL61      -0.1245
     50  CA        25.3340   53.5610    4.7230 C.3    61  VAL61       0.1561
     51  C         23.9070   53.8430    5.1860 C.2    61  VAL61       0.2260
     52  O         23.2600   52.9980    5.8060 O.2    61  VAL61      -0.2867
     53  CB        25.3660   52.5540    3.5390 C.3    61  VAL61       0.0252
     54  CG1       24.2990   52.9080    2.4920 C.3    61  VAL61       0.0019
     55  CG2       26.7260   52.5010    2.8890 C.3    61  VAL61       0.0019
     56  N         20.3950   53.7870   -0.4590 N.3    64  TYR64      -0.1241
     57  CA        20.8990   53.5790   -1.8110 C.3    64  TYR64       0.1605
     58  C         19.8150   53.9960   -2.7860 C.2    64  TYR64       0.2264
     59  O         19.1150   53.1670   -3.3770 O.2    64  TYR64      -0.2867
     60  CB        21.3840   52.1650   -2.0430 C.3    64  TYR64       0.0534
     61  CG        21.9570   51.9460   -3.4350 C.ar   64  TYR64      -0.0201
     62  CD1       23.0250   52.6770   -3.8850 C.ar   64  TYR64      -0.0009
     63  CD2       21.4390   50.9690   -4.2830 C.ar   64  TYR64      -0.0009
     64  CE1       23.5460   52.4890   -5.1850 C.ar   64  TYR64       0.0417
     65  CE2       21.9450   50.7640   -5.5410 C.ar   64  TYR64       0.0417
     66  CZ        23.0050   51.5060   -5.9910 C.ar   64  TYR64       0.1957
     67  OH        23.4760   51.2610   -7.2670 O.3    64  TYR64      -0.2866
     68  N         18.4900   54.8050   -6.2010 N.3    66  ASN66      -0.1240
     69  CA        19.0390   54.2360   -7.4170 C.3    66  ASN66       0.1653
     70  C         17.9820   54.0730   -8.4520 C.2    66  ASN66       0.2266
     71  O         16.8010   53.8710   -8.1630 O.2    66  ASN66      -0.2867
     72  CB        19.6930   52.8550   -7.1150 C.3    66  ASN66       0.1155
     73  CG        18.6690   51.7840   -6.8240 C.2    66  ASN66       0.2627
     74  OD1       18.2650   51.5690   -5.6030 O.2    66  ASN66      -0.2716
     75  ND2       18.2460   51.1110   -7.8570 N.am   66  ASN66      -0.0877
     76  N         25.2380   48.9100   -8.5260 N.3   102  ASP102     -0.1239
     77  CA        25.0270   47.7800   -7.6700 C.3   102  ASP102      0.1674
     78  C         24.2770   46.7160   -8.4320 C.2   102  ASP102      0.2266
     79  O         23.2440   47.0020   -9.0440 O.2   102  ASP102     -0.2867
     80  CB        24.2390   48.2400   -6.4280 C.3   102  ASP102      0.1410
     81  CG        24.2710   47.2770   -5.2640 C.2   102  ASP102      0.3668
     82  OD1       25.2460   46.4810   -5.2120 O.co2 102  ASP102     -0.2456
     83  OD2       23.3550   47.3300   -4.4070 O.co2 102  ASP102     -0.2456
     84  N         23.4400   42.2380   -8.6970 N.3   104  PHE104     -0.1241
     85  CA        23.2830   41.0280   -7.8810 C.3   104  PHE104      0.1605
     86  C         23.2040   39.7910   -8.7730 C.2   104  PHE104      0.2264
     87  O         22.5570   39.8100   -9.8290 O.2   104  PHE104     -0.2867
     88  CB        22.0490   41.1400   -7.0110 C.3   104  PHE104      0.0534
     89  CG        22.2000   42.2180   -5.8850 C.ar  104  PHE104     -0.0203
     90  CD1       22.7500   41.9300   -4.6200 C.ar  104  PHE104     -0.0042
     91  CD2       21.8660   43.5170   -6.1520 C.ar  104  PHE104     -0.0042
     92  CE1       22.8660   42.9260   -3.6380 C.ar  104  PHE104     -0.0003
     93  CE2       21.9700   44.4960   -5.1830 C.ar  104  PHE104     -0.0003
     94  CZ        22.4760   44.2090   -3.9410 C.ar  104  PHE104     -0.0000
     95  N         27.2080   40.1820   -4.7920 N.3   116  GLU116     -0.1245
     96  CA        26.8900   41.5120   -5.2040 C.3   116  GLU116      0.1567
     97  C         28.1280   42.1140   -5.8190 C.2   116  GLU116      0.2260
     98  O         29.2460   41.8860   -5.2950 O.2   116  GLU116     -0.2867
     99  CB        26.4660   42.2290   -3.9830 C.3   116  GLU116      0.0388
    100  CG        26.1670   43.6130   -4.1930 C.3   116  GLU116      0.1160
    101  CD        25.7190   44.2670   -2.9580 C.2   116  GLU116      0.3649
    102  OE1       25.7980   43.6230   -1.8760 O.co2 116  GLU116     -0.2457
    103  OE2       25.2390   45.3900   -3.0570 O.co2 116  GLU116     -0.2457
    104  N         29.6130   45.7390   -7.1300 N.3   118  MET118     -0.1245
    105  CA        29.4750   47.1860   -7.2310 C.3   118  MET118      0.1570
    106  C         30.5800   47.7530   -8.1040 C.2   118  MET118      0.2261
    107  O         31.6940   47.2040   -8.1710 O.2   118  MET118     -0.2867
    108  CB        29.5720   47.8380   -5.8340 C.3   118  MET118      0.0387
    109  CG        28.7130   47.2010   -4.7820 C.3   118  MET118      0.0595
    110  SD        28.5980   48.2360   -3.3050 S.3   118  MET118     -0.1393
    111  CE        27.2800   49.3890   -3.7730 C.3   118  MET118      0.0692
    112  N         32.9960   47.6440    1.1830 N.3   130  ILE130     -0.1245
    113  CA        33.0970   46.4210    1.9640 C.3   130  ILE130      0.1561
    114  C         34.4040   45.7160    1.5960 C.2   130  ILE130      0.2260
    115  O         34.7320   45.5510    0.4430 O.2   130  ILE130     -0.2867
    116  CB        31.8590   45.5360    1.7440 C.3   130  ILE130      0.0252
    117  CG1       30.6370   46.2240    2.3480 C.3   130  ILE130      0.0019
    118  CG2       32.1250   44.1730    2.3030 C.3   130  ILE130      0.0019
    119  CD1       29.3280   45.5770    1.9590 C.3   130  ILE130      0.0001
    120  N         28.9220   40.1590    3.1970 N.3   154  ASN154     -0.1240
    121  CA        27.8130   40.8320    3.8070 C.3   154  ASN154      0.1653
    122  C         26.8340   39.7130    4.1170 C.2   154  ASN154      0.2266
    123  O         26.2010   39.1960    3.2520 O.2   154  ASN154     -0.2867
    124  CB        27.2060   41.8950    2.8990 C.3   154  ASN154      0.1155
    125  CG        26.0510   42.6110    3.5540 C.2   154  ASN154      0.2627
    126  OD1       25.6640   42.3190    4.6700 O.2   154  ASN154     -0.2716
    127  ND2       25.4540   43.5340    2.8130 N.am  154  ASN154     -0.0877
    128  N         30.5740   40.4500   -1.4630 N.3   159  VAL159     -0.1245
    129  CA        30.4710   41.7190   -2.1990 C.3   159  VAL159      0.1561
    130  C         31.8120   42.0300   -2.8160 C.2   159  VAL159      0.2260
    131  O         32.8150   42.1530   -2.1190 O.2   159  VAL159     -0.2867
    132  CB        30.0400   42.8780   -1.2750 C.3   159  VAL159      0.0252
    133  CG1       29.7950   44.1280   -2.0990 C.3   159  VAL159      0.0019
    134  CG2       28.8330   42.5200   -0.4760 C.3   159  VAL159      0.0019
    135  N         19.6730   41.9750  -11.0430 N.3   196  THR196     -0.1218
    136  CA        19.5320   43.3720  -10.5920 C.3   196  THR196      0.1862
    137  C         20.6330   44.2240  -11.2170 C.2   196  THR196      0.2287
    138  O         21.8000   43.8370  -11.1070 O.2   196  THR196     -0.2866
    139  CB        19.6140   43.4290   -9.0620 C.3   196  THR196      0.1770
    140  OG1       18.6730   42.5140   -8.4660 O.3   196  THR196     -0.2211
    141  CG2       19.3730   44.8290   -8.4720 C.3   196  THR196      0.0375
    142  N         21.4600   48.2400  -10.9610 N.3   198  GLU198     -0.1245
    143  CA        21.1010   49.4930  -10.3090 C.3   198  GLU198      0.1567
    144  C         22.2580   50.4860  -10.3770 C.2   198  GLU198      0.2260
    145  O         23.4120   50.0960  -10.4230 O.2   198  GLU198     -0.2867
    146  CB        20.6730   49.2700   -8.8660 C.3   198  GLU198      0.0388
    147  CG        19.4040   48.4760   -8.8030 C.3   198  GLU198      0.1160
    148  CD        18.9020   48.2180   -7.4040 C.2   198  GLU198      0.3649
    149  OE1       19.6320   48.3460   -6.4100 O.co2 198  GLU198     -0.2457
    150  OE2       17.6890   47.7940   -7.3450 O.co2 198  GLU198     -0.2457
    151  N         25.2670   55.8600   -2.4000 N.3   202  GLU202     -0.1245
    152  CA        25.2100   55.5480   -0.9720 C.3   202  GLU202      0.1567
    153  C         25.7610   56.7020   -0.1560 C.2   202  GLU202      0.2260
    154  O         26.9580   56.9430   -0.1750 O.2   202  GLU202     -0.2867
    155  CB        26.0570   54.3280   -0.6370 C.3   202  GLU202      0.0388
    156  CG        25.6330   53.0250   -1.3020 C.3   202  GLU202      0.1160
    157  CD        26.4840   51.8840   -0.8150 C.2   202  GLU202      0.3649
    158  OE1       27.6920   51.8490   -1.1280 O.co2 202  GLU202     -0.2457
    159  OE2       25.9360   51.0020   -0.1150 O.co2 202  GLU202     -0.2457
@<TRIPOS>BOND
     1   137   138    2
     2   137   136    1
     3   135   136    1
     4   142   143    1
     5   136   139    1
     6   145   144    2
     7   144   143    1
     8   143   146    1
     9    87    86    2
    10   139   141    1
    11   139   140    1
    12    79    78    2
    13   146   147    1
    14   147   148    1
    15    86    85    1
    16    84    85    1
    17    76    77    1
    18    70    71    2
    19    70    69    1
    20    78    77    1
    21   107   106    2
    22   106   105    1
    23    85    88    1
    24    75    73   am
    25    26    25    1
    26    24    25   ar
    27    24    22   ar
    28    77    80    1
    29    69    72    1
    30    69    68    1
    31   148   150   ar
    32   148   149   ar
    33    67    66    1
    34   105   104    1
    35   105   108    1
    36    25    23   ar
    37    72    73    1
    38    22    20   ar
    39    88    89    1
    40    15    16    1
    41    73    74    2
    42    80    81    1
    43    91    89   ar
    44    91    93   ar
    45    23    21   ar
    46    66    65   ar
    47    66    64   ar
    48    20    21   ar
    49    20    19    1
    50    89    90   ar
    51   108   109    1
    52    97    98    2
    53    97    96    1
    54    16    19    1
    55    16    17    1
    56    65    63   ar
    57    81    82   ar
    58    81    83   ar
    59    96    95    1
    60    96    99    1
    61    64    62   ar
    62    93    94   ar
    63   109   110    1
    64    18    17    2
    65    90    92   ar
    66    63    61   ar
    67   100    99    1
    68   100   101    1
    69    94    92   ar
    70    62    61   ar
    71   111   110    1
    72    61    60    1
    73    59    58    2
    74   103   101   ar
    75   101   102   ar
    76   130   129    1
    77   130   131    2
    78    58    57    1
    79   151   152    1
    80   129   128    1
    81   129   132    1
    82   133   132    1
    83    60    57    1
    84    34    32   ar
    85    57    56    1
    86    31    32    1
    87    31    28    1
    88     4     3    2
    89   156   157    1
    90   156   155    1
    91   132   134    1
    92    27    28    1
    93    32    33   ar
    94   158   157   ar
    95   152   155    1
    96   152   153    1
    97   157   159   ar
    98     3     2    1
    99    28    29    1
   100   154   153    2
   101   115   114    2
   102     2     5    1
   103     2     1    1
   104    29    30    2
   105     5     6    1
   106   112   113    1
   107    11    13   ar
   108    11     8   ar
   109   114   113    1
   110    41    43   ar
   111    41    40   ar
   112    43    44   ar
   113    13    14   ar
   114   116   113    1
   115   116   118    1
   116   116   117    1
   117   119   117    1
   118     6     8   ar
   119     6     7   ar
   120     8    10   ar
   121    54    53    1
   122    40    39    1
   123    40    42   ar
   124    44    46   ar
   125    44    42   ar
   126   127   125   am
   127    55    53    1
   128   124   125    1
   129   124   121    1
   130    14    12   ar
   131   120   121    1
   132    39    36    1
   133   123   122    2
   134    35    36    1
   135    46    48   ar
   136    53    50    1
   137     7     9   ar
   138   125   126    2
   139    42    45   ar
   140    10    12   ar
   141    10     9   ar
   142   121   122    1
   143    36    37    1
   144    48    47   ar
   145    50    51    1
   146    50    49    1
   147    45    47   ar
   148    51    52    2
   149    37    38    2
