@<TRIPOS>MOLECULE
tmp/3vljB01.pdb
 156 151 0 0 0
SMALL
GASTEIGER

@<TRIPOS>ATOM
      1  N        101.3550   31.6920   27.2820 N.3    75  ARG75      -0.1245
      2  CA       102.1780   30.5680   26.8500 C.3    75  ARG75       0.1563
      3  C        102.6050   29.7570   28.0760 C.2    75  ARG75       0.2260
      4  O        102.5880   28.5230   28.0600 O.2    75  ARG75      -0.2867
      5  CB       103.4130   31.0660   26.0930 C.3    75  ARG75       0.0307
      6  CG       104.4420   29.9700   25.8370 C.3    75  ARG75       0.0489
      7  CD       105.6320   30.4680   25.0260 C.3    75  ARG75       0.2205
      8  NE       106.6790   29.4450   25.0000 N.pl3  75  ARG75      -0.0865
      9  CZ       107.9200   29.6250   25.4410 C.cat  75  ARG75       0.5346
     10  NH1      108.2950   30.7950   25.9420 N.pl3  75  ARG75       0.1354
     11  NH2      108.7850   28.6180   25.4040 N.pl3  75  ARG75       0.1354
     12  N         99.6140   27.7420   29.2320 N.3    78  TRP78      -0.1227
     13  CA        99.3170   26.6930   28.2760 C.3    78  TRP78       0.1737
     14  C        100.3240   25.5480   28.4320 C.2    78  TRP78       0.2595
     15  O         99.9470   24.3780   28.4210 O.2    78  TRP78      -0.2718
     16  CB        99.3310   27.2870   26.8630 C.3    78  TRP78       0.0564
     17  CG        99.8070   26.3710   25.7850 C.ar   78  TRP78       0.0003
     18  CD1      100.8370   26.6010   24.9390 C.ar   78  TRP78       0.0946
     19  CD2       99.2700   25.0930   25.4260 C.ar   78  TRP78       0.0152
     20  NE1      100.9920   25.5510   24.0680 N.ar   78  TRP78      -0.2442
     21  CE2      100.0410   24.6090   24.3450 C.ar   78  TRP78       0.0810
     22  CE3       98.2160   24.3100   25.9110 C.ar   78  TRP78       0.0012
     23  CZ2       99.7920   23.3840   23.7410 C.ar   78  TRP78       0.0191
     24  CZ3       97.9690   23.0890   25.3070 C.ar   78  TRP78       0.0001
     25  CH2       98.7540   22.6430   24.2340 C.ar   78  TRP78       0.0015
     26  N        101.6020   25.8720   28.6050 N.am   79  HIS79      -0.1975
     27  CA       102.5810   24.8080   28.7710 C.3    79  HIS79       0.1656
     28  C        102.4290   24.0980   30.1060 C.2    79  HIS79       0.2291
     29  O        102.6690   22.8990   30.2030 O.2    79  HIS79      -0.2864
     30  CB       104.0030   25.3400   28.6020 C.3    79  HIS79       0.0771
     31  CG       104.3960   25.5150   27.1700 C.ar   79  HIS79       0.0820
     32  ND1      105.7090   25.5760   26.7550 N.ar   79  HIS79      -0.2267
     33  CD2      103.6420   25.6170   26.0510 C.ar   79  HIS79       0.1154
     34  CE1      105.7460   25.7050   25.4410 C.ar   79  HIS79       0.1986
     35  NE2      104.5050   25.7310   24.9900 N.ar   79  HIS79      -0.2212
     36  N        113.1580   21.8810   25.8630 N.3   107  PRO107     -0.2102
     37  CA       113.3810   22.9640   24.9030 C.3   107  PRO107      0.1504
     38  C        112.1040   23.7810   24.6730 C.2   107  PRO107      0.2575
     39  O        112.1670   24.9880   24.4330 O.2   107  PRO107     -0.2718
     40  CB       113.8480   22.2250   23.6440 C.3   107  PRO107      0.0282
     41  CG       113.2420   20.8490   23.8010 C.3   107  PRO107      0.0208
     42  CD       113.4500   20.5690   25.2660 C.3   107  PRO107      0.0893
     43  N        110.9510   23.1190   24.7560 N.am  108  ASP108     -0.1974
     44  CA       109.6620   23.7870   24.5630 C.3   108  ASP108      0.1708
     45  C        109.3580   24.8010   25.6570 C.2   108  ASP108      0.2293
     46  O        108.5160   25.6780   25.4810 O.2   108  ASP108     -0.2864
     47  CB       108.5130   22.7740   24.5220 C.3   108  ASP108      0.1436
     48  CG       107.8950   22.6520   23.1450 C.2   108  ASP108      0.3671
     49  OD1      106.7070   22.2710   23.0470 O.co2 108  ASP108     -0.2456
     50  OD2      108.6060   22.9270   22.1550 O.co2 108  ASP108     -0.2456
     51  N        111.6120   26.8670   26.9240 N.3   110  ALA110     -0.1245
     52  CA       112.6720   27.8640   26.9230 C.3   110  ALA110      0.1562
     53  C        112.1200   29.2420   27.2750 C.2   110  ALA110      0.2260
     54  O        111.0940   29.6830   26.7340 O.2   110  ALA110     -0.2867
     55  CB       113.3600   27.9090   25.5600 C.3   110  ALA110      0.0290
     56  N        114.2130   16.9390   21.7220 N.3   177  GLU177     -0.1245
     57  CA       113.9860   17.3910   20.3530 C.3   177  GLU177      0.1567
     58  C        114.1910   16.2970   19.3070 C.2   177  GLU177      0.2260
     59  O        114.4490   16.5870   18.1400 O.2   177  GLU177     -0.2867
     60  CB       114.8890   18.5860   20.0370 C.3   177  GLU177      0.0388
     61  CG       114.7400   19.7320   21.0200 C.3   177  GLU177      0.1160
     62  CD       115.6940   20.8770   20.7420 C.2   177  GLU177      0.3649
     63  OE1      116.9180   20.6320   20.6670 O.co2 177  GLU177     -0.2457
     64  OE2      115.2210   22.0240   20.6080 O.co2 177  GLU177     -0.2457
     65  N        108.8010   18.2170   23.9120 N.3   199  LEU199     -0.1231
     66  CA       107.8220   19.1630   23.3800 C.3   199  LEU199      0.1693
     67  C        106.4710   18.9260   24.0550 C.2   199  LEU199      0.2591
     68  O        106.2080   17.8370   24.5640 O.2   199  LEU199     -0.2718
     69  CB       107.6740   19.0020   21.8590 C.3   199  LEU199      0.0284
     70  CG       108.9330   19.1450   20.9900 C.3   199  LEU199      0.0019
     71  CD1      108.5260   19.1260   19.5210 C.3   199  LEU199      0.0001
     72  CD2      109.6640   20.4390   21.3100 C.3   199  LEU199      0.0001
     73  N        105.6180   19.9420   24.0580 N.am  200  ILE200     -0.1980
     74  CA       104.3110   19.8200   24.6890 C.3   200  ILE200      0.1595
     75  C        103.3940   18.8890   23.8910 C.2   200  ILE200      0.2287
     76  O        102.8600   17.9230   24.4350 O.2   200  ILE200     -0.2864
     77  CB       103.6460   21.2040   24.8590 C.3   200  ILE200      0.0276
     78  CG1      104.6290   22.1780   25.5190 C.3   200  ILE200      0.0022
     79  CG2      102.4370   21.0910   25.7630 C.3   200  ILE200      0.0022
     80  CD1      105.0930   21.7500   26.9160 C.3   200  ILE200      0.0001
     81  N        103.3890   18.8400   19.6210 N.3   202  VAL202     -0.1231
     82  CA       104.0700   18.5150   18.3670 C.3   202  VAL202      0.1692
     83  C        105.1750   19.4990   17.9910 C.2   202  VAL202      0.2592
     84  O        105.3600   20.5280   18.6450 O.2   202  VAL202     -0.2718
     85  CB       103.0660   18.4490   17.1920 C.3   202  VAL202      0.0266
     86  CG1      101.9380   17.4870   17.5280 C.3   202  VAL202      0.0020
     87  CG2      102.5180   19.8410   16.8910 C.3   202  VAL202      0.0020
     88  N        105.9030   19.1680   16.9250 N.am  203  ASN203     -0.1961
     89  CA       106.9930   20.0000   16.4160 C.3   203  ASN203      0.1804
     90  C        106.3830   21.1430   15.5990 C.2   203  ASN203      0.2463
     91  O        105.6690   20.9040   14.6250 O.2   203  ASN203     -0.2730
     92  CB       107.9110   19.1570   15.5250 C.3   203  ASN203      0.1195
     93  CG       109.1420   19.9140   15.0650 C.2   203  ASN203      0.2630
     94  OD1      109.1070   21.1270   14.8710 O.2   203  ASN203     -0.2716
     95  ND2      110.2400   19.1900   14.8690 N.am  203  ASN203     -0.0877
     96  N        106.6710   22.4000   15.9740 N.am  204  PRO204     -0.2716
     97  CA       106.1270   23.5600   15.2600 C.3   204  PRO204      0.1536
     98  C        106.5650   23.7080   13.8050 C.2   204  PRO204      0.2598
     99  O        105.9190   24.4140   13.0300 O.2   204  PRO204     -0.2715
    100  CB       106.5770   24.7350   16.1250 C.3   204  PRO204      0.0310
    101  CG       107.8930   24.2630   16.6420 C.3   204  PRO204      0.0237
    102  CD       107.5920   22.8320   17.0410 C.3   204  PRO204      0.0939
    103  N        107.6600   23.0520   13.4340 N.am  205  GLU205     -0.1978
    104  CA       108.1520   23.1350   12.0630 C.3   205  GLU205      0.1602
    105  C        107.5220   22.0680   11.1850 C.2   205  GLU205      0.2287
    106  O        107.5890   22.1480    9.9570 O.2   205  GLU205     -0.2864
    107  CB       109.6730   22.9690   12.0230 C.3   205  GLU205      0.0415
    108  CG       110.4530   24.0700   12.7040 C.3   205  GLU205      0.1163
    109  CD       111.9510   23.8620   12.5730 C.2   205  GLU205      0.3649
    110  OE1      112.4720   23.9710   11.4410 O.co2 205  GLU205     -0.2457
    111  OE2      112.6020   23.5800   13.6020 O.co2 205  GLU205     -0.2457
    112  N        119.0050   29.2710   18.0490 N.3   253  PRO253     -0.2102
    113  CA       119.1130   28.9690   19.4800 C.3   253  PRO253      0.1504
    114  C        120.2200   27.9660   19.8010 C.2   253  PRO253      0.2575
    115  O        120.7720   27.9650   20.9010 O.2   253  PRO253     -0.2718
    116  CB       117.7270   28.4300   19.8230 C.3   253  PRO253      0.0282
    117  CG       117.3040   27.7660   18.5470 C.3   253  PRO253      0.0208
    118  CD       117.7250   28.7800   17.5060 C.3   253  PRO253      0.0893
    119  N        120.5380   27.1160   18.8310 N.am  254  GLU254     -0.1980
    120  CA       121.5640   26.0960   19.0040 C.3   254  GLU254      0.1602
    121  C        122.9350   26.6960   19.3080 C.2   254  GLU254      0.2287
    122  O        123.7210   26.1180   20.0610 O.2   254  GLU254     -0.2864
    123  CB       121.6580   25.2360   17.7380 C.3   254  GLU254      0.0415
    124  CG       122.5500   24.0100   17.8740 C.3   254  GLU254      0.1163
    125  CD       121.9360   22.9350   18.7530 C.2   254  GLU254      0.3649
    126  OE1      122.6200   21.9250   19.0290 O.co2 254  GLU254     -0.2457
    127  OE2      120.7660   23.0970   19.1630 O.co2 254  GLU254     -0.2457
    128  N        122.0950   30.3600   22.4910 N.3   257  LEU257     -0.1245
    129  CA       121.5060   30.2210   23.8180 C.3   257  LEU257      0.1561
    130  C        122.3450   29.3120   24.7050 C.2   257  LEU257      0.2260
    131  O        122.7950   28.2480   24.2750 O.2   257  LEU257     -0.2867
    132  CB       120.0760   29.6770   23.7270 C.3   257  LEU257      0.0270
    133  CG       119.0350   30.5670   23.0390 C.3   257  LEU257      0.0019
    134  CD1      117.6550   29.9420   23.2040 C.3   257  LEU257      0.0001
    135  CD2      119.0540   31.9620   23.6440 C.3   257  LEU257      0.0001
    136  N        113.9440   32.1500   21.5160 N.3   278  THR278     -0.1203
    137  CA       113.2820   31.1280   22.3070 C.3   278  THR278      0.1994
    138  C        113.1760   29.8570   21.4750 C.2   278  THR278      0.2618
    139  O        113.9680   28.9350   21.6550 O.2   278  THR278     -0.2717
    140  CB       111.8900   31.5990   22.7730 C.3   278  THR278      0.1784
    141  OG1      112.0380   32.7870   23.5650 O.3   278  THR278     -0.2211
    142  CG2      111.2070   30.5230   23.6160 C.3   278  THR278      0.0376
    143  N        112.2280   29.8170   20.5410 N.am  279  SER279     -0.1951
    144  CA       112.0430   28.6340   19.7040 C.3   279  SER279      0.1924
    145  C        112.9590   28.5850   18.4800 C.2   279  SER279      0.2314
    146  O        113.2400   27.5090   17.9460 O.2   279  SER279     -0.2863
    147  CB       110.5900   28.5580   19.2290 C.3   279  SER279      0.2116
    148  OG       110.2910   29.6470   18.3710 O.3   279  SER279     -0.2180
    149  N        112.1310   30.3640   15.8780 N.3   281  ILE281     -0.1245
    150  CA       111.2050   30.8300   14.8450 C.3   281  ILE281      0.1561
    151  C        110.9310   32.2970   15.2050 C.2   281  ILE281      0.2260
    152  O        110.8160   32.6270   16.3850 O.2   281  ILE281     -0.2867
    153  CB       109.9030   29.9900   14.8650 C.3   281  ILE281      0.0252
    154  CG1      110.2610   28.4970   14.8800 C.3   281  ILE281      0.0019
    155  CG2      109.0680   30.2910   13.6340 C.3   281  ILE281      0.0019
    156  CD1      109.0740   27.5540   14.9720 C.3   281  ILE281      0.0001
@<TRIPOS>BOND
     1   106   105    2
     2   105   104    1
     3   110   109   ar
     4   107   104    1
     5   107   108    1
     6   104   103    1
     7   109   108    1
     8   109   111   ar
     9    99    98    2
    10   103    98   am
    11   155   153    1
    12    98    97    1
    13    91    90    2
    14   150   153    1
    15   150   151    1
    16   150   149    1
    17   153   154    1
    18    95    93   am
    19    94    93    2
    20   154   156    1
    21    93    92    1
    22   151   152    2
    23    97    96    1
    24    97   100    1
    25    92    89    1
    26    90    96   am
    27    90    89    1
    28    96   102    1
    29   100   101    1
    30    89    88    1
    31   101   102    1
    32    87    85    1
    33    88    83   am
    34    85    86    1
    35    85    82    1
    36   118   112    1
    37   118   117    1
    38   123   124    1
    39   123   120    1
    40   124   125    1
    41   146   145    2
    42    83    82    1
    43    83    84    2
    44   112   113    1
    45    59    58    2
    46    82    81    1
    47   148   147    1
    48   145   144    1
    49   117   116    1
    50   125   126   ar
    51   125   127   ar
    52   119   120    1
    53   119   114   am
    54   120   121    1
    55   147   144    1
    56    58    57    1
    57   121   122    2
    58   113   114    1
    59   113   116    1
    60    71    70    1
    61   144   143    1
    62   114   115    2
    63    60    57    1
    64    60    61    1
    65    57    56    1
    66   143   138   am
    67    64    62   ar
    68    63    62   ar
    69    62    61    1
    70    70    72    1
    71    70    69    1
    72   138   139    2
    73   138   137    1
    74   136   137    1
    75    69    66    1
    76    50    48   ar
    77   137   140    1
    78   128   129    1
    79   140   141    1
    80   140   142    1
    81   133   134    1
    82   133   135    1
    83   133   132    1
    84    49    48   ar
    85    48    47    1
    86    66    65    1
    87    66    67    1
    88    40    41    1
    89    40    37    1
    90   132   129    1
    91    23    25   ar
    92    23    21   ar
    93    41    42    1
    94   129   130    1
    95    75    76    2
    96    75    74    1
    97    67    73   am
    98    67    68    2
    99    73    74    1
   100    20    21   ar
   101    20    18   ar
   102    25    24   ar
   103   131   130    2
   104    21    19   ar
   105    39    38    2
   106    47    44    1
   107    44    43    1
   108    44    45    1
   109    38    43   am
   110    38    37    1
   111    74    77    1
   112    77    78    1
   113    77    79    1
   114    37    36    1
   115    18    17   ar
   116    35    34   ar
   117    35    33   ar
   118     8     7    1
   119     8     9    2
   120     7     6    1
   121    42    36    1
   122    24    22   ar
   123    11     9    1
   124    19    17   ar
   125    19    22   ar
   126     9    10    1
   127    34    32   ar
   128    46    45    2
   129    78    80    1
   130    55    52    1
   131    17    16    1
   132     6     5    1
   133    33    31   ar
   134     5     2    1
   135    54    53    2
   136    32    31   ar
   137     2     1    1
   138     2     3    1
   139    16    13    1
   140    52    51    1
   141    52    53    1
   142    31    30    1
   143     4     3    2
   144    13    14    1
   145    13    12    1
   146    15    14    2
   147    14    26   am
   148    30    27    1
   149    26    27    1
   150    27    28    1
   151    28    29    2
