@<TRIPOS>MOLECULE
tmp/3vllA01.pdb
 101 98 0 0 0
SMALL
GASTEIGER

@<TRIPOS>ATOM
      1  N         99.8900   81.1930   41.6970 N.3    75  ARG75      -0.1245
      2  CA        99.5560   80.0630   40.8310 C.3    75  ARG75       0.1563
      3  C        100.8650   79.3860   40.4580 C.2    75  ARG75       0.2260
      4  O        100.9700   78.1620   40.5010 O.2    75  ARG75      -0.2867
      5  CB        98.8390   80.5330   39.5590 C.3    75  ARG75       0.0307
      6  CG        98.4320   79.4020   38.6250 C.3    75  ARG75       0.0489
      7  CD        97.7220   79.9260   37.3770 C.3    75  ARG75       0.2205
      8  NE        97.9180   79.0030   36.2690 N.pl3  75  ARG75      -0.0865
      9  CZ        98.4540   79.3280   35.0950 C.cat  75  ARG75       0.5346
     10  NH1       98.8380   80.5740   34.8550 N.pl3  75  ARG75       0.1354
     11  NH2       98.6490   78.3890   34.1720 N.pl3  75  ARG75       0.1354
     12  N        102.1450   77.3580   43.4000 N.3    78  TRP78      -0.1227
     13  CA       101.2840   76.2130   43.5910 C.3    78  TRP78       0.1737
     14  C        101.5240   75.1470   42.5110 C.2    78  TRP78       0.2595
     15  O        101.5200   73.9470   42.8030 O.2    78  TRP78      -0.2718
     16  CB        99.8290   76.6840   43.6250 C.3    78  TRP78       0.0564
     17  CG        98.8860   75.8050   42.9720 C.ar   78  TRP78       0.0003
     18  CD1       98.2010   76.0540   41.8170 C.ar   78  TRP78       0.0946
     19  CD2       98.4960   74.5070   43.4040 C.ar   78  TRP78       0.0152
     20  NE1       97.4050   74.9830   41.5070 N.ar   78  TRP78      -0.2442
     21  CE2       97.5630   74.0220   42.4670 C.ar   78  TRP78       0.0810
     22  CE3       98.8380   73.7100   44.4970 C.ar   78  TRP78       0.0012
     23  CZ2       96.9750   72.7720   42.5820 C.ar   78  TRP78       0.0191
     24  CZ3       98.2560   72.4660   44.6190 C.ar   78  TRP78       0.0001
     25  CH2       97.3270   72.0100   43.6660 C.ar   78  TRP78       0.0015
     26  N        101.7620   75.5740   41.2730 N.am   79  HIS79      -0.1975
     27  CA       102.0120   74.6110   40.2070 C.3    79  HIS79       0.1656
     28  C        103.3350   73.9000   40.4380 C.2    79  HIS79       0.2291
     29  O        103.4520   72.6890   40.2130 O.2    79  HIS79      -0.2864
     30  CB       102.0160   75.2880   38.8290 C.3    79  HIS79       0.0771
     31  CG       100.6550   75.4030   38.2220 C.ar   79  HIS79       0.0820
     32  ND1      100.2950   74.7260   37.0760 N.ar   79  HIS79      -0.2267
     33  CD2       99.5590   76.0880   38.6170 C.ar   79  HIS79       0.1154
     34  CE1       99.0320   74.9930   36.7920 C.ar   79  HIS79       0.1986
     35  NE2       98.5610   75.8170   37.7110 N.ar   79  HIS79      -0.2212
     36  N         99.5470   71.8890   29.3470 N.3   107  PRO107     -0.2102
     37  CA        98.4850   72.8810   29.1550 C.3   107  PRO107      0.1504
     38  C         98.1610   73.6530   30.4340 C.2   107  PRO107      0.2575
     39  O         97.8950   74.8490   30.3860 O.2   107  PRO107     -0.2718
     40  CB        97.3060   72.0340   28.6850 C.3   107  PRO107      0.0282
     41  CG        97.9690   70.9070   27.9600 C.3   107  PRO107      0.0208
     42  CD        99.1150   70.5600   28.8780 C.3   107  PRO107      0.0893
     43  N         98.1850   72.9680   31.5750 N.am  108  ASP108     -0.1974
     44  CA        97.8750   73.6230   32.8400 C.3   108  ASP108      0.1708
     45  C         98.9300   74.6190   33.3120 C.2   108  ASP108      0.2293
     46  O         98.6740   75.3920   34.2280 O.2   108  ASP108     -0.2864
     47  CB        97.6240   72.5870   33.9400 C.3   108  ASP108      0.1436
     48  CG        98.8570   71.7810   34.2800 C.2   108  ASP108      0.3671
     49  OD1       98.8270   71.0340   35.2850 O.co2 108  ASP108     -0.2456
     50  OD2       99.8630   71.8900   33.5460 O.co2 108  ASP108     -0.2456
     51  N         95.4890   67.4480   28.3160 N.3   177  GLU177     -0.1245
     52  CA        94.1210   67.9280   28.5160 C.3   177  GLU177      0.1567
     53  C         93.0870   66.8620   28.1390 C.2   177  GLU177      0.2260
     54  O         91.9630   67.1720   27.7270 O.2   177  GLU177     -0.2867
     55  CB        93.8830   69.2200   27.7210 C.3   177  GLU177      0.0388
     56  CG        94.4630   70.4650   28.3970 C.3   177  GLU177      0.1160
     57  CD        94.3260   71.7320   27.5600 C.2   177  GLU177      0.3649
     58  OE1       94.9140   71.7900   26.4570 O.co2 177  GLU177     -0.2457
     59  OE2       93.6360   72.6740   28.0100 O.co2 177  GLU177     -0.2457
     60  N         97.2650   67.9090   33.3940 N.3   199  LEU199     -0.1231
     61  CA        96.5890   68.6640   34.4450 C.3   199  LEU199      0.1693
     62  C         97.2520   68.3680   35.7810 C.2   199  LEU199      0.2591
     63  O         97.8870   67.3260   35.9550 O.2   199  LEU199     -0.2718
     64  CB        95.0980   68.3120   34.5240 C.3   199  LEU199      0.0284
     65  CG        94.2080   68.5860   33.3060 C.3   199  LEU199      0.0019
     66  CD1       92.7480   68.5770   33.7540 C.3   199  LEU199      0.0001
     67  CD2       94.5540   69.9270   32.6790 C.3   199  LEU199      0.0001
     68  N         97.0870   69.2800   36.7290 N.am  200  ILE200     -0.1980
     69  CA        97.7020   69.1250   38.0340 C.3   200  ILE200      0.1595
     70  C         96.9570   68.1720   38.9770 C.2   200  ILE200      0.2287
     71  O         97.5360   67.1870   39.4240 O.2   200  ILE200     -0.2864
     72  CB        97.8870   70.5090   38.6970 C.3   200  ILE200      0.0276
     73  CG1       98.8360   70.3930   39.8910 C.3   200  ILE200      0.0022
     74  CG2       96.5480   71.0790   39.1130 C.3   200  ILE200      0.0022
     75  CD1      100.2480   69.9970   39.5000 C.3   200  ILE200      0.0001
     76  N         92.7450   67.8710   39.1330 N.3   202  VAL202     -0.1245
     77  CA        91.4890   67.4240   38.5320 C.3   202  VAL202      0.1561
     78  C         91.0430   68.3460   37.4050 C.2   202  VAL202      0.2260
     79  O         91.5750   69.4400   37.2290 O.2   202  VAL202     -0.2867
     80  CB        90.3580   67.3630   39.5840 C.3   202  VAL202      0.0252
     81  CG1       90.7460   66.4300   40.7170 C.3   202  VAL202      0.0019
     82  CG2       90.0830   68.7620   40.1230 C.3   202  VAL202      0.0019
     83  N         89.1140   71.0700   35.7880 N.3   204  PRO204     -0.2116
     84  CA        88.4320   72.2790   36.2600 C.3   204  PRO204      0.1372
     85  C         86.9470   72.4030   35.8770 C.2   204  PRO204      0.2244
     86  O         86.1810   73.0720   36.5730 O.2   204  PRO204     -0.2868
     87  CB        89.3030   73.4180   35.7080 C.3   204  PRO204      0.0268
     88  CG        90.0120   72.8070   34.5400 C.3   204  PRO204      0.0207
     89  CD        90.3050   71.4060   34.9900 C.3   204  PRO204      0.0892
     90  N         93.3360   80.9470   28.0770 N.3   276  THR276     -0.1203
     91  CA        94.1160   79.7700   28.4370 C.3   276  THR276      0.1994
     92  C         93.2620   78.5080   28.4130 C.2   276  THR276      0.2617
     93  O         93.7560   77.4300   28.0880 O.2   276  THR276     -0.2717
     94  CB        94.7350   79.9100   29.8520 C.3   276  THR276      0.1784
     95  OG1       95.5770   81.0680   29.9020 O.3   276  THR276     -0.2211
     96  CG2       95.5660   78.6790   30.1920 C.3   276  THR276      0.0376
     97  N         91.9800   78.6430   28.7510 N.am  277  ALA277     -0.1979
     98  CA        91.0820   77.4910   28.7860 C.3   277  ALA277      0.1597
     99  C         89.5840   77.8160   28.7810 C.2   277  ALA277      0.2287
    100  O         88.8330   77.3060   29.6150 O.2   277  ALA277     -0.2864
    101  CB        91.4170   76.6270   30.0030 C.3   277  ALA277      0.0319
@<TRIPOS>BOND
     1    58    57   ar
     2    57    59   ar
     3    57    56    1
     4    55    56    1
     5    55    52    1
     6    54    53    2
     7    41    40    1
     8    41    42    1
     9    90    91    1
    10    93    92    2
    11    53    52    1
    12    51    52    1
    13    92    91    1
    14    92    97   am
    15    91    94    1
    16    40    37    1
    17    97    98    1
    18    99    98    1
    19    99   100    2
    20    98   101    1
    21    42    36    1
    22    37    36    1
    23    37    38    1
    24    94    95    1
    25    94    96    1
    26    39    38    2
    27    38    43   am
    28    43    44    1
    29    67    65    1
    30    44    45    1
    31    44    47    1
    32    65    66    1
    33    65    64    1
    34    45    46    2
    35    60    61    1
    36    50    48   ar
    37    47    48    1
    38    11     9    1
    39    48    49   ar
    40    61    64    1
    41    61    62    1
    42    88    89    1
    43    88    87    1
    44    10     9    1
    45    89    83    1
    46     9     8    2
    47    87    84    1
    48    62    63    2
    49    62    68   am
    50    83    84    1
    51    85    84    1
    52    85    86    2
    53     8     7    1
    54    68    69    1
    55    34    32   ar
    56    34    35   ar
    57    32    31   ar
    58    79    78    2
    59     7     6    1
    60    78    77    1
    61    35    33   ar
    62    69    72    1
    63    69    70    1
    64    31    33   ar
    65    31    30    1
    66    77    76    1
    67    77    80    1
    68     6     5    1
    69    72    74    1
    70    72    73    1
    71    30    27    1
    72    70    71    2
    73    75    73    1
    74     5     2    1
    75    80    82    1
    76    80    81    1
    77    27    28    1
    78    27    26    1
    79    29    28    2
    80     3     4    2
    81     3     2    1
    82     2     1    1
    83    26    14   am
    84    20    18   ar
    85    20    21   ar
    86    18    17   ar
    87    21    23   ar
    88    21    19   ar
    89    14    15    2
    90    14    13    1
    91    23    25   ar
    92    17    19   ar
    93    17    16    1
    94    12    13    1
    95    19    22   ar
    96    13    16    1
    97    25    24   ar
    98    22    24   ar
