@<TRIPOS>MOLECULE
tmp/3vlmA00.pdb
 257 254 0 0 0
SMALL
GASTEIGER

@<TRIPOS>ATOM
      1  N        135.7140  -27.9680   15.4580 N.3    52  ASP52      -0.1239
      2  CA       137.0370  -28.5110   15.3230 C.3    52  ASP52       0.1674
      3  C        137.3830  -29.1950   16.6290 C.2    52  ASP52       0.2266
      4  O        137.0260  -28.6640   17.6980 O.2    52  ASP52      -0.2867
      5  CB       138.0220  -27.3870   15.1180 C.3    52  ASP52       0.1410
      6  CG       137.9930  -26.8360   13.7280 C.2    52  ASP52       0.3668
      7  OD1      138.6300  -25.7860   13.5330 O.co2  52  ASP52      -0.2456
      8  OD2      137.3360  -27.4190   12.8430 O.co2  52  ASP52      -0.2456
      9  N        138.0540  -22.3540   20.6310 N.3    58  PRO58      -0.2102
     10  CA       138.9060  -21.4900   19.7140 C.3    58  PRO58       0.1504
     11  C        138.1250  -20.5750   18.7880 C.2    58  PRO58       0.2575
     12  O        138.3060  -19.3640   18.8510 O.2    58  PRO58      -0.2718
     13  CB       139.7260  -22.4970   18.9390 C.3    58  PRO58       0.0282
     14  CG       139.9370  -23.5780   20.0630 C.3    58  PRO58       0.0208
     15  CD       138.5740  -23.7260   20.7000 C.3    58  PRO58       0.0893
     16  N        137.1680  -21.1030   18.0500 N.am   59  LEU59      -0.1980
     17  CA       136.2600  -20.2140   17.3120 C.3    59  LEU59       0.1596
     18  C        135.7480  -19.0510   18.1770 C.2    59  LEU59       0.2287
     19  O        135.9070  -17.8540   17.8330 O.2    59  LEU59      -0.2864
     20  CB       135.0920  -21.0150   16.7150 C.3    59  LEU59       0.0297
     21  CG       134.4370  -20.3920   15.4870 C.3    59  LEU59       0.0022
     22  CD1      135.4820  -20.1040   14.2870 C.3    59  LEU59       0.0001
     23  CD2      133.3760  -21.3760   15.0990 C.3    59  LEU59       0.0001
     24  N        136.9770  -17.8890   20.9890 N.3    61  ILE61      -0.1231
     25  CA       137.9720  -16.9160   21.4300 C.3    61  ILE61       0.1692
     26  C        138.2520  -15.8520   20.3590 C.2    61  ILE61       0.2591
     27  O        138.3940  -14.6440   20.6890 O.2    61  ILE61      -0.2718
     28  CB       139.2940  -17.5510   21.8560 C.3    61  ILE61       0.0266
     29  CG1      139.0950  -18.6050   22.9250 C.3    61  ILE61       0.0019
     30  CG2      140.1830  -16.5160   22.5290 C.3    61  ILE61       0.0020
     31  CD1      140.4030  -19.3060   23.2760 C.3    61  ILE61       0.0001
     32  N        138.3410  -16.2900   19.0860 N.am   62  ARG62      -0.1980
     33  CA       138.7110  -15.4270   17.9790 C.3    62  ARG62       0.1597
     34  C        137.4930  -14.5480   17.6900 C.2    62  ARG62       0.2287
     35  O        137.6000  -13.4260   17.2480 O.2    62  ARG62      -0.2864
     36  CB       139.0530  -16.3020   16.7700 C.3    62  ARG62       0.0334
     37  CG       139.0750  -15.5730   15.4250 C.3    62  ARG62       0.0492
     38  CD       138.7660  -16.5070   14.2700 C.3    62  ARG62       0.2205
     39  NE       138.7830  -15.8440   12.9690 N.pl3  62  ARG62      -0.0865
     40  CZ       137.8810  -16.0400   12.0030 C.cat  62  ARG62       0.5346
     41  NH1      136.8690  -16.8860   12.1680 N.pl3  62  ARG62       0.1354
     42  NH2      137.9960  -15.3800   10.8590 N.pl3  62  ARG62       0.1354
     43  N        137.8390  -11.8270   20.5650 N.3    65  TRP65      -0.1227
     44  CA       138.9910  -11.0380   20.2040 C.3    65  TRP65       0.1737
     45  C        138.7480  -10.1120   18.9690 C.2    65  TRP65       0.2595
     46  O        139.3870   -9.0800   18.8770 O.2    65  TRP65      -0.2718
     47  CB       140.2110  -11.9650   20.0490 C.3    65  TRP65       0.0564
     48  CG       140.9090  -11.7930   18.7490 C.ar   65  TRP65       0.0003
     49  CD1      140.8110  -12.5890   17.6080 C.ar   65  TRP65       0.0946
     50  CD2      141.7920  -10.7380   18.4220 C.ar   65  TRP65       0.0152
     51  NE1      141.6040  -12.0790   16.5970 N.ar   65  TRP65      -0.2442
     52  CE2      142.2180  -10.9430   17.0650 C.ar   65  TRP65       0.0810
     53  CE3      142.2610   -9.6320   19.1340 C.ar   65  TRP65       0.0012
     54  CZ2      143.1080  -10.0850   16.4300 C.ar   65  TRP65       0.0191
     55  CZ3      143.1070   -8.7790   18.5230 C.ar   65  TRP65       0.0001
     56  CH2      143.5380   -9.0000   17.1630 C.ar   65  TRP65       0.0015
     57  N        137.8190  -10.4430   18.0730 N.am   66  HIS66      -0.1975
     58  CA       137.5310   -9.6230   16.8540 C.3    66  HIS66       0.1656
     59  C        136.4780   -8.5680   17.1410 C.2    66  HIS66       0.2291
     60  O        136.5290   -7.4500   16.5880 O.2    66  HIS66      -0.2864
     61  CB       137.0050  -10.4850   15.6710 C.3    66  HIS66       0.0771
     62  CG       138.0760  -11.1110   14.8290 C.ar   66  HIS66       0.0820
     63  ND1      137.8940  -11.4030   13.4880 N.ar   66  HIS66      -0.2267
     64  CD2      139.3440  -11.4830   15.1200 C.ar   66  HIS66       0.1154
     65  CE1      138.9990  -11.9330   12.9950 C.ar   66  HIS66       0.1986
     66  NE2      139.8950  -11.9940   13.9630 N.ar   66  HIS66      -0.2212
     67  N        143.7620   -6.4160   12.3930 N.3   165  TYR165     -0.1227
     68  CA       145.0910   -5.8980   12.7090 C.3   165  TYR165      0.1736
     69  C        146.0660   -5.8290   11.5310 C.2   165  TYR165      0.2595
     70  O        146.3330   -4.7180   11.0010 O.2   165  TYR165     -0.2718
     71  CB       145.6650   -6.5840   13.9580 C.3   165  TYR165      0.0548
     72  CG       145.0840   -5.8790   15.1450 C.ar  165  TYR165     -0.0200
     73  CD1      144.8740   -6.5090   16.3710 C.ar  165  TYR165     -0.0009
     74  CD2      144.6850   -4.5470   15.0090 C.ar  165  TYR165     -0.0009
     75  CE1      144.2980   -5.7930   17.4660 C.ar  165  TYR165      0.0417
     76  CE2      144.1080   -3.8430   16.0470 C.ar  165  TYR165      0.0417
     77  CZ       143.9230   -4.4600   17.2780 C.ar  165  TYR165      0.1957
     78  OH       143.3570   -3.6760   18.2630 O.3   165  TYR165     -0.2866
     79  N        146.5950   -6.9770   11.1080 N.am  166  VAL166     -0.1980
     80  CA       147.5710   -6.9820   10.0130 C.3   166  VAL166      0.1595
     81  C        147.2890   -8.0460    8.9690 C.2   166  VAL166      0.2287
     82  O        146.3260   -8.8120    9.1240 O.2   166  VAL166     -0.2864
     83  CB       149.0120   -7.0480   10.5260 C.3   166  VAL166      0.0276
     84  CG1      149.2550   -5.8970   11.4610 C.3   166  VAL166      0.0022
     85  CG2      149.2630   -8.3190   11.2310 C.3   166  VAL166      0.0022
     86  N        147.8070  -11.3970    7.8020 N.3   168  PRO168     -0.2116
     87  CA       148.4230  -12.5850    8.3520 C.3   168  PRO168      0.1372
     88  C        149.4970  -13.2050    7.4660 C.2   168  PRO168      0.2244
     89  O        150.1930  -14.0750    7.9420 O.2   168  PRO168     -0.2868
     90  CB       147.2640  -13.5400    8.4550 C.3   168  PRO168      0.0268
     91  CG       146.3570  -13.1460    7.4010 C.3   168  PRO168      0.0207
     92  CD       146.4250  -11.6710    7.3560 C.3   168  PRO168      0.0892
     93  N        153.1040   -4.9880   13.3910 N.3   184  ILE184     -0.1245
     94  CA       152.4060   -5.5600   14.5320 C.3   184  ILE184      0.1561
     95  C        152.4650   -4.5010   15.5700 C.2   184  ILE184      0.2260
     96  O        151.4400   -4.1010   16.0550 O.2   184  ILE184     -0.2867
     97  CB       153.0680   -6.8160   15.1090 C.3   184  ILE184      0.0252
     98  CG1      152.9840   -7.9620   14.1220 C.3   184  ILE184      0.0019
     99  CG2      152.4070   -7.2180   16.4230 C.3   184  ILE184      0.0019
    100  CD1      151.6490   -8.5600   14.0540 C.3   184  ILE184      0.0001
    101  N        149.3620   -2.1330   17.0910 N.3   188  PHE188     -0.1241
    102  CA       149.0750   -2.6020   18.4280 C.3   188  PHE188      0.1605
    103  C        149.2930   -1.4370   19.3630 C.2   188  PHE188      0.2264
    104  O        148.6640   -1.3230   20.4180 O.2   188  PHE188     -0.2867
    105  CB       149.8900   -3.8660   18.7860 C.3   188  PHE188      0.0534
    106  CG       149.1230   -5.1350   18.5600 C.ar  188  PHE188     -0.0203
    107  CD1      148.9920   -5.6720   17.2790 C.ar  188  PHE188     -0.0042
    108  CD2      148.4600   -5.7520   19.6080 C.ar  188  PHE188     -0.0042
    109  CE1      148.2470   -6.8250   17.0500 C.ar  188  PHE188     -0.0003
    110  CE2      147.7060   -6.9130   19.3960 C.ar  188  PHE188     -0.0003
    111  CZ       147.6000   -7.4530   18.1130 C.ar  188  PHE188     -0.0000
    112  N        149.1190  -11.4560   24.0790 N.3   201  LEU201     -0.1231
    113  CA       147.8570  -11.7190   23.4090 C.3   201  LEU201      0.1693
    114  C        148.0270  -12.6250   22.1790 C.2   201  LEU201      0.2591
    115  O        147.3430  -13.6420   22.0900 O.2   201  LEU201     -0.2718
    116  CB       147.1810  -10.4150   22.9750 C.3   201  LEU201      0.0284
    117  CG       146.4480   -9.5660   23.9720 C.3   201  LEU201      0.0019
    118  CD1      146.0810   -8.2610   23.3110 C.3   201  LEU201      0.0001
    119  CD2      145.2120  -10.2510   24.5580 C.3   201  LEU201      0.0001
    120  N        148.9160  -12.2730   21.2290 N.am  202  ILE202     -0.1980
    121  CA       149.1070  -13.1140   20.0250 C.3   202  ILE202      0.1595
    122  C        149.5200  -14.5200   20.4330 C.2   202  ILE202      0.2287
    123  O        148.9050  -15.5170   20.0100 O.2   202  ILE202     -0.2864
    124  CB       150.2290  -12.5960   19.0620 C.3   202  ILE202      0.0276
    125  CG1      149.9770  -11.1870   18.5870 C.3   202  ILE202      0.0022
    126  CG2      150.4350  -13.5550   17.8670 C.3   202  ILE202      0.0022
    127  CD1      150.9450  -10.8040   17.4070 C.3   202  ILE202      0.0001
    128  N        146.5310  -16.4340   22.2580 N.3   205  GLY205     -0.1210
    129  CA       145.4580  -16.7360   21.3110 C.3   205  GLY205      0.1956
    130  C        145.8700  -17.9690   20.5440 C.2   205  GLY205      0.2611
    131  O        145.3760  -19.0370   20.7710 O.2   205  GLY205     -0.2717
    132  N        146.8360  -17.8340   19.6610 N.am  206  HIS206     -0.1975
    133  CA       147.2100  -18.9710   18.8100 C.3   206  HIS206      0.1656
    134  C        147.6690  -20.2210   19.5380 C.2   206  HIS206      0.2291
    135  O        147.9350  -21.2690   18.8830 O.2   206  HIS206     -0.2864
    136  CB       148.1510  -18.5290   17.7240 C.3   206  HIS206      0.0771
    137  CG       147.6060  -17.3720   16.9530 C.ar  206  HIS206      0.0820
    138  ND1      148.4200  -16.3890   16.4450 N.ar  206  HIS206     -0.2267
    139  CD2      146.3290  -17.0120   16.6540 C.ar  206  HIS206      0.1154
    140  CE1      147.6840  -15.4580   15.8640 C.ar  206  HIS206      0.1986
    141  NE2      146.3840  -15.7910   15.9870 N.ar  206  HIS206     -0.2212
    142  N        145.5460  -21.7710   21.0330 N.3   208  PHE208     -0.1227
    143  CA       144.3600  -22.5310   20.7800 C.3   208  PHE208      0.1736
    144  C        144.0760  -22.5590   19.2160 C.2   208  PHE208      0.2596
    145  O        144.5270  -21.6600   18.5040 O.2   208  PHE208     -0.2718
    146  CB       143.2140  -21.8360   21.4720 C.3   208  PHE208      0.0547
    147  CG       143.3990  -21.6600   22.9990 C.ar  208  PHE208     -0.0202
    148  CD1      143.8450  -20.4540   23.5270 C.ar  208  PHE208     -0.0042
    149  CD2      143.0790  -22.6870   23.8770 C.ar  208  PHE208     -0.0042
    150  CE1      143.9870  -20.2720   24.9210 C.ar  208  PHE208     -0.0003
    151  CE2      143.2200  -22.5210   25.2740 C.ar  208  PHE208     -0.0003
    152  CZ       143.6740  -21.3090   25.8020 C.ar  208  PHE208     -0.0000
    153  N        143.3440  -23.5920   18.7510 N.am  209  GLY209     -0.1942
    154  CA       142.6400  -23.6040   17.4810 C.3   209  GLY209      0.2014
    155  C        143.4990  -23.8030   16.2550 C.2   209  GLY209      0.2639
    156  O        144.5700  -24.3930   16.3210 O.2   209  GLY209     -0.2714
    157  N        143.0480  -23.2780   15.1360 N.am  210  LYS210     -0.1963
    158  CA       143.8120  -23.4730   13.8910 C.3   210  LYS210      0.1728
    159  C        143.4300  -22.4480   12.8790 C.2   210  LYS210      0.2616
    160  O        142.5710  -21.5960   13.1490 O.2   210  LYS210     -0.2715
    161  CB       143.5270  -24.8420   13.3360 C.3   210  LYS210      0.0311
    162  CG       142.0920  -25.0800   12.9840 C.3   210  LYS210      0.0038
    163  CD       141.9380  -26.4110   12.4400 C.3   210  LYS210      0.0206
    164  CE       142.7710  -26.5000   11.0420 C.3   210  LYS210      0.1093
    165  NZ       141.9360  -27.1930   10.0580 N.3   210  LYS210     -0.1314
    166  N        144.0460  -22.5170   11.6950 N.am  211  VAL211     -0.1963
    167  CA       143.6460  -21.6320   10.6240 C.3   211  VAL211      0.1727
    168  C        143.1390  -22.5140    9.4810 C.2   211  VAL211      0.2616
    169  O        143.8610  -23.3760    8.9790 O.2   211  VAL211     -0.2715
    170  CB       144.8230  -20.7450   10.1340 C.3   211  VAL211      0.0290
    171  CG1      145.5170  -20.0150   11.2770 C.3   211  VAL211      0.0023
    172  CG2      145.8150  -21.5460    9.3830 C.3   211  VAL211      0.0023
    173  N        141.9170  -22.2780    9.0370 N.am  212  HIS212     -0.1973
    174  CA       141.2750  -23.1240    8.0710 C.3   212  HIS212      0.1656
    175  C        141.4860  -22.5590    6.6670 C.2   212  HIS212      0.2291
    176  O        141.1050  -21.4320    6.3800 O.2   212  HIS212     -0.2864
    177  CB       139.7880  -23.2010    8.3720 C.3   212  HIS212      0.0771
    178  CG       139.4780  -23.4610    9.8120 C.ar  212  HIS212      0.0820
    179  ND1      139.9790  -22.6860   10.8280 N.ar  212  HIS212     -0.2267
    180  CD2      138.6760  -24.3730   10.4010 C.ar  212  HIS212      0.1154
    181  CE1      139.5150  -23.1150   11.9850 C.ar  212  HIS212      0.1986
    182  NE2      138.7190  -24.1360   11.7540 N.ar  212  HIS212     -0.2212
    183  N        138.4610  -20.2630    5.6100 N.3   241  THR241     -0.1203
    184  CA       138.0600  -19.0520    6.2500 C.3   241  THR241      0.1994
    185  C        138.9770  -17.9650    5.9200 C.2   241  THR241      0.2618
    186  O        138.5490  -16.9830    5.3650 O.2   241  THR241     -0.2717
    187  CB       138.1310  -19.2240    7.7630 C.3   241  THR241      0.1784
    188  OG1      137.2080  -20.2370    8.0710 O.3   241  THR241     -0.2211
    189  CG2      137.7440  -17.9250    8.4550 C.3   241  THR241      0.0376
    190  N        140.2370  -18.1320    6.3230 N.am  242  SER242     -0.1951
    191  CA       141.2800  -17.2170    5.9460 C.3   242  SER242      0.1924
    192  C        142.1230  -17.6920    4.7560 C.2   242  SER242      0.2314
    193  O        142.8490  -16.8910    4.1960 O.2   242  SER242     -0.2863
    194  CB       142.1800  -16.9440    7.1420 C.3   242  SER242      0.2116
    195  OG       142.8440  -18.1280    7.5340 O.3   242  SER242     -0.2180
    196  N        144.4020  -20.1430    4.9140 N.3   244  ILE244     -0.1245
    197  CA       145.6590  -20.6210    5.4320 C.3   244  ILE244      0.1561
    198  C        145.2580  -21.8350    6.2400 C.2   244  ILE244      0.2260
    199  O        144.2510  -21.7650    6.9910 O.2   244  ILE244     -0.2867
    200  CB       146.3530  -19.5370    6.3470 C.3   244  ILE244      0.0252
    201  CG1      146.2970  -18.1330    5.7150 C.3   244  ILE244      0.0019
    202  CG2      147.7850  -19.9390    6.6800 C.3   244  ILE244      0.0019
    203  CD1      146.8580  -16.9670    6.5180 C.3   244  ILE244      0.0001
    204  N        148.4250  -24.5470   15.2500 N.3   248  TRP248     -0.1241
    205  CA       149.7000  -24.1050   15.8290 C.3   248  TRP248      0.1605
    206  C        150.2370  -25.1220   16.8350 C.2   248  TRP248      0.2264
    207  O        151.4400  -25.2590   17.0230 O.2   248  TRP248     -0.2867
    208  CB       149.5140  -22.8230   16.6170 C.3   248  TRP248      0.0550
    209  CG       149.2350  -21.6010   15.8600 C.ar  248  TRP248      0.0003
    210  CD1      150.1610  -20.7200   15.2960 C.ar  248  TRP248      0.0946
    211  CD2      147.9570  -21.0310   15.6270 C.ar  248  TRP248      0.0152
    212  NE1      149.4810  -19.6350   14.6930 N.ar  248  TRP248     -0.2442
    213  CE2      148.1430  -19.8400   14.8670 C.ar  248  TRP248      0.0810
    214  CE3      146.6650  -21.4680   15.8790 C.ar  248  TRP248      0.0012
    215  CZ2      147.0730  -19.0490   14.4370 C.ar  248  TRP248      0.0191
    216  CZ3      145.6190  -20.6770   15.4890 C.ar  248  TRP248      0.0001
    217  CH2      145.8160  -19.4830   14.7370 C.ar  248  TRP248      0.0015
    218  N        152.1270  -18.8120   11.2080 N.3   306  LEU306     -0.1245
    219  CA       151.9850  -17.7090   10.2570 C.3   306  LEU306      0.1561
    220  C        153.2170  -16.8450   10.2880 C.2   306  LEU306      0.2260
    221  O        154.1100  -17.0410   11.1080 O.2   306  LEU306     -0.2867
    222  CB       150.7440  -16.8340   10.4750 C.3   306  LEU306      0.0270
    223  CG       149.3920  -17.4470   10.8330 C.3   306  LEU306      0.0019
    224  CD1      148.5350  -16.4230   11.5510 C.3   306  LEU306      0.0001
    225  CD2      148.6460  -18.0510    9.6360 C.3   306  LEU306      0.0001
    226  N        153.0140  -13.6140   10.6110 N.3   308  THR308     -0.1218
    227  CA       152.8360  -12.8290   11.8120 C.3   308  THR308      0.1862
    228  C        153.3240  -13.5600   13.0730 C.2   308  THR308      0.2287
    229  O        153.6490  -12.9080   14.0490 O.2   308  THR308     -0.2866
    230  CB       151.4430  -12.3510   11.9710 C.3   308  THR308      0.1770
    231  OG1      150.5520  -13.4040   11.5840 O.3   308  THR308     -0.2211
    232  CG2      151.2480  -11.1450   11.1220 C.3   308  THR308      0.0375
    233  N        149.1540  -12.4700   29.5830 N.3   336  PHE336     -0.1241
    234  CA       147.9800  -12.9050   28.7820 C.3   336  PHE336      0.1605
    235  C        146.6400  -12.8130   29.4720 C.2   336  PHE336      0.2264
    236  O        145.6720  -12.4150   28.8430 O.2   336  PHE336     -0.2867
    237  CB       148.1210  -14.3150   28.1910 C.3   336  PHE336      0.0534
    238  CG       146.9370  -14.7130   27.3380 C.ar  336  PHE336     -0.0203
    239  CD1      145.8640  -15.4010   27.8960 C.ar  336  PHE336     -0.0042
    240  CD2      146.8830  -14.3660   25.9760 C.ar  336  PHE336     -0.0042
    241  CE1      144.7590  -15.7430   27.1240 C.ar  336  PHE336     -0.0003
    242  CE2      145.7680  -14.7100   25.1900 C.ar  336  PHE336     -0.0003
    243  CZ       144.7090  -15.3940   25.7690 C.ar  336  PHE336     -0.0000
    244  N        144.2120   -9.9160   27.7770 N.3   340  TRP340     -0.1241
    245  CA       142.8440  -10.3270   27.4320 C.3   340  TRP340      0.1605
    246  C        141.8010   -9.4650   28.1440 C.2   340  TRP340      0.2264
    247  O        141.0950   -8.7070   27.4880 O.2   340  TRP340     -0.2867
    248  CB       142.6610  -11.8280   27.6570 C.3   340  TRP340      0.0550
    249  CG       141.2910  -12.4040   27.1930 C.ar  340  TRP340      0.0003
    250  CD1      140.2290  -12.8060   27.9900 C.ar  340  TRP340      0.0946
    251  CD2      140.8590  -12.6050   25.8400 C.ar  340  TRP340      0.0152
    252  NE1      139.1750  -13.2410   27.1940 N.ar  340  TRP340     -0.2442
    253  CE2      139.5410  -13.1350   25.8800 C.ar  340  TRP340      0.0810
    254  CE3      141.4470  -12.3680   24.6010 C.ar  340  TRP340      0.0012
    255  CZ2      138.8260  -13.4370   24.7390 C.ar  340  TRP340      0.0191
    256  CZ3      140.7320  -12.6820   23.4690 C.ar  340  TRP340      0.0001
    257  CH2      139.4230  -13.1940   23.5420 C.ar  340  TRP340      0.0015
@<TRIPOS>BOND
     1   193   192    2
     2   192   191    1
     3   196   197    1
     4   186   185    2
     5   197   198    1
     6   197   200    1
     7   183   184    1
     8   201   200    1
     9   201   203    1
    10   185   184    1
    11   185   190   am
    12   191   190    1
    13   191   194    1
    14   198   199    2
    15   184   187    1
    16   200   202    1
    17   176   175    2
    18   175   174    1
    19   194   195    1
    20    92    91    1
    21    92    86    1
    22    91    90    1
    23    88    89    2
    24    88    87    1
    25   187   188    1
    26   187   189    1
    27    86    87    1
    28   174   177    1
    29   174   173    1
    30    87    90    1
    31   177   178    1
    32    81    82    2
    33    81    80    1
    34   169   168    2
    35   173   168   am
    36   172   170    1
    37   168   167    1
    38   225   223    1
    39   178   180   ar
    40   178   179   ar
    41    80    83    1
    42    80    79    1
    43   165   164    1
    44   170   167    1
    45   170   171    1
    46   219   220    1
    47   219   222    1
    48   219   218    1
    49   220   221    2
    50   180   182   ar
    51   222   223    1
    52    83    85    1
    53    83    84    1
    54   226   227    1
    55   167   166    1
    56   179   181   ar
    57   223   224    1
    58    42    40    1
    59    70    69    2
    60   164   163    1
    61    79    69   am
    62   232   230    1
    63    69    68    1
    64   231   230    1
    65   166   159   am
    66   182   181   ar
    67   227   230    1
    68   227   228    1
    69    40    41    1
    70    40    39    2
    71    67    68    1
    72   163   162    1
    73    68    71    1
    74     8     6   ar
    75   159   160    2
    76   159   158    1
    77    39    38    1
    78   162   161    1
    79    65    63   ar
    80    65    66   ar
    81   228   229    2
    82   161   158    1
    83    93    94    1
    84    63    62   ar
    85     7     6   ar
    86     6     5    1
    87   158   157    1
    88    71    72    1
    89    66    64   ar
    90   100    98    1
    91    98    97    1
    92    38    37    1
    93    22    21    1
    94   215   217   ar
    95   215   213   ar
    96    94    97    1
    97    94    95    1
    98   212   213   ar
    99   212   210   ar
   100   217   216   ar
   101    62    64   ar
   102    62    61    1
   103   213   211   ar
   104    74    72   ar
   105    74    76   ar
   106    23    21    1
   107    97    99    1
   108     5     2    1
   109   157   155   am
   110    72    73   ar
   111   204   205    1
   112   210   209   ar
   113     2     1    1
   114     2     3    1
   115    37    36    1
   116    21    20    1
   117   216   214   ar
   118    95    96    2
   119   211   209   ar
   120   211   214   ar
   121    61    58    1
   122   205   208    1
   123   205   206    1
   124   209   208    1
   125   140   141   ar
   126   140   138   ar
   127   141   139   ar
   128    76    77   ar
   129   155   156    2
   130   155   154    1
   131    73    75   ar
   132    54    52   ar
   133    54    56   ar
   134   138   137   ar
   135    60    59    2
   136    51    52   ar
   137    51    49   ar
   138     3     4    2
   139   139   137   ar
   140    20    17    1
   141    36    33    1
   142   206   207    2
   143    58    59    1
   144    58    57    1
   145   137   136    1
   146   109   107   ar
   147   109   111   ar
   148    52    50   ar
   149   101   102    1
   150    56    55   ar
   151    35    34    2
   152    77    75   ar
   153    77    78    1
   154   107   106   ar
   155    17    16    1
   156    17    18    1
   157   127   125    1
   158   154   153    1
   159    49    48   ar
   160    34    33    1
   161   136   133    1
   162    19    18    2
   163   126   124    1
   164    33    32    1
   165    16    11   am
   166    57    45   am
   167   111   110   ar
   168    50    48   ar
   169    50    53   ar
   170   102   105    1
   171   102   103    1
   172   145   144    2
   173    55    53   ar
   174   106   105    1
   175   106   108   ar
   176   125   124    1
   177    48    47    1
   178   153   144   am
   179    11    12    2
   180    11    10    1
   181   133   134    1
   182   133   132    1
   183    46    45    2
   184   135   134    2
   185    13    10    1
   186    13    14    1
   187    45    44    1
   188   124   121    1
   189    32    26   am
   190   144   143    1
   191   103   104    2
   192   110   108   ar
   193   132   130   am
   194    10     9    1
   195   123   122    2
   196   121   122    1
   197   121   120    1
   198    47    44    1
   199    14    15    1
   200    44    43    1
   201    26    27    2
   202    26    25    1
   203   130   131    2
   204   130   129    1
   205     9    15    1
   206   143   142    1
   207   143   146    1
   208    24    25    1
   209   120   114   am
   210   129   128    1
   211    25    28    1
   212   146   147    1
   213    28    30    1
   214    28    29    1
   215   115   114    2
   216   114   113    1
   217    29    31    1
   218   116   113    1
   219   116   117    1
   220   147   148   ar
   221   147   149   ar
   222   118   117    1
   223   113   112    1
   224   256   257   ar
   225   256   254   ar
   226   148   150   ar
   227   257   255   ar
   228   149   151   ar
   229   117   119    1
   230   254   251   ar
   231   255   253   ar
   232   150   152   ar
   233   242   243   ar
   234   242   240   ar
   235   151   152   ar
   236   243   241   ar
   237   251   253   ar
   238   251   249   ar
   239   253   252   ar
   240   240   238   ar
   241   241   239   ar
   242   249   248    1
   243   249   250   ar
   244   252   250   ar
   245   238   239   ar
   246   238   237    1
   247   245   248    1
   248   245   244    1
   249   245   246    1
   250   247   246    2
   251   237   234    1
   252   234   235    1
   253   234   233    1
   254   236   235    2
