@<TRIPOS>MOLECULE
tmp/3vlwA00.pdb
 196 187 0 0 0
SMALL
GASTEIGER

@<TRIPOS>ATOM
      1  N         38.7280   -9.5930   25.5950 N.3    19  ARG19      -0.1245
      2  CA        38.4270   -9.2540   26.9930 C.3    19  ARG19       0.1563
      3  C         38.8020  -10.3510   27.9980 C.2    19  ARG19       0.2260
      4  O         38.2170  -10.4530   29.0800 O.2    19  ARG19      -0.2867
      5  CB        36.9650   -8.8000   27.1360 C.3    19  ARG19       0.0307
      6  CG        36.7020   -7.4730   26.4410 C.3    19  ARG19       0.0489
      7  CD        35.2290   -7.2080   26.1850 C.3    19  ARG19       0.2205
      8  NE        35.0660   -6.0330   25.3280 N.pl3  19  ARG19      -0.0865
      9  CZ        33.9560   -5.7210   24.6620 C.cat  19  ARG19       0.5346
     10  NH1       33.9280   -4.6300   23.9090 N.pl3  19  ARG19       0.1354
     11  NH2       32.8790   -6.4940   24.7380 N.pl3  19  ARG19       0.1354
     12  N         36.0860   -0.9940   16.0980 N.3   128  TYR128     -0.1241
     13  CA        34.9040   -0.8610   16.9280 C.3   128  TYR128      0.1605
     14  C         34.7080    0.6430   17.1130 C.2   128  TYR128      0.2264
     15  O         35.5800    1.3290   17.6510 O.2   128  TYR128     -0.2867
     16  CB        35.1350   -1.5980   18.2580 C.3   128  TYR128      0.0534
     17  CG        34.2310   -1.2560   19.4350 C.ar  128  TYR128     -0.0201
     18  CD1       32.9020   -0.8590   19.2590 C.ar  128  TYR128     -0.0009
     19  CD2       34.7080   -1.3790   20.7390 C.ar  128  TYR128     -0.0009
     20  CE1       32.0860   -0.5610   20.3640 C.ar  128  TYR128      0.0417
     21  CE2       33.9070   -1.0900   21.8380 C.ar  128  TYR128      0.0417
     22  CZ        32.6020   -0.6860   21.6490 C.ar  128  TYR128      0.1957
     23  OH        31.8260   -0.4120   22.7570 O.3   128  TYR128     -0.2866
     24  N         32.5240    3.2000   18.9370 N.3   130  PRO130     -0.2116
     25  CA        31.5270    3.4930   19.9650 C.3   130  PRO130      0.1372
     26  C         30.6660    4.7010   19.6080 C.2   130  PRO130      0.2244
     27  O         31.0290    5.4900   18.7330 O.2   130  PRO130     -0.2868
     28  CB        32.3790    3.8020   21.2040 C.3   130  PRO130      0.0268
     29  CG        33.6740    3.1290   20.9430 C.3   130  PRO130      0.0207
     30  CD        33.8930    3.2940   19.4740 C.3   130  PRO130      0.0892
     31  N         32.3860    6.7080   32.0160 N.3   136  ARG136     -0.1245
     32  CA        32.3520    6.4210   33.4440 C.3   136  ARG136      0.1563
     33  C         32.1120    7.6530   34.3100 C.2   136  ARG136      0.2260
     34  O         32.4070    8.7850   33.9140 O.2   136  ARG136     -0.2867
     35  CB        33.6640    5.7680   33.8860 C.3   136  ARG136      0.0307
     36  CG        33.9200    4.3720   33.3420 C.3   136  ARG136      0.0489
     37  CD        35.2350    3.8630   33.8730 C.3   136  ARG136      0.2205
     38  NE        35.5120    2.4640   33.5420 N.pl3 136  ARG136     -0.0865
     39  CZ        36.1600    2.0540   32.4560 C.cat 136  ARG136      0.5346
     40  NH1       36.5830    2.9260   31.5520 N.pl3 136  ARG136      0.1354
     41  NH2       36.3690    0.7570   32.2620 N.pl3 136  ARG136      0.1354
     42  N         35.1980   -3.2040   38.9550 N.3   185  ARG185     -0.1231
     43  CA        35.3190   -4.2330   37.9120 C.3   185  ARG185      0.1694
     44  C         36.6950   -4.2460   37.2640 C.2   185  ARG185      0.2592
     45  O         37.2000   -5.3000   36.8740 O.2   185  ARG185     -0.2718
     46  CB        34.3410   -3.9310   36.7760 C.3   185  ARG185      0.0321
     47  CG        32.9100   -4.3050   37.0080 C.3   185  ARG185      0.0489
     48  CD        32.2200   -4.4960   35.6600 C.3   185  ARG185      0.2205
     49  NE        31.8610   -3.2420   35.0020 N.pl3 185  ARG185     -0.0865
     50  CZ        31.3390   -3.1620   33.7780 C.cat 185  ARG185      0.5346
     51  NH1       31.1230   -4.2630   33.0630 N.pl3 185  ARG185      0.1354
     52  NH2       31.0340   -1.9810   33.2630 N.pl3 185  ARG185      0.1354
     53  N         37.2680   -3.0570   37.1080 N.am  186  ASP186     -0.1974
     54  CA        38.5090   -2.8780   36.3740 C.3   186  ASP186      0.1709
     55  C         39.6420   -2.5600   37.3340 C.2   186  ASP186      0.2293
     56  O         39.6100   -1.5200   37.9930 O.2   186  ASP186     -0.2864
     57  CB        38.3560   -1.7450   35.3570 C.3   186  ASP186      0.1436
     58  CG        37.3460   -2.0670   34.2790 C.2   186  ASP186      0.3671
     59  OD1       36.2530   -1.4730   34.2990 O.co2 186  ASP186     -0.2456
     60  OD2       37.6380   -2.9200   33.4190 O.co2 186  ASP186     -0.2456
     61  N         40.3450    6.5370   27.0340 N.3   205  ASN205     -0.1240
     62  CA        39.6550    5.2970   27.4010 C.3   205  ASN205      0.1653
     63  C         40.5500    4.0620   27.2550 C.2   205  ASN205      0.2266
     64  O         40.2660    3.0130   27.8320 O.2   205  ASN205     -0.2867
     65  CB        38.3770    5.1380   26.5610 C.3   205  ASN205      0.1155
     66  CG        37.4850    4.0030   27.0360 C.2   205  ASN205      0.2627
     67  OD1       37.1930    3.0800   26.2780 O.2   205  ASN205     -0.2716
     68  ND2       37.0380    4.0720   28.2880 N.am  205  ASN205     -0.0877
     69  N         30.7870    2.7460   34.2430 N.3   269  TRP269     -0.1241
     70  CA        29.8900    3.2690   33.2110 C.3   269  TRP269      0.1605
     71  C         28.5090    3.5650   33.7840 C.2   269  TRP269      0.2264
     72  O         27.9930    2.7930   34.5920 O.2   269  TRP269     -0.2867
     73  CB        29.7770    2.2780   32.0570 C.3   269  TRP269      0.0550
     74  CG        31.0500    2.0730   31.2840 C.ar  269  TRP269      0.0003
     75  CD1       32.1600    1.3880   31.6970 C.ar  269  TRP269      0.0946
     76  CD2       31.3400    2.5440   29.9620 C.ar  269  TRP269      0.0152
     77  NE1       33.1250    1.4110   30.7190 N.ar  269  TRP269     -0.2442
     78  CE2       32.6480    2.1100   29.6410 C.ar  269  TRP269      0.0810
     79  CE3       30.6220    3.2900   29.0150 C.ar  269  TRP269      0.0012
     80  CZ2       33.2570    2.3980   28.4150 C.ar  269  TRP269      0.0191
     81  CZ3       31.2260    3.5740   27.7920 C.ar  269  TRP269      0.0001
     82  CH2       32.5330    3.1270   27.5050 C.ar  269  TRP269      0.0015
     83  N         25.2320    3.6290   32.6350 N.3   271  ALA271     -0.1231
     84  CA        24.0540    2.7910   32.3930 C.3   271  ALA271      0.1694
     85  C         24.0230    1.4830   33.1970 C.2   271  ALA271      0.2592
     86  O         23.0520    1.2260   33.9200 O.2   271  ALA271     -0.2718
     87  CB        23.8690    2.5200   30.8920 C.3   271  ALA271      0.0304
     88  N         25.0660    0.6620   33.0790 N.am  272  SER272     -0.1952
     89  CA        25.0750   -0.6260   33.7840 C.3   272  SER272      0.1924
     90  C         25.1920   -0.4730   35.3030 C.2   272  SER272      0.2314
     91  O         24.5710   -1.2300   36.0480 O.2   272  SER272     -0.2863
     92  CB        26.1520   -1.5750   33.2420 C.3   272  SER272      0.2116
     93  OG        27.4590   -1.0760   33.4650 O.3   272  SER272     -0.2180
     94  N         34.2060    8.2710   26.3090 N.3   308  ARG308     -0.1245
     95  CA        34.1050    7.3220   25.2070 C.3   308  ARG308      0.1563
     96  C         35.1760    7.6400   24.1620 C.2   308  ARG308      0.2260
     97  O         35.4590    8.8080   23.8820 O.2   308  ARG308     -0.2867
     98  CB        32.7010    7.3620   24.5960 C.3   308  ARG308      0.0307
     99  CG        32.1010    5.9820   24.3520 C.3   308  ARG308      0.0489
    100  CD        30.6140    6.0680   24.0970 C.3   308  ARG308      0.2205
    101  NE        29.8270    6.2660   25.3160 N.pl3 308  ARG308     -0.0865
    102  CZ        28.9000    5.4190   25.7580 C.cat 308  ARG308      0.5346
    103  NH1       28.6290    4.3040   25.0890 N.pl3 308  ARG308      0.1354
    104  NH2       28.2340    5.6880   26.8720 N.pl3 308  ARG308      0.1354
    105  N         37.6760    2.9630   19.0970 N.3   312  ARG312     -0.1245
    106  CA        38.4780    2.1750   20.0320 C.3   312  ARG312      0.1563
    107  C         39.6370    1.4970   19.3020 C.2   312  ARG312      0.2260
    108  O         39.5510    1.2560   18.0940 O.2   312  ARG312     -0.2867
    109  CB        37.6140    1.1050   20.7020 C.3   312  ARG312      0.0307
    110  CG        36.7390    1.5920   21.8580 C.3   312  ARG312      0.0489
    111  CD        37.4660    1.5620   23.1990 C.3   312  ARG312      0.2205
    112  NE        38.2990    0.3730   23.3400 N.pl3 312  ARG312     -0.0865
    113  CZ        39.2310    0.2050   24.2740 C.cat 312  ARG312      0.5346
    114  NH1       39.4510    1.1440   25.1880 N.pl3 312  ARG312      0.1354
    115  NH2       39.9430   -0.9110   24.2920 N.pl3 312  ARG312      0.1354
    116  N         40.1820   -1.3420   18.9430 N.3   314  ASP314     -0.1239
    117  CA        39.6050   -2.6800   18.8450 C.3   314  ASP314      0.1674
    118  C         39.0770   -2.8580   17.4300 C.2   314  ASP314      0.2266
    119  O         38.7540   -1.8760   16.7650 O.2   314  ASP314     -0.2867
    120  CB        38.4320   -2.8430   19.8250 C.3   314  ASP314      0.1410
    121  CG        38.7530   -2.3660   21.2430 C.2   314  ASP314      0.3668
    122  OD1       39.9430   -2.2840   21.6150 O.co2 314  ASP314     -0.2456
    123  OD2       37.7990   -2.0820   21.9970 O.co2 314  ASP314     -0.2456
    124  N         24.2670   -4.8340   27.7540 N.3   374  ASN374     -0.1240
    125  CA        25.5300   -5.1490   27.0800 C.3   374  ASN374      0.1653
    126  C         26.0180   -6.5750   27.3760 C.2   374  ASN374      0.2266
    127  O         26.4310   -7.2830   26.4580 O.2   374  ASN374     -0.2867
    128  CB        26.6200   -4.0870   27.3180 C.3   374  ASN374      0.1155
    129  CG        26.9410   -3.8660   28.7930 C.2   374  ASN374      0.2627
    130  OD1       26.2490   -4.3550   29.6850 O.2   374  ASN374     -0.2716
    131  ND2       28.0020   -3.1080   29.0470 N.am  374  ASN374     -0.0877
    132  N         26.5680   -9.6250   24.5640 N.3   378  TYR378     -0.1241
    133  CA        27.7680  -10.4640   24.4220 C.3   378  TYR378      0.1605
    134  C         27.3830  -11.9380   24.2510 C.2   378  TYR378      0.2264
    135  O         27.9180  -12.6320   23.3820 O.2   378  TYR378     -0.2867
    136  CB        28.7210  -10.3280   25.6240 C.3   378  TYR378      0.0534
    137  CG        29.1520   -8.9200   25.9990 C.ar  378  TYR378     -0.0201
    138  CD1       29.4640   -8.6070   27.3250 C.ar  378  TYR378     -0.0009
    139  CD2       29.2540   -7.9060   25.0430 C.ar  378  TYR378     -0.0009
    140  CE1       29.8670   -7.3250   27.6890 C.ar  378  TYR378      0.0417
    141  CE2       29.6450   -6.6180   25.3990 C.ar  378  TYR378      0.0417
    142  CZ        29.9500   -6.3360   26.7210 C.ar  378  TYR378      0.1957
    143  OH        30.3390   -5.0670   27.0760 O.3   378  TYR378     -0.2866
    144  N         27.4070   -6.3590   20.3920 N.3   383  GLN383     -0.1245
    145  CA        28.2840   -5.4790   21.1800 C.3   383  GLN383      0.1566
    146  C         29.6690   -6.0880   21.4150 C.2   383  GLN383      0.2260
    147  O         30.2840   -5.8790   22.4630 O.2   383  GLN383     -0.2867
    148  CB        27.6370   -5.0800   22.5150 C.3   383  GLN383      0.0367
    149  CG        26.3090   -4.3270   22.3920 C.3   383  GLN383      0.0905
    150  CD        26.4330   -2.9790   21.7010 C.2   383  GLN383      0.2608
    151  OE1       27.4520   -2.2950   21.8090 O.2   383  GLN383     -0.2717
    152  NE2       25.3820   -2.5890   20.9920 N.am  383  GLN383     -0.0878
    153  N         28.6860    1.1190   16.7360 N.3   390  GLN390     -0.1245
    154  CA        27.7550    1.1660   17.8560 C.3   390  GLN390      0.1566
    155  C         26.6920    2.2270   17.6010 C.2   390  GLN390      0.2260
    156  O         26.9580    3.2540   16.9810 O.2   390  GLN390     -0.2867
    157  CB        28.4880    1.4440   19.1730 C.3   390  GLN390      0.0367
    158  CG        27.6840    1.0940   20.4210 C.3   390  GLN390      0.0905
    159  CD        28.4740    1.2900   21.6990 C.2   390  GLN390      0.2608
    160  OE1       29.1560    2.2990   21.8750 O.2   390  GLN390     -0.2717
    161  NE2       28.3790    0.3250   22.6040 N.am  390  GLN390     -0.0878
    162  N         20.7090    1.7800   21.2480 N.3   394  TYR394     -0.1227
    163  CA        20.7220    0.5120   21.9840 C.3   394  TYR394      0.1736
    164  C         20.9020    0.7550   23.4860 C.2   394  TYR394      0.2595
    165  O         20.2700    0.0930   24.3080 O.2   394  TYR394     -0.2718
    166  CB        21.8090   -0.4430   21.4510 C.3   394  TYR394      0.0548
    167  CG        22.9250   -0.7370   22.4400 C.ar  394  TYR394     -0.0200
    168  CD1       22.8140   -1.7940   23.3490 C.ar  394  TYR394     -0.0009
    169  CD2       24.0820    0.0440   22.4740 C.ar  394  TYR394     -0.0009
    170  CE1       23.8220   -2.0640   24.2660 C.ar  394  TYR394      0.0417
    171  CE2       25.0930   -0.2150   23.3880 C.ar  394  TYR394      0.0417
    172  CZ        24.9590   -1.2730   24.2800 C.ar  394  TYR394      0.1957
    173  OH        25.9570   -1.5450   25.1870 O.3   394  TYR394     -0.2866
    174  N         21.7590    1.7150   23.8190 N.am  395  GLU395     -0.1979
    175  CA        22.1330    2.0090   25.1980 C.3   395  GLU395      0.1602
    176  C         21.0840    2.8800   25.8800 C.2   395  GLU395      0.2287
    177  O         20.7990    2.7050   27.0680 O.2   395  GLU395     -0.2864
    178  CB        23.4920    2.7080   25.2210 C.3   395  GLU395      0.0415
    179  CG        24.0910    2.8940   26.6060 C.3   395  GLU395      0.1163
    180  CD        25.5020    3.4350   26.5570 C.2   395  GLU395      0.3649
    181  OE1       26.2730    3.0270   25.6610 O.co2 395  GLU395     -0.2457
    182  OE2       25.8460    4.2630   27.4220 O.co2 395  GLU395     -0.2457
    183  N         18.1930    1.2000   27.8600 N.3   398  TRP398     -0.1241
    184  CA        18.4110    0.6710   29.2080 C.3   398  TRP398      0.1605
    185  C         19.2100    1.6030   30.1180 C.2   398  TRP398      0.2264
    186  O         19.8090    1.1740   31.1110 O.2   398  TRP398     -0.2867
    187  CB        19.0120   -0.7390   29.1640 C.3   398  TRP398      0.0550
    188  CG        20.3190   -0.8570   28.4400 C.ar  398  TRP398      0.0003
    189  CD1       20.5040   -0.8840   27.0890 C.ar  398  TRP398      0.0946
    190  CD2       21.6210   -1.0020   29.0260 C.ar  398  TRP398      0.0152
    191  NE1       21.8370   -1.0220   26.7940 N.ar  398  TRP398     -0.2442
    192  CE2       22.5470   -1.0980   27.9630 C.ar  398  TRP398      0.0810
    193  CE3       22.0950   -1.0570   30.3440 C.ar  398  TRP398      0.0012
    194  CZ2       23.9220   -1.2450   28.1760 C.ar  398  TRP398      0.0191
    195  CZ3       23.4630   -1.2030   30.5550 C.ar  398  TRP398      0.0001
    196  CH2       24.3600   -1.2940   29.4740 C.ar  398  TRP398      0.0015
@<TRIPOS>BOND
     1    12    13    1
     2   153   154    1
     3   119   118    2
     4    13    14    1
     5    13    16    1
     6   156   155    2
     7    14    15    2
     8   118   117    1
     9   155   154    1
    10   154   157    1
    11   108   107    2
    12    16    17    1
    13    27    26    2
    14   117   116    1
    15   117   120    1
    16    24    30    1
    17    24    25    1
    18   105   106    1
    19   157   158    1
    20    18    17   ar
    21    18    20   ar
    22   107   106    1
    23    17    19   ar
    24    30    29    1
    25    26    25    1
    26   120   121    1
    27    25    28    1
    28   106   109    1
    29    20    22   ar
    30   144   145    1
    31   158   159    1
    32   109   110    1
    33    19    21   ar
    34    29    28    1
    35   152   150   am
    36   145   146    1
    37   145   148    1
    38   121   122   ar
    39   121   123   ar
    40   162   163    1
    41   146   147    2
    42   166   163    1
    43   166   167    1
    44    22    21   ar
    45    22    23    1
    46   159   160    2
    47   159   161   am
    48   150   151    2
    49   150   149    1
    50   110   111    1
    51   163   164    1
    52   149   148    1
    53   167   169   ar
    54   167   168   ar
    55   169   171   ar
    56   111   112    1
    57   112   113    2
    58   168   170   ar
    59   135   134    2
    60   171   172   ar
    61   164   174   am
    62   164   165    2
    63   174   175    1
    64    97    96    2
    65    10     9    1
    66   100    99    1
    67   100   101    1
    68    96    95    1
    69   134   133    1
    70   170   172   ar
    71   113   115    1
    72   113   114    1
    73   172   173    1
    74    99    98    1
    75   133   132    1
    76   133   136    1
    77    98    95    1
    78     9    11    1
    79     9     8    2
    80   139   141   ar
    81   139   137   ar
    82   103   102    1
    83   175   178    1
    84   175   176    1
    85    95    94    1
    86   178   179    1
    87   101   102    2
    88     8     7    1
    89   141   142   ar
    90     1     2    1
    91   136   137    1
    92   181   180   ar
    93   102   104    1
    94   176   177    2
    95   137   138   ar
    96     7     6    1
    97    67    66    2
    98     6     5    1
    99   127   126    2
   100   180   179    1
   101   180   182   ar
   102    65    66    1
   103    65    62    1
   104   142   143    1
   105   142   140   ar
   106   191   189   ar
   107   191   192   ar
   108     2     5    1
   109     2     3    1
   110    61    62    1
   111    66    68   am
   112   125   128    1
   113   125   126    1
   114   125   124    1
   115   189   188   ar
   116    63    62    1
   117    63    64    2
   118   128   129    1
   119   138   140   ar
   120    82    81   ar
   121    82    80   ar
   122    81    79   ar
   123   183   184    1
   124   192   194   ar
   125   192   190   ar
   126     3     4    2
   127   194   196   ar
   128    80    78   ar
   129   188   190   ar
   130   188   187    1
   131   129   131   am
   132   129   130    2
   133    79    76   ar
   134   190   193   ar
   135   187   184    1
   136   184   185    1
   137   196   195   ar
   138    78    76   ar
   139    78    77   ar
   140    76    74   ar
   141   185   186    2
   142   193   195   ar
   143    77    75   ar
   144    87    84    1
   145    74    75   ar
   146    74    73    1
   147    40    39    1
   148    31    32    1
   149    73    70    1
   150    41    39    1
   151    84    83    1
   152    84    85    1
   153    39    38    2
   154    51    50    1
   155    88    85   am
   156    88    89    1
   157    85    86    2
   158    70    71    1
   159    70    69    1
   160    92    93    1
   161    92    89    1
   162    52    50    1
   163    36    37    1
   164    36    35    1
   165    60    58   ar
   166    32    35    1
   167    32    33    1
   168    38    37    1
   169    50    49    2
   170    71    72    2
   171    89    90    1
   172    34    33    2
   173    58    59   ar
   174    58    57    1
   175    49    48    1
   176    90    91    2
   177    57    54    1
   178    48    47    1
   179    54    53    1
   180    54    55    1
   181    46    47    1
   182    46    43    1
   183    45    44    2
   184    53    44   am
   185    44    43    1
   186    55    56    2
   187    43    42    1
