@<TRIPOS>MOLECULE
tmp/3vm4A01.pdb
 111 109 0 0 0
SMALL
GASTEIGER

@<TRIPOS>ATOM
      1  N         24.7310  -30.2670  -22.9730 N.3    65  ILE65      -0.1245
      2  CA        23.9860  -31.4500  -22.5660 C.3    65  ILE65       0.1561
      3  C         24.5040  -32.7140  -23.2830 C.2    65  ILE65       0.2260
      4  O         24.6150  -33.7740  -22.6540 O.2    65  ILE65      -0.2867
      5  CB        22.4550  -31.2560  -22.7830 C.3    65  ILE65       0.0252
      6  CG1       21.8980  -30.1790  -21.8370 C.3    65  ILE65       0.0019
      7  CG2       21.7030  -32.5870  -22.6630 C.3    65  ILE65       0.0019
      8  CD1       21.9050  -30.5520  -20.3340 C.3    65  ILE65       0.0001
      9  N         25.0880  -34.7860  -19.6520 N.3    69  LEU69      -0.1231
     10  CA        23.9170  -35.5950  -19.3160 C.3    69  LEU69       0.1693
     11  C         23.5770  -36.6870  -20.3430 C.2    69  LEU69       0.2591
     12  O         23.3180  -37.8380  -19.9660 O.2    69  LEU69      -0.2718
     13  CB        22.6820  -34.6970  -19.1230 C.3    69  LEU69       0.0284
     14  CG        21.3640  -35.3900  -18.7670 C.3    69  LEU69       0.0019
     15  CD1       21.4200  -35.9760  -17.3590 C.3    69  LEU69       0.0001
     16  CD2       20.1850  -34.4300  -18.8790 C.3    69  LEU69       0.0001
     17  N         23.5890  -36.3410  -21.6290 N.am   70  LEU70      -0.1980
     18  CA        22.9310  -37.2220  -22.6110 C.3    70  LEU70       0.1596
     19  C         23.8400  -37.9380  -23.6130 C.2    70  LEU70       0.2287
     20  O         23.4770  -39.0040  -24.1170 O.2    70  LEU70      -0.2864
     21  CB        21.7830  -36.4890  -23.3290 C.3    70  LEU70       0.0297
     22  CG        20.6150  -36.0530  -22.4200 C.3    70  LEU70       0.0022
     23  CD1       19.5180  -35.3790  -23.2670 C.3    70  LEU70       0.0001
     24  CD2       20.0000  -37.2550  -21.6300 C.3    70  LEU70       0.0001
     25  N         24.6750  -36.4790  -14.3530 N.3   161  PHE161     -0.1241
     26  CA        23.3990  -35.8060  -14.1210 C.3   161  PHE161      0.1605
     27  C         23.3620  -34.8620  -12.9250 C.2   161  PHE161      0.2264
     28  O         22.4980  -33.9880  -12.8570 O.2   161  PHE161     -0.2867
     29  CB        22.2410  -36.8260  -14.0250 C.3   161  PHE161      0.0534
     30  CG        22.2640  -37.6840  -12.7920 C.ar  161  PHE161     -0.0203
     31  CD1       21.7890  -37.1920  -11.5620 C.ar  161  PHE161     -0.0042
     32  CD2       22.7410  -38.9940  -12.8600 C.ar  161  PHE161     -0.0042
     33  CE1       21.8010  -37.9850  -10.4130 C.ar  161  PHE161     -0.0003
     34  CE2       22.7660  -39.7980  -11.7200 C.ar  161  PHE161     -0.0003
     35  CZ        22.3010  -39.2780  -10.4850 C.ar  161  PHE161     -0.0000
     36  N         26.0450  -32.1450  -14.1250 N.3   164  ALA164     -0.1231
     37  CA        25.7080  -31.5670  -15.4510 C.3   164  ALA164      0.1694
     38  C         25.1460  -30.1300  -15.3840 C.2   164  ALA164      0.2592
     39  O         25.6890  -29.2060  -16.0160 O.2   164  ALA164     -0.2718
     40  CB        24.7320  -32.4660  -16.1980 C.3   164  ALA164      0.0304
     41  N         24.0700  -29.9570  -14.6190 N.am  165  GLY165     -0.1957
     42  CA        23.4180  -28.6500  -14.4310 C.3   165  GLY165      0.1869
     43  C         24.0330  -27.7640  -13.3500 C.2   165  GLY165      0.2309
     44  O         23.3410  -26.9420  -12.7510 O.2   165  GLY165     -0.2863
     45  N         22.6150  -44.5640  -16.5100 N.3   233  ARG233     -0.1231
     46  CA        22.5980  -43.2440  -15.8630 C.3   233  ARG233      0.1679
     47  C         21.2720  -42.8370  -15.1860 C.2   233  ARG233      0.2434
     48  O         21.2630  -42.4740  -14.0010 O.2   233  ARG233     -0.2733
     49  CB        23.0510  -42.1700  -16.8680 C.3   233  ARG233      0.0321
     50  CG        23.1030  -40.7210  -16.3020 C.3   233  ARG233      0.0489
     51  CD        22.9760  -39.6850  -17.4370 C.3   233  ARG233      0.2205
     52  NE        21.5860  -39.6320  -17.9240 N.pl3 233  ARG233     -0.0865
     53  CZ        21.1740  -40.0770  -19.1180 C.cat 233  ARG233      0.5346
     54  NH1       22.0400  -40.5880  -19.9890 N.pl3 233  ARG233      0.1354
     55  NH2       19.8830  -39.9990  -19.4560 N.pl3 233  ARG233      0.1354
     56  N         20.1500  -42.8620  -15.9250 N.am  234  PRO234     -0.2729
     57  CA        18.9340  -42.4120  -15.2330 C.3   234  PRO234      0.1401
     58  C         18.4360  -43.4050  -14.1690 C.2   234  PRO234      0.2269
     59  O         17.7220  -43.0060  -13.2510 O.2   234  PRO234     -0.2865
     60  CB        17.9170  -42.2560  -16.3750 C.3   234  PRO234      0.0296
     61  CG        18.3890  -43.2280  -17.4190 C.3   234  PRO234      0.0237
     62  CD        19.9010  -43.2020  -17.3430 C.3   234  PRO234      0.0939
     63  N         20.0820  -42.1800  -11.2610 N.3   237  ALA237     -0.1245
     64  CA        19.3950  -40.9370  -10.8670 C.3   237  ALA237      0.1562
     65  C         18.1210  -41.1620  -10.0350 C.2   237  ALA237      0.2260
     66  O         17.5690  -40.2050   -9.4770 O.2   237  ALA237     -0.2867
     67  CB        19.0760  -40.0740  -12.1000 C.3   237  ALA237      0.0290
     68  N         11.9860  -32.4980  -10.2310 N.3   279  PHE279     -0.1227
     69  CA        13.1120  -33.3410  -10.6490 C.3   279  PHE279      0.1736
     70  C         13.5270  -32.9250  -12.0650 C.2   279  PHE279      0.2595
     71  O         14.5390  -32.2230  -12.2610 O.2   279  PHE279     -0.2718
     72  CB        12.7070  -34.8310  -10.5460 C.3   279  PHE279      0.0547
     73  CG        13.8650  -35.8220  -10.6770 C.ar  279  PHE279     -0.0202
     74  CD1       15.0480  -35.4890  -11.3260 C.ar  279  PHE279     -0.0042
     75  CD2       13.7280  -37.1130  -10.1670 C.ar  279  PHE279     -0.0042
     76  CE1       16.0910  -36.4190  -11.4570 C.ar  279  PHE279     -0.0003
     77  CE2       14.7420  -38.0490  -10.2960 C.ar  279  PHE279     -0.0003
     78  CZ        15.9380  -37.7070  -10.9440 C.ar  279  PHE279     -0.0000
     79  N         12.7440  -33.3310  -13.0600 N.am  280  PHE280     -0.1963
     80  CA        13.0900  -33.0060  -14.4430 C.3   280  PHE280      0.1756
     81  C         12.3840  -31.6970  -14.7160 C.2   280  PHE280      0.2461
     82  O         11.1640  -31.6310  -14.6670 O.2   280  PHE280     -0.2730
     83  CB        12.6010  -34.1040  -15.3770 C.3   280  PHE280      0.0574
     84  CG        13.3220  -34.1670  -16.7040 C.ar  280  PHE280     -0.0200
     85  CD1       13.1440  -33.1730  -17.6690 C.ar  280  PHE280     -0.0042
     86  CD2       14.1250  -35.2700  -17.0130 C.ar  280  PHE280     -0.0042
     87  CE1       13.7790  -33.2570  -18.9150 C.ar  280  PHE280     -0.0003
     88  CE2       14.7740  -35.3620  -18.2680 C.ar  280  PHE280     -0.0003
     89  CZ        14.5880  -34.3530  -19.2180 C.ar  280  PHE280     -0.0000
     90  N         13.1400  -30.6360  -14.9980 N.am  281  PRO281     -0.2727
     91  CA        12.4240  -29.3500  -14.9460 C.3   281  PRO281      0.1402
     92  C         11.4300  -29.1810  -16.1070 C.2   281  PRO281      0.2269
     93  O         10.2070  -28.9230  -15.8710 O.2   281  PRO281     -0.2865
     94  CB        13.5580  -28.3160  -15.0180 C.3   281  PRO281      0.0296
     95  CG        14.7210  -29.0410  -15.6340 C.3   281  PRO281      0.0237
     96  CD        14.5880  -30.4850  -15.1850 C.3   281  PRO281      0.0939
     97  N         20.0400  -28.3140   -9.6930 N.3   390  LEU390     -0.1231
     98  CA        19.6020  -29.2850  -10.7140 C.3   390  LEU390      0.1678
     99  C         20.4220  -30.5710  -10.6170 C.2   390  LEU390      0.2434
    100  O         21.6380  -30.5320  -10.8210 O.2   390  LEU390     -0.2733
    101  CB        19.7280  -28.7010  -12.1250 C.3   390  LEU390      0.0284
    102  CG        18.7470  -27.5980  -12.5310 C.3   390  LEU390      0.0019
    103  CD1       19.2800  -26.8650  -13.7700 C.3   390  LEU390      0.0001
    104  CD2       17.3440  -28.1610  -12.7730 C.3   390  LEU390      0.0001
    105  N         19.7840  -31.7050  -10.2520 N.am  391  PRO391     -0.2729
    106  CA        18.3800  -31.8860   -9.8450 C.3   391  PRO391      0.1401
    107  C         18.1830  -31.3570   -8.4270 C.2   391  PRO391      0.2269
    108  O         19.1570  -31.2440   -7.6480 O.2   391  PRO391     -0.2865
    109  CB        18.1960  -33.4040   -9.8660 C.3   391  PRO391      0.0296
    110  CG        19.5850  -33.9460   -9.5770 C.3   391  PRO391      0.0237
    111  CD        20.5650  -32.9500  -10.1340 C.3   391  PRO391      0.0939
@<TRIPOS>BOND
     1    20    19    2
     2    19    18    1
     3    21    18    1
     4    21    22    1
     5     3     4    2
     6     3     2    1
     7    23    22    1
     8     1     2    1
     9     5     7    1
    10     5     2    1
    11     5     6    1
    12    18    17    1
    13    22    24    1
    14     6     8    1
    15    17    11   am
    16    11    12    2
    17    11    10    1
    18    54    53    1
    19     9    10    1
    20    55    53    1
    21    10    13    1
    22    89    87   ar
    23    89    88   ar
    24    13    14    1
    25    53    52    2
    26    87    85   ar
    27    16    14    1
    28    14    15    1
    29    88    86   ar
    30    52    51    1
    31    85    84   ar
    32    51    50    1
    33    61    62    1
    34    61    60    1
    35    62    56    1
    36    86    84   ar
    37    49    50    1
    38    49    46    1
    39    84    83    1
    40    45    46    1
    41    60    57    1
    42    40    37    1
    43    92    93    2
    44    92    91    1
    45    39    38    2
    46    56    57    1
    47    56    47   am
    48    46    47    1
    49    95    96    1
    50    95    94    1
    51    37    38    1
    52    37    36    1
    53    38    41   am
    54    83    80    1
    55    57    58    1
    56    47    48    2
    57    96    90    1
    58    94    91    1
    59    90    91    1
    60    90    81   am
    61    81    82    2
    62    81    80    1
    63    41    42    1
    64    80    79    1
    65    42    43    1
    66    25    26    1
    67    58    59    2
    68    26    29    1
    69    26    27    1
    70    29    30    1
    71   103   102    1
    72    43    44    2
    73    79    70   am
    74    27    28    2
    75    32    30   ar
    76    32    34   ar
    77    30    31   ar
    78   104   102    1
    79   102   101    1
    80    71    70    2
    81   101    98    1
    82    67    64    1
    83    70    69    1
    84    34    35   ar
    85    31    33   ar
    86    76    74   ar
    87    76    78   ar
    88    74    73   ar
    89    63    64    1
    90    78    77   ar
    91    64    65    1
    92   100    99    2
    93    98    99    1
    94    98    97    1
    95    73    72    1
    96    73    75   ar
    97    69    72    1
    98    69    68    1
    99    99   105   am
   100    35    33   ar
   101    77    75   ar
   102   105   111    1
   103   105   106    1
   104   111   110    1
   105    65    66    2
   106   109   106    1
   107   109   110    1
   108   106   107    1
   109   107   108    2
