@<TRIPOS>MOLECULE
tmp/3vm6B02.pdb
 74 71 0 0 0
SMALL
GASTEIGER

@<TRIPOS>ATOM
      1  N         31.9870   68.2530    9.5670 N.3   125  GLY125     -0.1210
      2  CA        31.9270   68.0080    8.1310 C.3   125  GLY125      0.1956
      3  C         31.6750   66.5640    7.7060 C.2   125  GLY125      0.2612
      4  O         31.6460   66.2550    6.5120 O.2   125  GLY125     -0.2717
      5  N         31.4860   65.6820    8.6820 N.am  126  ASP126     -0.1959
      6  CA        31.2470   64.2650    8.4360 C.3   126  ASP126      0.1840
      7  C         29.8790   63.9380    7.8410 C.2   126  ASP126      0.2621
      8  O         28.8650   64.5450    8.1910 O.2   126  ASP126     -0.2715
      9  CB        31.4090   63.4730    9.7410 C.3   126  ASP126      0.1450
     10  CG        32.7150   62.7100    9.8080 C.2   126  ASP126      0.3671
     11  OD1       33.5760   62.9310    8.9370 O.co2 126  ASP126     -0.2456
     12  OD2       32.8910   61.8910   10.7330 O.co2 126  ASP126     -0.2456
     13  N         29.8730   62.9690    6.9300 N.am  127  VAL127     -0.1977
     14  CA        28.6540   62.4720    6.3040 C.3   127  VAL127      0.1596
     15  C         28.5140   61.0680    6.9010 C.2   127  VAL127      0.2287
     16  O         29.3280   60.1820    6.6440 O.2   127  VAL127     -0.2864
     17  CB        28.7930   62.3790    4.7740 C.3   127  VAL127      0.0276
     18  CG1       27.5590   61.7510    4.1670 C.3   127  VAL127      0.0022
     19  CG2       29.0130   63.7470    4.2070 C.3   127  VAL127      0.0022
     20  N         29.0100   70.2020   12.3610 N.3   150  ASP150     -0.1225
     21  CA        28.1350   70.2460   11.1990 C.3   150  ASP150      0.1805
     22  C         28.2300   68.9220   10.4350 C.2   150  ASP150      0.2598
     23  O         29.2370   68.6490    9.7740 O.2   150  ASP150     -0.2718
     24  CB        28.5440   71.4150   10.2930 C.3   150  ASP150      0.1424
     25  CG        27.7100   71.4930    9.0250 C.2   150  ASP150      0.3668
     26  OD1       26.4820   71.7180    9.1270 O.co2 150  ASP150     -0.2456
     27  OD2       28.2830   71.3210    7.9250 O.co2 150  ASP150     -0.2456
     28  N         27.1750   68.1140   10.5260 N.am  151  ILE151     -0.1966
     29  CA        27.1470   66.8140    9.8720 C.3   151  ILE151      0.1727
     30  C         25.8980   66.5640    9.0490 C.2   151  ILE151      0.2616
     31  O         24.9240   67.3040    9.1340 O.2   151  ILE151     -0.2715
     32  CB        27.2280   65.6760   10.8940 C.3   151  ILE151      0.0290
     33  CG1       25.9380   65.6280   11.7140 C.3   151  ILE151      0.0022
     34  CG2       28.4160   65.8780   11.8070 C.3   151  ILE151      0.0023
     35  CD1       25.8410   64.4140   12.6110 C.3   151  ILE151      0.0001
     36  N         25.9450   65.5030    8.2520 N.am  152  LYS152     -0.1977
     37  CA        24.8210   65.1050    7.4210 C.3   152  LYS152      0.1596
     38  C         24.6680   63.6020    7.5610 C.2   152  LYS152      0.2287
     39  O         25.6490   62.8640    7.5150 O.2   152  LYS152     -0.2864
     40  CB        25.0550   65.4750    5.9540 C.3   152  LYS152      0.0298
     41  CG        25.0720   66.9800    5.6870 C.3   152  LYS152      0.0038
     42  CD        25.0070   67.3210    4.1950 C.3   152  LYS152      0.0206
     43  CE        23.6340   67.0070    3.6270 C.3   152  LYS152      0.1093
     44  NZ        23.2100   65.5960    3.8930 N.3   152  LYS152     -0.1314
     45  N         20.6260   67.7280    8.8720 N.3   177  PRO177     -0.2102
     46  CA        20.2120   67.5540    7.4720 C.3   177  PRO177      0.1504
     47  C         20.1730   66.0570    7.1820 C.2   177  PRO177      0.2576
     48  O         21.0600   65.3150    7.6140 O.2   177  PRO177     -0.2718
     49  CB        21.3250   68.2510    6.6890 C.3   177  PRO177      0.0282
     50  CG        21.8240   69.2670    7.6390 C.3   177  PRO177      0.0208
     51  CD        21.8830   68.4930    8.9260 C.3   177  PRO177      0.0893
     52  N         19.1610   65.6100    6.4510 N.am  178  VAL178     -0.1966
     53  CA        19.0500   64.1910    6.1650 C.3   178  VAL178      0.1727
     54  C         18.8910   63.8290    4.7040 C.2   178  VAL178      0.2616
     55  O         18.1510   64.4750    3.9650 O.2   178  VAL178     -0.2715
     56  CB        17.8850   63.5770    6.9430 C.3   178  VAL178      0.0290
     57  CG1       17.6850   62.1300    6.5410 C.3   178  VAL178      0.0023
     58  CG2       18.1620   63.6790    8.4300 C.3   178  VAL178      0.0023
     59  N         19.6160   62.7910    4.2940 N.am  179  ILE179     -0.1977
     60  CA        19.5500   62.2700    2.9330 C.3   179  ILE179      0.1596
     61  C         18.9240   60.8920    3.0910 C.2   179  ILE179      0.2287
     62  O         19.4840   60.0200    3.7510 O.2   179  ILE179     -0.2864
     63  CB        20.9510   62.1170    2.2850 C.3   179  ILE179      0.0276
     64  CG1       21.5710   63.4930    2.0080 C.3   179  ILE179      0.0022
     65  CG2       20.8260   61.3170    1.0030 C.3   179  ILE179      0.0022
     66  CD1       22.9680   63.4350    1.4140 C.3   179  ILE179      0.0001
     67  N         30.7880   58.4840   -0.6770 N.3   192  MET192     -0.1245
     68  CA        30.6980   59.8280   -0.1210 C.3   192  MET192      0.1570
     69  C         30.3640   59.7840    1.3640 C.2   192  MET192      0.2261
     70  O         29.9590   60.7880    1.9420 O.2   192  MET192     -0.2867
     71  CB        29.6280   60.6330   -0.8430 C.3   192  MET192      0.0387
     72  CG        28.2310   60.1900   -0.5130 C.3   192  MET192      0.0595
     73  SD        27.0280   61.2980   -1.2100 S.3   192  MET192     -0.1393
     74  CE        27.0370   62.6780   -0.0050 C.3   192  MET192      0.0692
@<TRIPOS>BOND
     1    73    72    1
     2    73    74    1
     3    71    72    1
     4    71    68    1
     5    67    68    1
     6    68    69    1
     7    65    63    1
     8    69    70    2
     9    66    64    1
    10    64    63    1
    11    63    60    1
    12    60    61    1
    13    60    59    1
    14    61    62    2
    15    43    44    1
    16    43    42    1
    17    55    54    2
    18    18    17    1
    19    42    41    1
    20    19    17    1
    21    59    54   am
    22    54    53    1
    23    17    14    1
    24    41    40    1
    25    40    37    1
    26    53    52    1
    27    53    56    1
    28    14    15    1
    29    14    13    1
    30    52    47   am
    31     4     3    2
    32    57    56    1
    33    16    15    2
    34    49    46    1
    35    49    50    1
    36    13     7   am
    37    56    58    1
    38    47    46    1
    39    47    48    2
    40    37    38    1
    41    37    36    1
    42    46    45    1
    43    39    38    2
    44    50    51    1
    45     3     2    1
    46     3     5   am
    47     7     8    2
    48     7     6    1
    49    27    25   ar
    50     2     1    1
    51    36    30   am
    52     6     5    1
    53     6     9    1
    54    45    51    1
    55    11    10   ar
    56    25    26   ar
    57    25    24    1
    58    30    31    2
    59    30    29    1
    60     9    10    1
    61    23    22    2
    62    10    12   ar
    63    29    28    1
    64    29    32    1
    65    24    21    1
    66    22    28   am
    67    22    21    1
    68    32    33    1
    69    32    34    1
    70    21    20    1
    71    33    35    1
