@<TRIPOS>MOLECULE
tmp/3vmkA00.pdb
 97 90 0 0 0
SMALL
GASTEIGER

@<TRIPOS>ATOM
      1  N        -26.7540  -12.3180   40.1050 N.3    95  GLU95      -0.1231
      2  CA       -26.4800  -10.8840   40.3090 C.3    95  GLU95       0.1699
      3  C        -27.6680  -10.0230   39.9590 C.2    95  GLU95       0.2592
      4  O        -28.1980   -9.2910   40.7840 O.2    95  GLU95      -0.2718
      5  CB       -25.2900  -10.5010   39.4520 C.3    95  GLU95       0.0402
      6  CG       -23.9490  -11.0180   39.9360 C.3    95  GLU95       0.1161
      7  CD       -22.9280  -10.8240   38.8670 C.2    95  GLU95       0.3649
      8  OE1      -22.0920   -9.8980   38.9850 O.co2  95  GLU95      -0.2457
      9  OE2      -23.0310  -11.5340   37.8190 O.co2  95  GLU95      -0.2457
     10  N        -28.1380  -10.1020   38.7140 N.am   96  ARG96      -0.1980
     11  CA       -29.3240   -9.4030   38.3170 C.3    96  ARG96       0.1597
     12  C        -30.4630   -9.7150   39.3100 C.2    96  ARG96       0.2287
     13  O        -31.1890   -8.8390   39.7880 O.2    96  ARG96      -0.2864
     14  CB       -29.7090   -9.9000   36.8810 C.3    96  ARG96       0.0334
     15  CG       -31.0370   -9.3760   36.5280 C.3    96  ARG96       0.0492
     16  CD       -31.3020   -9.5500   35.0180 C.3    96  ARG96       0.2205
     17  NE       -32.6580   -9.1220   34.8240 N.pl3  96  ARG96      -0.0865
     18  CZ       -33.0500   -7.8490   34.7010 C.cat  96  ARG96       0.5346
     19  NH1      -32.1670   -6.8660   34.7010 N.pl3  96  ARG96       0.1354
     20  NH2      -34.3320   -7.5360   34.5910 N.pl3  96  ARG96       0.1354
     21  N        -29.1470   -8.4880   43.3060 N.3    99  LEU99      -0.1231
     22  CA       -28.7630   -7.0550   43.5170 C.3    99  LEU99       0.1693
     23  C        -29.8060   -6.0030   43.0720 C.2    99  LEU99       0.2591
     24  O        -30.0930   -5.0230   43.8490 O.2    99  LEU99      -0.2718
     25  CB       -27.4260   -6.7600   42.8300 C.3    99  LEU99       0.0284
     26  CG       -26.2490   -7.6530   43.1800 C.3    99  LEU99       0.0019
     27  CD1      -25.0700   -7.3590   42.2190 C.3    99  LEU99       0.0001
     28  CD2      -25.8330   -7.3290   44.6420 C.3    99  LEU99       0.0001
     29  N        -30.4460   -6.1540   41.9120 N.am  100  LEU100     -0.1980
     30  CA       -31.4200   -5.1630   41.5210 C.3   100  LEU100      0.1596
     31  C        -32.6300   -5.1430   42.4860 C.2   100  LEU100      0.2287
     32  O        -32.9930   -4.1210   42.9840 O.2   100  LEU100     -0.2864
     33  CB       -31.7940   -5.3150   40.0310 C.3   100  LEU100      0.0297
     34  CG       -30.5350   -5.4650   39.1450 C.3   100  LEU100      0.0022
     35  CD1      -30.9490   -5.7250   37.6570 C.3   100  LEU100      0.0001
     36  CD2      -29.7380   -4.1690   39.2550 C.3   100  LEU100      0.0001
     37  N        -31.6550   -3.4810   45.8670 N.3   103  ARG103     -0.1245
     38  CA       -31.5600   -2.0370   45.7510 C.3   103  ARG103      0.1563
     39  C        -32.9550   -1.4000   45.7150 C.2   103  ARG103      0.2260
     40  O        -33.1900   -0.4200   46.3750 O.2   103  ARG103     -0.2867
     41  CB       -30.7620   -1.6520   44.4790 C.3   103  ARG103      0.0307
     42  CG       -29.2650   -2.0170   44.5550 C.3   103  ARG103      0.0489
     43  CD       -28.6860   -2.0030   43.1320 C.3   103  ARG103      0.2205
     44  NE       -27.3250   -2.5430   43.1950 N.pl3 103  ARG103     -0.0865
     45  CZ       -26.5120   -2.6830   42.1550 C.cat 103  ARG103      0.5346
     46  NH1      -26.9380   -2.3130   40.9490 N.pl3 103  ARG103      0.1354
     47  NH2      -25.2810   -3.1910   42.3280 N.pl3 103  ARG103      0.1354
     48  N        -18.3640    4.3820   46.0810 N.3   113  ARG113     -0.1245
     49  CA       -17.1940    3.4760   45.8550 C.3   113  ARG113      0.1563
     50  C        -15.9410    4.2630   46.0010 C.2   113  ARG113      0.2260
     51  O        -15.5770    5.0730   45.0790 O.2   113  ARG113     -0.2867
     52  CB       -17.2750    2.8330   44.5070 C.3   113  ARG113      0.0307
     53  CG       -18.2840    1.6660   44.6080 C.3   113  ARG113      0.0489
     54  CD       -18.6190    0.9540   43.3010 C.3   113  ARG113      0.2205
     55  NE       -17.4650    0.4010   42.5280 N.pl3 113  ARG113     -0.0865
     56  CZ       -17.6390   -0.2640   41.3980 C.cat 113  ARG113      0.5346
     57  NH1      -16.5650   -0.6590   40.7060 N.pl3 113  ARG113      0.1354
     58  NH2      -18.8860   -0.5070   40.9600 N.pl3 113  ARG113      0.1354
     59  N        -22.7730    7.2030   42.8450 N.3   142  ARG142     -0.1245
     60  CA       -23.6220    6.7210   41.7770 C.3   142  ARG142      0.1563
     61  C        -25.0380    6.5590   42.2070 C.2   142  ARG142      0.2260
     62  O        -25.3310    5.9560   43.2900 O.2   142  ARG142     -0.2867
     63  CB       -23.0560    5.2680   41.3940 C.3   142  ARG142      0.0307
     64  CG       -23.9810    4.5050   40.4750 C.3   142  ARG142      0.0489
     65  CD       -23.4630    3.0430   40.2830 C.3   142  ARG142      0.2205
     66  NE       -24.3690    2.2960   39.4380 N.pl3 142  ARG142     -0.0865
     67  CZ       -24.3570    0.9570   39.2350 C.cat 142  ARG142      0.5346
     68  NH1      -23.3880    0.2450   39.8140 N.pl3 142  ARG142      0.1354
     69  NH2      -25.2590    0.4230   38.4320 N.pl3 142  ARG142      0.1354
     70  N        -31.9770    1.6810   34.5170 N.3   149  TYR149     -0.1241
     71  CA       -32.0220    0.3570   35.1430 C.3   149  TYR149      0.1605
     72  C        -33.4470   -0.0240   35.4770 C.2   149  TYR149      0.2264
     73  O        -33.7690   -1.2200   35.2430 O.2   149  TYR149     -0.2867
     74  CB       -31.2300    0.3800   36.4830 C.3   149  TYR149      0.0534
     75  CG       -29.7300    0.1310   36.2830 C.ar  149  TYR149     -0.0201
     76  CD1      -28.9670    0.8920   35.3640 C.ar  149  TYR149     -0.0009
     77  CD2      -29.1040   -0.9450   36.9490 C.ar  149  TYR149     -0.0009
     78  CE1      -27.6110    0.6000   35.1300 C.ar  149  TYR149      0.0417
     79  CE2      -27.7450   -1.2340   36.7210 C.ar  149  TYR149      0.0417
     80  CZ       -27.0330   -0.4330   35.8410 C.ar  149  TYR149      0.1957
     81  OH       -25.7180   -0.7610   35.5970 O.3   149  TYR149     -0.2866
     82  N        -21.9480    3.1220   36.9550 N.3   255  ASP255     -0.1239
     83  CA       -21.5450    1.7090   36.7450 C.3   255  ASP255      0.1674
     84  C        -20.1780    1.6910   36.0020 C.2   255  ASP255      0.2266
     85  O        -19.2000    0.9750   36.3790 O.2   255  ASP255     -0.2867
     86  CB       -22.5760    0.9790   35.9640 C.3   255  ASP255      0.1410
     87  CG       -22.1920   -0.5280   35.7310 C.2   255  ASP255      0.3668
     88  OD1      -21.9090   -1.1590   36.7550 O.co2 255  ASP255     -0.2456
     89  OD2      -22.3270   -0.8770   34.5300 O.co2 255  ASP255     -0.2456
     90  N        -16.0860    1.3830   37.7100 N.3   259  ASP259     -0.1239
     91  CA       -15.2050    0.2770   37.2210 C.3   259  ASP259      0.1674
     92  C        -13.8860    0.7650   36.6110 C.2   259  ASP259      0.2266
     93  O        -12.7950    0.2340   36.9300 O.2   259  ASP259     -0.2867
     94  CB       -15.9050   -0.6210   36.2320 C.3   259  ASP259      0.1410
     95  CG       -16.4800   -1.9340   36.8130 C.2   259  ASP259      0.3668
     96  OD1      -16.6820   -2.0100   37.9950 O.co2 259  ASP259     -0.2456
     97  OD2      -16.6260   -2.8410   35.9140 O.co2 259  ASP259     -0.2456
@<TRIPOS>BOND
     1    70    71    1
     2    89    87   ar
     3    20    18    1
     4    19    18    1
     5    18    17    2
     6    17    16    1
     7    16    15    1
     8    78    76   ar
     9    78    80   ar
    10    71    72    1
    11    71    74    1
    12    73    72    2
    13    76    75   ar
    14    81    80    1
    15    87    86    1
    16    87    88   ar
    17    80    79   ar
    18    97    95   ar
    19    86    83    1
    20    84    85    2
    21    84    83    1
    22    94    95    1
    23    94    91    1
    24    75    74    1
    25    75    77   ar
    26    15    14    1
    27    92    93    2
    28    92    91    1
    29    79    77   ar
    30    83    82    1
    31    95    96   ar
    32    14    11    1
    33    91    90    1
    34    35    34    1
    35     9     7   ar
    36    11    10    1
    37    11    12    1
    38    69    67    1
    39    10     3   am
    40     7     8   ar
    41     7     6    1
    42    34    36    1
    43    34    33    1
    44    67    66    2
    45    67    68    1
    46    12    13    2
    47    66    65    1
    48     5     6    1
    49     5     2    1
    50     3     2    1
    51     3     4    2
    52    33    30    1
    53     1     2    1
    54    65    64    1
    55    64    63    1
    56    57    56    1
    57    46    45    1
    58    58    56    1
    59    63    60    1
    60    56    55    2
    61    30    29    1
    62    30    31    1
    63    60    61    1
    64    60    59    1
    65    29    23   am
    66    45    47    1
    67    45    44    2
    68    61    62    2
    69    27    26    1
    70    31    32    2
    71    55    54    1
    72    25    26    1
    73    25    22    1
    74    23    22    1
    75    23    24    2
    76    43    44    1
    77    43    42    1
    78    26    28    1
    79    54    53    1
    80    21    22    1
    81    41    42    1
    82    41    38    1
    83    52    53    1
    84    52    49    1
    85    51    50    2
    86    39    38    1
    87    39    40    2
    88    38    37    1
    89    49    50    1
    90    49    48    1
