@<TRIPOS>MOLECULE
tmp/3vmmA01.pdb
 196 189 0 0 0
SMALL
GASTEIGER

@<TRIPOS>ATOM
      1  N          6.3290  -54.2070   -7.4920 N.3    11  LEU11      -0.1231
      2  CA         4.8890  -54.0460   -7.6960 C.3    11  LEU11       0.1693
      3  C          4.5930  -52.8090   -8.5320 C.2    11  LEU11       0.2593
      4  O          5.4500  -51.9420   -8.6880 O.2    11  LEU11      -0.2718
      5  CB         4.1740  -53.9460   -6.3520 C.3    11  LEU11       0.0284
      6  CG         4.0920  -55.2170   -5.5070 C.3    11  LEU11       0.0019
      7  CD1        3.8520  -54.8600   -4.0470 C.3    11  LEU11       0.0001
      8  CD2        3.0080  -56.1590   -6.0260 C.3    11  LEU11       0.0001
      9  N          3.3880  -52.7350   -9.0800 N.am   12  GLY12      -0.1942
     10  CA         2.9110  -51.5080   -9.7170 C.3    12  GLY12       0.2014
     11  C          3.0760  -51.4220  -11.2250 C.2    12  GLY12       0.2639
     12  O          3.7510  -52.2590  -11.8460 O.2    12  GLY12      -0.2714
     13  N          2.4490  -50.4000  -11.8080 N.am   13  GLY13      -0.1954
     14  CA         2.6400  -50.0670  -13.2140 C.3    13  GLY13       0.1869
     15  C          2.1350  -51.1270  -14.1630 C.2    13  GLY13       0.2309
     16  O          1.0900  -51.7360  -13.9240 O.2    13  GLY13      -0.2863
     17  N         13.4700  -56.1190   -3.5750 N.3    35  ARG35      -0.1245
     18  CA        12.5460  -56.5560   -2.5250 C.3    35  ARG35       0.1563
     19  C         11.8980  -57.9020   -2.8940 C.2    35  ARG35       0.2260
     20  O         10.7840  -57.9280   -3.4300 O.2    35  ARG35      -0.2867
     21  CB        11.4570  -55.4940   -2.2800 C.3    35  ARG35       0.0307
     22  CG        11.9620  -54.0740   -2.0200 C.3    35  ARG35       0.0489
     23  CD        10.8730  -53.1800   -1.4430 C.3    35  ARG35       0.2205
     24  NE         9.7100  -53.0590   -2.3240 N.pl3  35  ARG35      -0.0865
     25  CZ         8.5440  -52.5120   -1.9740 C.cat  35  ARG35       0.5346
     26  NH1        8.3710  -52.0110   -0.7560 N.pl3  35  ARG35       0.1354
     27  NH2        7.5410  -52.4580   -2.8510 N.pl3  35  ARG35       0.1354
     28  N         -0.7630  -56.9560   -2.7310 N.3    74  TYR74      -0.1227
     29  CA        -1.1450  -55.6610   -3.2890 C.3    74  TYR74       0.1736
     30  C         -0.0990  -54.6030   -2.9290 C.2    74  TYR74       0.2595
     31  O          0.3690  -53.8610   -3.7890 O.2    74  TYR74      -0.2718
     32  CB        -2.5570  -55.2280   -2.8500 C.3    74  TYR74       0.0548
     33  CG        -2.9170  -53.8570   -3.3560 C.ar   74  TYR74      -0.0200
     34  CD1       -3.5390  -53.6920   -4.5890 C.ar   74  TYR74      -0.0009
     35  CD2       -2.5970  -52.7170   -2.6170 C.ar   74  TYR74      -0.0009
     36  CE1       -3.8590  -52.4290   -5.0690 C.ar   74  TYR74       0.0417
     37  CE2       -2.8990  -51.4420   -3.0900 C.ar   74  TYR74       0.0417
     38  CZ        -3.5330  -51.3060   -4.3150 C.ar   74  TYR74       0.1957
     39  OH        -3.8470  -50.0460   -4.7800 O.3    74  TYR74      -0.2866
     40  N          0.2460  -54.5510   -1.6480 N.am   75  TRP75      -0.1976
     41  CA         1.2560  -53.6410   -1.1370 C.3    75  TRP75       0.1640
     42  C          2.2020  -54.4580   -0.2620 C.2    75  TRP75       0.2290
     43  O          1.7490  -55.2720    0.5440 O.2    75  TRP75      -0.2864
     44  CB         0.5770  -52.5150   -0.3490 C.3    75  TRP75       0.0576
     45  CG         1.5030  -51.5000    0.2200 C.ar   75  TRP75       0.0006
     46  CD1        2.0760  -51.5220    1.4540 C.ar   75  TRP75       0.0946
     47  CD2        1.9530  -50.2980   -0.4120 C.ar   75  TRP75       0.0152
     48  NE1        2.8640  -50.4160    1.6310 N.ar   75  TRP75      -0.2442
     49  CE2        2.8050  -49.6440    0.5010 C.ar   75  TRP75       0.0810
     50  CE3        1.7220  -49.7110   -1.6680 C.ar   75  TRP75       0.0012
     51  CZ2        3.4340  -48.4370    0.2030 C.ar   75  TRP75       0.0191
     52  CZ3        2.3420  -48.5100   -1.9630 C.ar   75  TRP75       0.0001
     53  CH2        3.1880  -47.8850   -1.0300 C.ar   75  TRP75       0.0015
     54  N          8.5310  -50.4680  -13.2760 N.3   106  ASN106     -0.1225
     55  CA         7.1000  -50.2500  -13.2440 C.3   106  ASN106      0.1785
     56  C          6.7010  -49.7450  -11.8700 C.2   106  ASN106      0.2597
     57  O          5.5410  -49.3860  -11.6470 O.2   106  ASN106     -0.2718
     58  CB         6.3580  -51.5370  -13.6000 C.3   106  ASN106      0.1169
     59  CG         6.4350  -51.8580  -15.0780 C.2   106  ASN106      0.2627
     60  OD1        5.8650  -51.1440  -15.9050 O.2   106  ASN106     -0.2716
     61  ND2        7.1550  -52.9260  -15.4210 N.am  106  ASN106     -0.0877
     62  N          7.6810  -49.6750  -10.9690 N.am  107  ASN107     -0.1960
     63  CA         7.4280  -49.4000   -9.5600 C.3   107  ASN107      0.1819
     64  C          7.6030  -47.9460   -9.1580 C.2   107  ASN107      0.2621
     65  O          8.6960  -47.3830   -9.2870 O.2   107  ASN107     -0.2715
     66  CB         8.3270  -50.2770   -8.6870 C.3   107  ASN107      0.1195
     67  CG         7.9960  -50.1610   -7.2170 C.2   107  ASN107      0.2630
     68  OD1        8.5790  -49.3410   -6.5080 O.2   107  ASN107     -0.2716
     69  ND2        7.0410  -50.9680   -6.7510 N.am  107  ASN107     -0.0877
     70  N          6.5320  -47.3580   -8.6280 N.am  108  GLU108     -0.1963
     71  CA         6.5560  -45.9610   -8.1690 C.3   108  GLU108      0.1733
     72  C          7.6930  -45.6740   -7.1810 C.2   108  GLU108      0.2616
     73  O          8.4170  -44.6880   -7.3210 O.2   108  GLU108     -0.2715
     74  CB         5.1970  -45.5750   -7.5600 C.3   108  GLU108      0.0429
     75  CG         5.1330  -44.2200   -6.8510 C.3   108  GLU108      0.1163
     76  CD         4.9640  -43.0180   -7.7960 C.2   108  GLU108      0.3649
     77  OE1        5.2010  -43.1610   -9.0160 O.co2 108  GLU108     -0.2457
     78  OE2        4.5990  -41.9190   -7.3040 O.co2 108  GLU108     -0.2457
     79  N          7.8590  -46.5580   -6.2040 N.am  109  LEU109     -0.1977
     80  CA         8.7810  -46.3220   -5.0840 C.3   109  LEU109      0.1596
     81  C         10.2550  -46.1780   -5.4660 C.2   109  LEU109      0.2287
     82  O         10.9800  -45.4230   -4.8180 O.2   109  LEU109     -0.2864
     83  CB         8.5890  -47.3940   -4.0000 C.3   109  LEU109      0.0297
     84  CG         7.1490  -47.4830   -3.4690 C.3   109  LEU109      0.0022
     85  CD1        6.9720  -48.6390   -2.5020 C.3   109  LEU109      0.0001
     86  CD2        6.7140  -46.1620   -2.8140 C.3   109  LEU109      0.0001
     87  N          1.4970  -43.8570   -2.7100 N.3   182  ALA182     -0.1231
     88  CA         0.6620  -44.0870   -3.8670 C.3   182  ALA182      0.1694
     89  C         -0.6030  -44.7500   -3.3490 C.2   182  ALA182      0.2593
     90  O         -0.8380  -44.7940   -2.1310 O.2   182  ALA182     -0.2718
     91  CB         1.3780  -44.9980   -4.8770 C.3   182  ALA182      0.0304
     92  N         -1.4200  -45.2390   -4.2780 N.am  183  SER183     -0.1938
     93  CA        -2.6180  -46.0080   -3.9660 C.3   183  SER183      0.2055
     94  C         -3.5810  -45.2960   -3.0210 C.2   183  SER183      0.2643
     95  O         -4.3720  -45.9520   -2.3490 O.2   183  SER183     -0.2714
     96  CB        -2.2320  -47.3860   -3.4080 C.3   183  SER183      0.2130
     97  OG        -3.3790  -48.1390   -3.0500 O.3   183  SER183     -0.2179
     98  N         -3.5220  -43.9630   -2.9800 N.am  184  SER184     -0.1949
     99  CA        -4.4120  -43.1470   -2.1330 C.3   184  SER184      0.1924
    100  C         -4.2040  -43.3530   -0.6310 C.2   184  SER184      0.2314
    101  O         -5.0500  -42.9530    0.1780 O.2   184  SER184     -0.2863
    102  CB        -5.8880  -43.3720   -2.4790 C.3   184  SER184      0.2116
    103  OG        -6.1840  -42.9730   -3.7980 O.3   184  SER184     -0.2180
    104  N        -13.3600  -42.9650  -15.8750 N.3   264  LYS264     -0.1245
    105  CA       -13.3680  -43.6300  -14.5830 C.3   264  LYS264      0.1561
    106  C        -14.7910  -43.7730  -14.1170 C.2   264  LYS264      0.2260
    107  O        -15.6340  -42.9630  -14.4920 O.2   264  LYS264     -0.2867
    108  CB       -12.5770  -42.8100  -13.5510 C.3   264  LYS264      0.0271
    109  CG       -11.1240  -43.2750  -13.3570 C.3   264  LYS264      0.0035
    110  CD       -10.1570  -42.5070  -14.1850 C.3   264  LYS264      0.0206
    111  CE        -9.1630  -43.4390  -14.8850 C.3   264  LYS264      0.1093
    112  NZ        -7.8670  -43.7610  -14.2240 N.3   264  LYS264     -0.1314
    113  N        -10.0470  -46.3020   -6.0590 N.3   272  GLU272     -0.1245
    114  CA       -10.5120  -46.3790   -7.4460 C.3   272  GLU272      0.1567
    115  C        -11.2450  -47.6770   -7.7270 C.2   272  GLU272      0.2260
    116  O        -10.9510  -48.7140   -7.1110 O.2   272  GLU272     -0.2867
    117  CB        -9.3510  -46.2090   -8.4230 C.3   272  GLU272      0.0388
    118  CG        -8.5970  -44.8920   -8.2510 C.3   272  GLU272      0.1160
    119  CD        -7.5960  -44.6670   -9.3630 C.2   272  GLU272      0.3649
    120  OE1       -6.4080  -45.0210   -9.1860 O.co2 272  GLU272     -0.2457
    121  OE2       -8.0100  -44.1640  -10.4270 O.co2 272  GLU272     -0.2457
    122  N        -11.5090  -48.3790  -14.7180 N.3   275  HIS275     -0.1241
    123  CA       -10.9000  -47.5680  -15.7780 C.3   275  HIS275      0.1621
    124  C        -11.4470  -48.0340  -17.1330 C.2   275  HIS275      0.2264
    125  O        -11.5270  -49.2560  -17.3990 O.2   275  HIS275     -0.2867
    126  CB        -9.3710  -47.7070  -15.7380 C.3   275  HIS275      0.0745
    127  CG        -8.8030  -47.5530  -14.3670 C.ar  275  HIS275      0.0817
    128  ND1       -8.5130  -48.6310  -13.5550 N.ar  275  HIS275     -0.2268
    129  CD2       -8.5190  -46.4470  -13.6400 C.ar  275  HIS275      0.1154
    130  CE1       -8.0510  -48.1920  -12.3950 C.ar  275  HIS275      0.1986
    131  NE2       -8.0490  -46.8700  -12.4210 N.ar  275  HIS275     -0.2212
    132  N          1.9310  -41.2280  -16.1810 N.3   308  HIS308     -0.1241
    133  CA         0.5820  -41.5060  -15.6780 C.3   308  HIS308      0.1621
    134  C          0.0850  -40.2900  -14.9000 C.2   308  HIS308      0.2264
    135  O          0.5700  -39.9990  -13.8030 O.2   308  HIS308     -0.2867
    136  CB         0.5730  -42.7670  -14.8190 C.3   308  HIS308      0.0745
    137  CG        -0.7570  -43.0820  -14.1980 C.ar  308  HIS308      0.0817
    138  ND1       -1.9110  -43.2510  -14.9370 N.ar  308  HIS308     -0.2268
    139  CD2       -1.1030  -43.3050  -12.9070 C.ar  308  HIS308      0.1154
    140  CE1       -2.9100  -43.5490  -14.1270 C.ar  308  HIS308      0.1986
    141  NE2       -2.4480  -43.5880  -12.8900 N.ar  308  HIS308     -0.2212
    142  N         -3.0290  -37.7930  -13.4790 N.3   310  GLU310     -0.1245
    143  CA        -4.4170  -37.7680  -13.0470 C.3   310  GLU310      0.1567
    144  C         -4.9160  -36.3350  -13.0240 C.2   310  GLU310      0.2260
    145  O         -4.2320  -35.4380  -12.5310 O.2   310  GLU310     -0.2867
    146  CB        -4.5720  -38.4690  -11.6960 C.3   310  GLU310      0.0388
    147  CG        -4.1770  -39.9530  -11.7710 C.3   310  GLU310      0.1160
    148  CD        -4.2830  -40.6960  -10.4490 C.2   310  GLU310      0.3649
    149  OE1       -3.5980  -40.3150   -9.4880 O.co2 310  GLU310     -0.2457
    150  OE2       -5.0490  -41.6810  -10.3660 O.co2 310  GLU310     -0.2457
    151  N         -1.9040  -35.2330   -9.7340 N.3   323  GLU323     -0.1245
    152  CA        -0.6330  -35.9120   -9.4980 C.3   323  GLU323      0.1567
    153  C         -0.1720  -36.3950  -10.8710 C.2   323  GLU323      0.2260
    154  O         -0.9840  -36.5700  -11.7870 O.2   323  GLU323     -0.2867
    155  CB        -0.8920  -37.1040   -8.5420 C.3   323  GLU323      0.0388
    156  CG         0.2330  -38.1380   -8.2670 C.3   323  GLU323      0.1160
    157  CD        -0.3310  -39.5050   -7.8910 C.2   323  GLU323      0.3649
    158  OE1        0.4030  -40.4180   -7.4520 O.co2 323  GLU323     -0.2457
    159  OE2       -1.5430  -39.6860   -8.0560 O.co2 323  GLU323     -0.2457
    160  N          6.0660  -43.1170  -14.6340 N.3   327  ARG327     -0.1245
    161  CA         5.9760  -44.5650  -14.8400 C.3   327  ARG327      0.1563
    162  C          4.5550  -44.9190  -15.3350 C.2   327  ARG327      0.2260
    163  O          3.6510  -44.0880  -15.2650 O.2   327  ARG327     -0.2867
    164  CB         6.2210  -45.2880  -13.5190 C.3   327  ARG327      0.0307
    165  CG         5.0920  -44.9210  -12.6020 C.3   327  ARG327      0.0489
    166  CD         4.8810  -45.7860  -11.4450 C.3   327  ARG327      0.2205
    167  NE         4.0190  -45.0570  -10.5230 N.pl3 327  ARG327     -0.0865
    168  CZ         2.6930  -45.0360  -10.5580 C.cat 327  ARG327      0.5346
    169  NH1        2.0270  -45.7360  -11.4610 N.pl3 327  ARG327      0.1354
    170  NH2        2.0400  -44.3130   -9.6560 N.pl3 327  ARG327      0.1354
    171  N         -1.0630  -48.3620  -13.1790 N.3   330  GLY330     -0.1210
    172  CA        -1.3140  -49.6890  -12.6210 C.3   330  GLY330      0.1956
    173  C         -2.5540  -50.3480  -13.1910 C.2   330  GLY330      0.2611
    174  O         -3.1230  -49.8810  -14.1880 O.2   330  GLY330     -0.2717
    175  N         -2.9780  -51.4360  -12.5480 N.am  331  TRP331     -0.1976
    176  CA        -4.0850  -52.2810  -13.0150 C.3   331  TRP331      0.1640
    177  C         -3.8050  -52.7540  -14.4470 C.2   331  TRP331      0.2290
    178  O         -2.6410  -52.9630  -14.8000 O.2   331  TRP331     -0.2864
    179  CB        -5.4340  -51.5560  -12.9160 C.3   331  TRP331      0.0576
    180  CG        -5.8270  -51.0220  -11.5420 C.ar  331  TRP331      0.0006
    181  CD1       -5.0030  -50.4590  -10.5880 C.ar  331  TRP331      0.0946
    182  CD2       -7.1560  -50.9630  -11.0020 C.ar  331  TRP331      0.0152
    183  NE1       -5.7450  -50.0700   -9.4910 N.ar  331  TRP331     -0.2442
    184  CE2       -7.0650  -50.3660   -9.7200 C.ar  331  TRP331      0.0810
    185  CE3       -8.4220  -51.3580  -11.4820 C.ar  331  TRP331      0.0012
    186  CZ2       -8.1860  -50.1570   -8.9120 C.ar  331  TRP331      0.0191
    187  CZ3       -9.5400  -51.1420  -10.6780 C.ar  331  TRP331      0.0001
    188  CH2       -9.4080  -50.5550   -9.4010 C.ar  331  TRP331      0.0015
    189  N         -4.5580  -51.0040  -17.3010 N.3   333  MET333     -0.1245
    190  CA        -4.7090  -49.8960  -18.2550 C.3   333  MET333      0.1570
    191  C         -3.7790  -50.0270  -19.4670 C.2   333  MET333      0.2261
    192  O         -4.2160  -49.8790  -20.6170 O.2   333  MET333     -0.2867
    193  CB        -4.5440  -48.5330  -17.5760 C.3   333  MET333      0.0387
    194  CG        -5.7840  -48.0550  -16.8390 C.3   333  MET333      0.0595
    195  SD        -5.5860  -46.4460  -16.0340 S.3   333  MET333     -0.1393
    196  CE        -5.0280  -46.9560  -14.4100 C.3   333  MET333      0.0692
@<TRIPOS>BOND
     1   192   191    2
     2   191   190    1
     3   190   193    1
     4   190   189    1
     5   193   194    1
     6   125   124    2
     7   124   123    1
     8   194   195    1
     9   132   133    1
    10   195   196    1
    11    60    59    2
    12   104   105    1
    13   123   126    1
    14   123   122    1
    15   126   127    1
    16   133   134    1
    17   133   136    1
    18    61    59   am
    19   162   163    2
    20   162   161    1
    21    59    58    1
    22   138   137   ar
    23   138   140   ar
    24   134   135    2
    25   111   112    1
    26   111   110    1
    27   161   160    1
    28   161   164    1
    29   136   137    1
    30   178   177    2
    31   105   106    1
    32   105   108    1
    33   107   106    2
    34   177   176    1
    35   127   129   ar
    36   127   128   ar
    37   137   139   ar
    38   174   173    2
    39   110   109    1
    40    15    16    2
    41    15    14    1
    42   140   141   ar
    43   129   131   ar
    44    58    55    1
    45   128   130   ar
    46   108   109    1
    47   164   165    1
    48   142   143    1
    49    54    55    1
    50    55    56    1
    51    14    13    1
    52   173   172    1
    53   173   175   am
    54   171   172    1
    55   143   144    1
    56   143   146    1
    57   144   145    2
    58   176   179    1
    59   176   175    1
    60   179   180    1
    61   139   141   ar
    62   165   166    1
    63   131   130   ar
    64    56    57    2
    65    56    62   am
    66    12    11    2
    67    13    11   am
    68   154   153    2
    69   147   146    1
    70   147   148    1
    71   180   182   ar
    72   180   181   ar
    73   185   182   ar
    74   185   187   ar
    75   169   168    1
    76   166   167    1
    77    11    10    1
    78   182   184   ar
    79    62    63    1
    80   153   152    1
    81   187   188   ar
    82   181   183   ar
    83   168   167    2
    84   168   170    1
    85   148   150   ar
    86   148   149   ar
    87   121   119   ar
    88   151   152    1
    89   184   183   ar
    90   184   186   ar
    91    10     9    1
    92    63    64    1
    93    63    66    1
    94   152   155    1
    95   188   186   ar
    96   119   120   ar
    97   119   118    1
    98    65    64    2
    99    64    70   am
   100     9     3   am
   101    77    76   ar
   102     4     3    2
   103    66    67    1
   104    70    71    1
   105   155   156    1
   106     3     2    1
   107   117   118    1
   108   117   114    1
   109   156   157    1
   110    71    74    1
   111    71    72    1
   112   159   157   ar
   113   157   158   ar
   114    76    78   ar
   115    76    75    1
   116   115   114    1
   117   115   116    2
   118     2     1    1
   119     2     5    1
   120    74    75    1
   121   114   113    1
   122    73    72    2
   123    67    69   am
   124    67    68    2
   125    72    79   am
   126     5     6    1
   127    79    80    1
   128     8     6    1
   129     6     7    1
   130    81    80    1
   131    81    82    2
   132    80    83    1
   133    36    34   ar
   134    36    38   ar
   135    91    88    1
   136    39    38    1
   137    34    33   ar
   138    38    37   ar
   139    92    93    1
   140    92    89   am
   141    83    84    1
   142    93    96    1
   143    93    94    1
   144    88    89    1
   145    88    87    1
   146   103   102    1
   147    31    30    2
   148    17    18    1
   149    84    86    1
   150    84    85    1
   151    20    19    2
   152    96    97    1
   153    33    32    1
   154    33    35   ar
   155    89    90    2
   156    29    30    1
   157    29    32    1
   158    29    28    1
   159    37    35   ar
   160    94    98   am
   161    94    95    2
   162    98    99    1
   163    30    40   am
   164    19    18    1
   165    27    25    1
   166    18    21    1
   167   102    99    1
   168    24    25    2
   169    24    23    1
   170    21    22    1
   171    99   100    1
   172    22    23    1
   173    25    26    1
   174    52    50   ar
   175    52    53   ar
   176    50    47   ar
   177    40    41    1
   178    41    44    1
   179    41    42    1
   180    53    51   ar
   181   100   101    2
   182    47    45   ar
   183    47    49   ar
   184    44    45    1
   185    42    43    2
   186    51    49   ar
   187    45    46   ar
   188    49    48   ar
   189    46    48   ar
