@<TRIPOS>MOLECULE
tmp/3vmmA00.pdb
 198 186 0 0 0
SMALL
GASTEIGER

@<TRIPOS>ATOM
      1  N          5.3700  -34.9060   -3.5890 N.3   137  LYS137     -0.1245
      2  CA         4.1590  -34.1610   -3.9460 C.3   137  LYS137      0.1561
      3  C          4.2250  -32.6510   -3.6770 C.2   137  LYS137      0.2260
      4  O          3.5800  -31.8720   -4.3810 O.2   137  LYS137     -0.2867
      5  CB         2.9190  -34.8000   -3.3120 C.3   137  LYS137      0.0271
      6  CG         2.4600  -36.0830   -4.0450 C.3   137  LYS137      0.0035
      7  CD         1.1600  -36.6450   -3.4980 C.3   137  LYS137      0.0206
      8  CE         0.6190  -37.7610   -4.3970 C.3   137  LYS137      0.1093
      9  NZ         1.4650  -39.0020   -4.4430 N.3   137  LYS137     -0.1314
     10  N          3.6280  -30.2920   -6.7820 N.3   141  ARG141     -0.1245
     11  CA         2.6370  -29.2140   -6.7920 C.3   141  ARG141      0.1563
     12  C          3.2630  -27.8600   -7.1260 C.2   141  ARG141      0.2260
     13  O          2.6680  -27.0620   -7.8500 O.2   141  ARG141     -0.2867
     14  CB         1.8760  -29.1540   -5.4650 C.3   141  ARG141      0.0307
     15  CG         0.8030  -28.0740   -5.4090 C.3   141  ARG141      0.0489
     16  CD        -0.2250  -28.2100   -6.5370 C.3   141  ARG141      0.2205
     17  NE        -1.0450  -29.4000   -6.3630 N.pl3 141  ARG141     -0.0865
     18  CZ        -1.7400  -29.9860   -7.3270 C.cat 141  ARG141      0.5346
     19  NH1       -1.7210  -29.5000   -8.5590 N.pl3 141  ARG141      0.1354
     20  NH2       -2.4560  -31.0650   -7.0530 N.pl3 141  ARG141      0.1354
     21  N         -2.9670  -23.9270   -7.2580 N.3   152  ILE152     -0.1245
     22  CA        -3.6530  -23.9780   -5.9690 C.3   152  ILE152      0.1561
     23  C         -2.6810  -23.6820   -4.8170 C.2   152  ILE152      0.2260
     24  O         -1.4750  -23.9610   -4.9070 O.2   152  ILE152     -0.2867
     25  CB        -4.3840  -25.3410   -5.7220 C.3   152  ILE152      0.0252
     26  CG1       -3.4280  -26.5340   -5.8710 C.3   152  ILE152      0.0019
     27  CG2       -5.5980  -25.4960   -6.6440 C.3   152  ILE152      0.0019
     28  CD1       -4.0510  -27.8850   -5.5470 C.3   152  ILE152      0.0001
     29  N         -7.2860  -30.9050    1.0500 N.3   175  ILE175     -0.1245
     30  CA        -6.6940  -32.2240    0.8930 C.3   175  ILE175      0.1561
     31  C         -5.3890  -32.3160    1.6810 C.2   175  ILE175      0.2260
     32  O         -4.4910  -31.4860    1.5210 O.2   175  ILE175     -0.2867
     33  CB        -6.4570  -32.5430   -0.6000 C.3   175  ILE175      0.0252
     34  CG1       -7.7890  -32.8670   -1.2950 C.3   175  ILE175      0.0019
     35  CG2       -5.4180  -33.6610   -0.7870 C.3   175  ILE175      0.0019
     36  CD1       -8.3560  -34.2700   -0.9950 C.3   175  ILE175      0.0001
     37  N         -2.4310  -35.1280    2.4110 N.3   177  LYS177     -0.1245
     38  CA        -1.9380  -36.4100    1.9290 C.3   177  LYS177      0.1561
     39  C         -0.4300  -36.5910    2.1270 C.2   177  LYS177      0.2260
     40  O          0.3230  -35.6180    2.1210 O.2   177  LYS177     -0.2867
     41  CB        -2.3350  -36.6230    0.4580 C.3   177  LYS177      0.0271
     42  CG        -1.8480  -35.5500   -0.4810 C.3   177  LYS177      0.0035
     43  CD        -2.5020  -35.6670   -1.8230 C.3   177  LYS177      0.0206
     44  CE        -2.0810  -34.5280   -2.7280 C.3   177  LYS177      0.1093
     45  NZ        -2.4640  -34.8360   -4.1240 N.3   177  LYS177     -0.1314
     46  N          3.8400  -41.5570   -1.1480 N.3   181  LEU181     -0.1231
     47  CA         3.2720  -42.8820   -1.3780 C.3   181  LEU181      0.1693
     48  C          2.4720  -42.9620   -2.6830 C.2   181  LEU181      0.2592
     49  O          2.7470  -42.2490   -3.6450 O.2   181  LEU181     -0.2718
     50  CB         2.4480  -43.3340   -0.1670 C.3   181  LEU181      0.0284
     51  CG         3.2370  -43.4230    1.1470 C.3   181  LEU181      0.0019
     52  CD1        2.3110  -43.6110    2.3310 C.3   181  LEU181      0.0001
     53  CD2        4.3050  -44.5370    1.1120 C.3   181  LEU181      0.0001
     54  N          1.4970  -43.8570   -2.7100 N.am  182  ALA182     -0.1966
     55  CA         0.6620  -44.0870   -3.8670 C.3   182  ALA182      0.1728
     56  C         -0.6030  -44.7500   -3.3490 C.2   182  ALA182      0.2617
     57  O         -0.8380  -44.7940   -2.1310 O.2   182  ALA182     -0.2715
     58  CB         1.3780  -44.9980   -4.8770 C.3   182  ALA182      0.0334
     59  N         -1.4200  -45.2390   -4.2780 N.am  183  SER183     -0.1936
     60  CA        -2.6180  -46.0080   -3.9660 C.3   183  SER183      0.2055
     61  C         -3.5810  -45.2960   -3.0210 C.2   183  SER183      0.2644
     62  O         -4.3720  -45.9520   -2.3490 O.2   183  SER183     -0.2714
     63  CB        -2.2320  -47.3860   -3.4080 C.3   183  SER183      0.2130
     64  OG        -3.3790  -48.1390   -3.0500 O.3   183  SER183     -0.2179
     65  N         -3.5220  -43.9630   -2.9800 N.am  184  SER184     -0.1935
     66  CA        -4.4120  -43.1470   -2.1330 C.3   184  SER184      0.2055
     67  C         -4.2040  -43.3530   -0.6310 C.2   184  SER184      0.2642
     68  O         -5.0500  -42.9530    0.1780 O.2   184  SER184     -0.2714
     69  CB        -5.8880  -43.3720   -2.4790 C.3   184  SER184      0.2130
     70  OG        -6.1840  -42.9730   -3.7980 O.3   184  SER184     -0.2179
     71  N         -3.0800  -43.9710   -0.2660 N.am  185  ILE185     -0.1977
     72  CA        -2.7550  -44.2180    1.1290 C.3   185  ILE185      0.1596
     73  C         -2.6600  -42.8850    1.8640 C.2   185  ILE185      0.2287
     74  O         -1.9710  -41.9670    1.4110 O.2   185  ILE185     -0.2864
     75  CB        -1.4380  -45.0370    1.2780 C.3   185  ILE185      0.0276
     76  CG1       -1.5760  -46.4060    0.5860 C.3   185  ILE185      0.0022
     77  CG2       -1.0610  -45.2020    2.7590 C.3   185  ILE185      0.0022
     78  CD1       -0.2430  -47.1250    0.3060 C.3   185  ILE185      0.0001
     79  N         -4.5170  -40.3880    2.0810 N.3   187  VAL187     -0.1245
     80  CA        -5.1030  -39.2120    1.4420 C.3   187  VAL187      0.1561
     81  C         -6.4290  -38.8800    2.1150 C.2   187  VAL187      0.2260
     82  O         -7.3430  -39.7070    2.1400 O.2   187  VAL187     -0.2867
     83  CB        -5.3080  -39.4180   -0.0760 C.3   187  VAL187      0.0252
     84  CG1       -6.0000  -38.2050   -0.7050 C.3   187  VAL187      0.0019
     85  CG2       -3.9770  -39.6930   -0.7640 C.3   187  VAL187      0.0019
     86  N         -3.3470  -28.8880    0.8840 N.3   225  GLU225     -0.1231
     87  CA        -3.6040  -28.4650   -0.4730 C.3   225  GLU225      0.1699
     88  C         -5.0920  -28.1840   -0.6190 C.2   225  GLU225      0.2592
     89  O         -5.9160  -28.8460    0.0190 O.2   225  GLU225     -0.2718
     90  CB        -3.2530  -29.6430   -1.3790 C.3   225  GLU225      0.0402
     91  CG        -2.6020  -29.3060   -2.6840 C.3   225  GLU225      0.1161
     92  CD        -2.2370  -30.5500   -3.4750 C.2   225  GLU225      0.3649
     93  OE1       -3.1010  -31.4340   -3.6870 O.co2 225  GLU225     -0.2457
     94  OE2       -1.0700  -30.6350   -3.8950 O.co2 225  GLU225     -0.2457
     95  N         -5.4370  -27.2130   -1.4630 N.am  226  GLU226     -0.1966
     96  CA        -6.8360  -26.9680   -1.8410 C.3   226  GLU226      0.1733
     97  C         -7.4830  -28.2120   -2.4480 C.2   226  GLU226      0.2616
     98  O         -6.8510  -28.9620   -3.1970 O.2   226  GLU226     -0.2715
     99  CB        -6.9370  -25.8180   -2.8450 C.3   226  GLU226      0.0429
    100  CG        -6.5690  -24.4620   -2.2810 C.3   226  GLU226      0.1163
    101  CD        -6.9280  -23.3140   -3.2040 C.2   226  GLU226      0.3649
    102  OE1       -6.0000  -22.7020   -3.7700 O.co2 226  GLU226     -0.2457
    103  OE2       -8.1370  -23.0270   -3.3680 O.co2 226  GLU226     -0.2457
    104  N         -8.7460  -28.4330   -2.1120 N.am  227  PHE227     -0.1960
    105  CA        -9.5200  -29.4700   -2.7750 C.3   227  PHE227      0.1771
    106  C         -9.9670  -28.9930   -4.1560 C.2   227  PHE227      0.2619
    107  O        -10.5870  -27.9290   -4.3000 O.2   227  PHE227     -0.2715
    108  CB       -10.7280  -29.8790   -1.9340 C.3   227  PHE227      0.0574
    109  CG       -11.6410  -30.8570   -2.6220 C.ar  227  PHE227     -0.0200
    110  CD1      -11.2410  -32.1800   -2.8290 C.ar  227  PHE227     -0.0042
    111  CD2      -12.9060  -30.4580   -3.0620 C.ar  227  PHE227     -0.0042
    112  CE1      -12.0840  -33.0870   -3.4630 C.ar  227  PHE227     -0.0003
    113  CE2      -13.7600  -31.3620   -3.6990 C.ar  227  PHE227     -0.0003
    114  CZ       -13.3490  -32.6810   -3.8990 C.ar  227  PHE227     -0.0000
    115  N         -9.6280  -29.7860   -5.1650 N.am  228  LEU228     -0.1977
    116  CA       -10.0130  -29.5080   -6.5360 C.3   228  LEU228      0.1596
    117  C        -11.4490  -29.9640   -6.8110 C.2   228  LEU228      0.2287
    118  O        -11.7260  -31.1590   -6.9240 O.2   228  LEU228     -0.2864
    119  CB        -9.0350  -30.1780   -7.4980 C.3   228  LEU228      0.0297
    120  CG        -7.5790  -29.7080   -7.4490 C.3   228  LEU228      0.0022
    121  CD1       -6.6940  -30.7650   -8.0910 C.3   228  LEU228      0.0001
    122  CD2       -7.4220  -28.3830   -8.1520 C.3   228  LEU228      0.0001
    123  N        -13.0000  -37.1700  -12.6920 N.3   244  TYR244     -0.1241
    124  CA       -11.5750  -37.1490  -12.9820 C.3   244  TYR244      0.1605
    125  C        -11.2480  -38.1410  -14.0610 C.2   244  TYR244      0.2264
    126  O        -12.0880  -38.9650  -14.4320 O.2   244  TYR244     -0.2867
    127  CB       -10.7470  -37.4390  -11.7190 C.3   244  TYR244      0.0534
    128  CG       -10.6950  -38.8990  -11.3000 C.ar  244  TYR244     -0.0201
    129  CD1       -9.4870  -39.5890  -11.2860 C.ar  244  TYR244     -0.0009
    130  CD2      -11.8580  -39.5950  -10.9300 C.ar  244  TYR244     -0.0009
    131  CE1       -9.4230  -40.9310  -10.9050 C.ar  244  TYR244      0.0417
    132  CE2      -11.8080  -40.9370  -10.5620 C.ar  244  TYR244      0.0417
    133  CZ       -10.5770  -41.5960  -10.5390 C.ar  244  TYR244      0.1957
    134  OH       -10.4990  -42.9260  -10.1710 O.3   244  TYR244     -0.2866
    135  N        -15.1160  -43.3020   -7.5740 N.3   267  GLN267     -0.1245
    136  CA       -14.3120  -43.9910   -6.5580 C.3   267  GLN267      0.1566
    137  C        -15.0960  -44.1830   -5.2360 C.2   267  GLN267      0.2260
    138  O        -16.1860  -43.6380   -5.0700 O.2   267  GLN267     -0.2867
    139  CB       -12.8900  -43.3640   -6.3970 C.3   267  GLN267      0.0367
    140  CG       -12.8150  -41.8560   -6.2570 C.3   267  GLN267      0.0905
    141  CD       -11.5580  -41.1900   -6.8840 C.2   267  GLN267      0.2608
    142  OE1      -10.4100  -41.6070   -6.6840 O.2   267  GLN267     -0.2717
    143  NE2      -11.7930  -40.1040   -7.5960 N.am  267  GLN267     -0.0878
    144  N        -11.4380  -42.3150   -1.8310 N.3   270  PHE270     -0.1241
    145  CA       -10.3950  -42.1090   -2.8260 C.3   270  PHE270      0.1605
    146  C         -9.8640  -43.4160   -3.4270 C.2   270  PHE270      0.2264
    147  O         -8.8950  -43.4040   -4.1850 O.2   270  PHE270     -0.2867
    148  CB        -9.2700  -41.2280   -2.2700 C.3   270  PHE270      0.0534
    149  CG        -9.7330  -39.8660   -1.8260 C.ar  270  PHE270     -0.0203
    150  CD1      -10.3930  -39.0130   -2.7150 C.ar  270  PHE270     -0.0042
    151  CD2       -9.5010  -39.4290   -0.5180 C.ar  270  PHE270     -0.0042
    152  CE1      -10.8210  -37.7430   -2.3100 C.ar  270  PHE270     -0.0003
    153  CE2       -9.9170  -38.1670   -0.1000 C.ar  270  PHE270     -0.0003
    154  CZ       -10.5780  -37.3230   -0.9960 C.ar  270  PHE270     -0.0000
    155  N        -10.0470  -46.3020   -6.0590 N.3   272  GLU272     -0.1245
    156  CA       -10.5120  -46.3790   -7.4460 C.3   272  GLU272      0.1567
    157  C        -11.2450  -47.6770   -7.7270 C.2   272  GLU272      0.2260
    158  O        -10.9510  -48.7140   -7.1110 O.2   272  GLU272     -0.2867
    159  CB        -9.3510  -46.2090   -8.4230 C.3   272  GLU272      0.0388
    160  CG        -8.5970  -44.8920   -8.2510 C.3   272  GLU272      0.1160
    161  CD        -7.5960  -44.6670   -9.3630 C.2   272  GLU272      0.3649
    162  OE1       -6.4080  -45.0210   -9.1860 O.co2 272  GLU272     -0.2457
    163  OE2       -8.0100  -44.1640  -10.4270 O.co2 272  GLU272     -0.2457
    164  N         -3.0290  -37.7930  -13.4790 N.3   310  GLU310     -0.1245
    165  CA        -4.4170  -37.7680  -13.0470 C.3   310  GLU310      0.1567
    166  C         -4.9160  -36.3350  -13.0240 C.2   310  GLU310      0.2260
    167  O         -4.2320  -35.4380  -12.5310 O.2   310  GLU310     -0.2867
    168  CB        -4.5720  -38.4690  -11.6960 C.3   310  GLU310      0.0388
    169  CG        -4.1770  -39.9530  -11.7710 C.3   310  GLU310      0.1160
    170  CD        -4.2830  -40.6960  -10.4490 C.2   310  GLU310      0.3649
    171  OE1       -3.5980  -40.3150   -9.4880 O.co2 310  GLU310     -0.2457
    172  OE2       -5.0490  -41.6810  -10.3660 O.co2 310  GLU310     -0.2457
    173  N         -8.3580  -33.6760  -12.4490 N.3   312  LYS312     -0.1245
    174  CA        -9.7080  -33.3780  -11.9940 C.3   312  LYS312      0.1561
    175  C        -10.4110  -32.5100  -13.0250 C.2   312  LYS312      0.2260
    176  O         -9.8710  -31.4930  -13.4750 O.2   312  LYS312     -0.2867
    177  CB        -9.6860  -32.6520  -10.6420 C.3   312  LYS312      0.0271
    178  CG       -11.0090  -32.6660   -9.8740 C.3   312  LYS312      0.0035
    179  CD       -11.2510  -34.0470   -9.2570 C.3   312  LYS312      0.0206
    180  CE       -12.6760  -34.1900   -8.7100 C.3   312  LYS312      0.1093
    181  NZ       -12.8850  -33.7250   -7.3050 N.3   312  LYS312     -0.1314
    182  N         -4.0530  -33.4260  -10.4300 N.3   322  ILE322     -0.1231
    183  CA        -3.9820  -34.1260   -9.1530 C.3   322  ILE322      0.1692
    184  C         -2.5350  -34.4900   -8.8270 C.2   322  ILE322      0.2591
    185  O         -2.0030  -34.0670   -7.8030 O.2   322  ILE322     -0.2718
    186  CB        -4.8730  -35.3890   -9.1210 C.3   322  ILE322      0.0266
    187  CG1       -6.3450  -35.0050   -9.3350 C.3   322  ILE322      0.0019
    188  CG2       -4.7080  -36.1240   -7.7970 C.3   322  ILE322      0.0020
    189  CD1       -7.1760  -36.1000   -9.9810 C.3   322  ILE322      0.0001
    190  N         -1.9040  -35.2330   -9.7340 N.am  323  GLU323     -0.1979
    191  CA        -0.6330  -35.9120   -9.4980 C.3   323  GLU323      0.1602
    192  C         -0.1720  -36.3950  -10.8710 C.2   323  GLU323      0.2287
    193  O         -0.9840  -36.5700  -11.7870 O.2   323  GLU323     -0.2864
    194  CB        -0.8920  -37.1040   -8.5420 C.3   323  GLU323      0.0415
    195  CG         0.2330  -38.1380   -8.2670 C.3   323  GLU323      0.1163
    196  CD        -0.3310  -39.5050   -7.8910 C.2   323  GLU323      0.3649
    197  OE1        0.4030  -40.4180   -7.4520 O.co2 323  GLU323     -0.2457
    198  OE2       -1.5430  -39.6860   -8.0560 O.co2 323  GLU323     -0.2457
@<TRIPOS>BOND
     1   126   125    2
     2   125   124    1
     3   164   165    1
     4   176   175    2
     5   165   166    1
     6   165   168    1
     7   175   174    1
     8   166   167    2
     9   124   123    1
    10   124   127    1
    11   173   174    1
    12   174   177    1
    13   193   192    2
    14   169   168    1
    15   169   170    1
    16   127   128    1
    17   128   129   ar
    18   128   130   ar
    19   129   131   ar
    20   130   132   ar
    21   131   133   ar
    22   192   191    1
    23   177   178    1
    24   132   133   ar
    25   133   134    1
    26   170   172   ar
    27   170   171   ar
    28   182   183    1
    29   163   161   ar
    30   189   187    1
    31   178   179    1
    32   190   191    1
    33   190   184   am
    34   191   194    1
    35   161   162   ar
    36   161   160    1
    37   187   186    1
    38   179   180    1
    39   183   186    1
    40   183   184    1
    41   186   188    1
    42   184   185    2
    43   180   181    1
    44    19    18    1
    45   194   195    1
    46   159   160    1
    47   159   156    1
    48   195   196    1
    49   122   120    1
    50   121   120    1
    51   198   196   ar
    52   196   197   ar
    53    13    12    2
    54   157   156    1
    55   157   158    2
    56   143   141   am
    57   135   136    1
    58   119   120    1
    59   119   116    1
    60   156   155    1
    61    18    20    1
    62    18    17    2
    63    21    22    1
    64    12    11    1
    65   118   117    2
    66   141   142    2
    67   141   140    1
    68   117   116    1
    69    11    10    1
    70    11    14    1
    71    27    25    1
    72   136   139    1
    73   136   137    1
    74    16    17    1
    75    16    15    1
    76   116   115    1
    77   139   140    1
    78    22    25    1
    79    22    23    1
    80    26    25    1
    81    26    28    1
    82    14    15    1
    83   137   138    2
    84   115   106   am
    85    24    23    2
    86    58    55    1
    87     9     8    1
    88     8     7    1
    89     4     3    2
    90   107   106    2
    91    59    60    1
    92    59    56   am
    93   147   146    2
    94   106   105    1
    95    45    44    1
    96     6     7    1
    97     6     5    1
    98    60    63    1
    99    60    61    1
   100     2     3    1
   101     2     1    1
   102     2     5    1
   103   114   113   ar
   104   114   112   ar
   105    94    92   ar
   106    55    56    1
   107    55    54    1
   108    70    69    1
   109   102   101   ar
   110   113   111   ar
   111    93    92   ar
   112    49    48    2
   113    92    91    1
   114   112   110   ar
   115   146   145    1
   116    63    64    1
   117   103   101   ar
   118    56    57    2
   119   101   100    1
   120    98    97    2
   121   111   109   ar
   122    61    65   am
   123    61    62    2
   124    65    66    1
   125    99   100    1
   126    99    96    1
   127   110   109   ar
   128   145   148    1
   129   145   144    1
   130   105   104    1
   131   105   108    1
   132    44    43    1
   133   150   152   ar
   134   150   149   ar
   135    54    48   am
   136    91    90    1
   137    48    47    1
   138   109   108    1
   139    69    66    1
   140    97   104   am
   141    97    96    1
   142   152   154   ar
   143   148   149    1
   144    66    67    1
   145    96    95    1
   146   149   151   ar
   147    43    42    1
   148    95    88   am
   149    90    87    1
   150    47    46    1
   151    47    50    1
   152    34    36    1
   153    34    33    1
   154   154   153   ar
   155    35    33    1
   156    85    83    1
   157    84    83    1
   158    67    71   am
   159    67    68    2
   160    88    87    1
   161    88    89    2
   162    33    30    1
   163   151   153   ar
   164    42    41    1
   165    87    86    1
   166    71    72    1
   167    50    51    1
   168    83    80    1
   169    78    76    1
   170    41    38    1
   171    76    75    1
   172    30    29    1
   173    30    31    1
   174    53    51    1
   175    72    75    1
   176    72    73    1
   177    51    52    1
   178    75    77    1
   179    74    73    2
   180    80    79    1
   181    80    81    1
   182    32    31    2
   183    38    39    1
   184    38    37    1
   185    81    82    2
   186    40    39    2
