@<TRIPOS>MOLECULE
tmp/3vmoA00.pdb
 236 233 0 0 0
SMALL
GASTEIGER

@<TRIPOS>ATOM
      1  N         -3.3380   -9.5170    7.6200 N.3   126  ASN126     -0.1240
      2  CA        -2.1250   -8.7680    7.2260 C.3   126  ASN126      0.1653
      3  C         -2.4410   -7.5370    6.4010 C.2   126  ASN126      0.2266
      4  O         -1.5770   -7.0060    5.6750 O.2   126  ASN126     -0.2867
      5  CB        -1.1570   -9.6800    6.4750 C.3   126  ASN126      0.1155
      6  CG        -0.6430  -10.8090    7.3490 C.2   126  ASN126      0.2627
      7  OD1       -0.3090  -10.6000    8.5300 O.2   126  ASN126     -0.2716
      8  ND2       -0.5770  -12.0190    6.7800 N.am  126  ASN126     -0.0877
      9  N          9.9240    2.3360    6.8860 N.3   152  PHE152     -0.1241
     10  CA         9.9430    1.3730    5.8060 C.3   152  PHE152      0.1605
     11  C          8.5020    0.8340    5.7170 C.2   152  PHE152      0.2264
     12  O          8.0620    0.1050    6.6210 O.2   152  PHE152     -0.2867
     13  CB        10.9390    0.2980    6.2660 C.3   152  PHE152      0.0534
     14  CG        11.1640   -0.8900    5.3390 C.ar  152  PHE152     -0.0203
     15  CD1       10.1440   -1.5340    4.6730 C.ar  152  PHE152     -0.0042
     16  CD2       12.4340   -1.4630    5.3050 C.ar  152  PHE152     -0.0042
     17  CE1       10.4040   -2.6770    3.8940 C.ar  152  PHE152     -0.0003
     18  CE2       12.7240   -2.5840    4.5440 C.ar  152  PHE152     -0.0003
     19  CZ        11.7070   -3.2180    3.8450 C.ar  152  PHE152     -0.0000
     20  N          6.2360   -1.6270    4.5250 N.3   154  TYR154     -0.1227
     21  CA         6.3620   -2.9880    4.0380 C.3   154  TYR154      0.1736
     22  C          5.0170   -3.4950    3.4630 C.2   154  TYR154      0.2595
     23  O          3.9870   -3.4040    4.1220 O.2   154  TYR154     -0.2718
     24  CB         6.8670   -3.9390    5.1850 C.3   154  TYR154      0.0548
     25  CG         7.0530   -5.3560    4.7280 C.ar  154  TYR154     -0.0200
     26  CD1        8.2680   -5.7790    4.1840 C.ar  154  TYR154     -0.0009
     27  CD2        5.9850   -6.2730    4.7750 C.ar  154  TYR154     -0.0009
     28  CE1        8.4400   -7.0970    3.7410 C.ar  154  TYR154      0.0417
     29  CE2        6.1370   -7.5670    4.3220 C.ar  154  TYR154      0.0417
     30  CZ         7.3380   -7.9760    3.8120 C.ar  154  TYR154      0.1957
     31  OH         7.4850   -9.2540    3.3600 O.3   154  TYR154     -0.2866
     32  N          5.0660   -4.0520    2.2500 N.am  155  ASP155     -0.1974
     33  CA         3.8590   -4.6190    1.6040 C.3   155  ASP155      0.1709
     34  C          2.6480   -3.7310    1.7010 C.2   155  ASP155      0.2293
     35  O          1.5930   -4.1620    2.1920 O.2   155  ASP155     -0.2864
     36  CB         3.5110   -5.9690    2.2240 C.3   155  ASP155      0.1436
     37  CG         4.2930   -7.0880    1.6360 C.2   155  ASP155      0.3671
     38  OD1        5.3080   -6.8440    0.9330 O.co2 155  ASP155     -0.2456
     39  OD2        3.8920   -8.2390    1.8690 O.co2 155  ASP155     -0.2456
     40  N          2.0240   -2.3590   -1.2980 N.3   157  TYR157     -0.1241
     41  CA         1.9750   -2.1520   -2.7430 C.3   157  TYR157      0.1605
     42  C          1.0560   -3.1650   -3.4140 C.2   157  TYR157      0.2264
     43  O          0.9010   -4.3050   -2.9170 O.2   157  TYR157     -0.2867
     44  CB         3.3670   -2.2480   -3.3470 C.3   157  TYR157      0.0534
     45  CG         3.9100   -3.6510   -3.2980 C.ar  157  TYR157     -0.0201
     46  CD1        4.4520   -4.1710   -2.1150 C.ar  157  TYR157     -0.0009
     47  CD2        3.8360   -4.4850   -4.4280 C.ar  157  TYR157     -0.0009
     48  CE1        4.9410   -5.4800   -2.0680 C.ar  157  TYR157      0.0417
     49  CE2        4.3120   -5.7720   -4.3980 C.ar  157  TYR157      0.0417
     50  CZ         4.8710   -6.2770   -3.2130 C.ar  157  TYR157      0.1957
     51  OH         5.3540   -7.5590   -3.1990 O.3   157  TYR157     -0.2866
     52  N         -1.5140  -11.4620   -5.2200 N.3   174  TRP174     -0.1241
     53  CA        -0.3100  -12.2890   -5.1140 C.3   174  TRP174      0.1605
     54  C         -0.1650  -12.9250   -3.7270 C.2   174  TRP174      0.2264
     55  O          0.5260  -13.9350   -3.5830 O.2   174  TRP174     -0.2867
     56  CB         0.9530  -11.4770   -5.4510 C.3   174  TRP174      0.0550
     57  CG         1.0510  -10.1210   -4.7480 C.ar  174  TRP174      0.0003
     58  CD1        0.6250   -8.9190   -5.2380 C.ar  174  TRP174      0.0946
     59  CD2        1.6080   -9.8460   -3.4410 C.ar  174  TRP174      0.0152
     60  NE1        0.8660   -7.9190   -4.3200 N.ar  174  TRP174     -0.2442
     61  CE2        1.4730   -8.4560   -3.2140 C.ar  174  TRP174      0.0810
     62  CE3        2.2020  -10.6420   -2.4420 C.ar  174  TRP174      0.0012
     63  CZ2        1.9200   -7.8320   -2.0240 C.ar  174  TRP174      0.0191
     64  CZ3        2.6410  -10.0250   -1.2600 C.ar  174  TRP174      0.0001
     65  CH2        2.4920   -8.6310   -1.0640 C.ar  174  TRP174      0.0015
     66  N         -1.4250  -15.2230   -1.3040 N.3   176  TRP176     -0.1227
     67  CA        -2.3500  -16.3680   -1.1870 C.3   176  TRP176      0.1737
     68  C         -2.5710  -16.8850    0.2440 C.2   176  TRP176      0.2595
     69  O         -3.5690  -17.5820    0.5170 O.2   176  TRP176     -0.2718
     70  CB        -1.9350  -17.5340   -2.0920 C.3   176  TRP176      0.0564
     71  CG        -0.4570  -17.6660   -2.4170 C.ar  176  TRP176      0.0003
     72  CD1        0.1940  -17.1210   -3.4920 C.ar  176  TRP176      0.0946
     73  CD2        0.5250  -18.4420   -1.7090 C.ar  176  TRP176      0.0152
     74  NE1        1.5230  -17.4900   -3.4860 N.ar  176  TRP176     -0.2442
     75  CE2        1.7520  -18.3000   -2.4030 C.ar  176  TRP176      0.0810
     76  CE3        0.4910  -19.2330   -0.5510 C.ar  176  TRP176      0.0012
     77  CZ2        2.9330  -18.9170   -1.9760 C.ar  176  TRP176      0.0191
     78  CZ3        1.6670  -19.8470   -0.1290 C.ar  176  TRP176      0.0001
     79  CH2        2.8690  -19.6840   -0.8400 C.ar  176  TRP176      0.0015
     80  N         -1.6470  -16.5470    1.1430 N.am  177  TRP177     -0.1976
     81  CA        -1.6530  -17.0780    2.5100 C.3   177  TRP177      0.1640
     82  C         -2.6650  -16.3670    3.4020 C.2   177  TRP177      0.2290
     83  O         -3.2780  -16.9870    4.2840 O.2   177  TRP177     -0.2864
     84  CB        -0.2470  -17.0080    3.1310 C.3   177  TRP177      0.0576
     85  CG         0.3970  -15.6550    2.9780 C.ar  177  TRP177      0.0006
     86  CD1        0.3320  -14.6110    3.8590 C.ar  177  TRP177      0.0946
     87  CD2        1.1970  -15.2040    1.8730 C.ar  177  TRP177      0.0152
     88  NE1        1.0420  -13.5350    3.3690 N.ar  177  TRP177     -0.2442
     89  CE2        1.5890  -13.8700    2.1570 C.ar  177  TRP177      0.0810
     90  CE3        1.6170  -15.7950    0.6660 C.ar  177  TRP177      0.0012
     91  CZ2        2.3730  -13.1060    1.2680 C.ar  177  TRP177      0.0191
     92  CZ3        2.4000  -15.0430   -0.2190 C.ar  177  TRP177      0.0001
     93  CH2        2.7650  -13.7040    0.0880 C.ar  177  TRP177      0.0015
     94  N          8.4830    0.3280   -0.0310 N.3   204  TYR204     -0.1241
     95  CA         9.1410   -0.9360   -0.3710 C.3   204  TYR204      0.1605
     96  C          8.6140   -1.4390   -1.7160 C.2   204  TYR204      0.2264
     97  O          7.3930   -1.4990   -1.9080 O.2   204  TYR204     -0.2867
     98  CB         8.8820   -2.0030    0.7050 C.3   204  TYR204      0.0534
     99  CG         9.2990   -3.3930    0.2950 C.ar  204  TYR204     -0.0201
    100  CD1       10.5940   -3.8600    0.5460 C.ar  204  TYR204     -0.0009
    101  CD2        8.3850   -4.2610   -0.3380 C.ar  204  TYR204     -0.0009
    102  CE1       10.9780   -5.1470    0.1860 C.ar  204  TYR204      0.0417
    103  CE2        8.7760   -5.5510   -0.7370 C.ar  204  TYR204      0.0417
    104  CZ        10.0600   -5.9880   -0.4790 C.ar  204  TYR204      0.1957
    105  OH        10.4410   -7.2740   -0.8770 O.3   204  TYR204     -0.2866
    106  N         10.2770   -4.2460   -5.0760 N.3   206  MET206     -0.1245
    107  CA        11.3370   -4.8350   -5.8910 C.3   206  MET206      0.1570
    108  C         11.7570   -3.9240   -7.0460 C.2   206  MET206      0.2261
    109  O         11.0460   -2.9800   -7.4050 O.2   206  MET206     -0.2867
    110  CB        10.8910   -6.1980   -6.4360 C.3   206  MET206      0.0387
    111  CG        10.6440   -7.2360   -5.3230 C.3   206  MET206      0.0595
    112  SD        12.2040   -8.0440   -4.8510 S.3   206  MET206     -0.1393
    113  CE        12.4790   -9.0270   -6.3310 C.3   206  MET206      0.0692
    114  N          7.3050  -15.1510  -10.4370 N.3   245  GLN245     -0.1245
    115  CA         7.9210  -13.8900  -10.8880 C.3   245  GLN245      0.1566
    116  C          9.0190  -14.0890  -11.9280 C.2   245  GLN245      0.2260
    117  O          9.8920  -14.9710  -11.7910 O.2   245  GLN245     -0.2867
    118  CB         8.5320  -13.1510   -9.7090 C.3   245  GLN245      0.0367
    119  CG         7.5970  -12.9100   -8.5490 C.3   245  GLN245      0.0905
    120  CD         8.1090  -11.8370   -7.6160 C.2   245  GLN245      0.2608
    121  OE1        7.3400  -11.0090   -7.1490 O.2   245  GLN245     -0.2717
    122  NE2        9.4150  -11.8500   -7.3320 N.am  245  GLN245     -0.0878
    123  N         14.2040   -3.4870   -3.1950 N.3   278  ASP278     -0.1225
    124  CA        14.4980   -4.8770   -2.8650 C.3   278  ASP278      0.1805
    125  C         14.8090   -5.6800   -4.1030 C.2   278  ASP278      0.2598
    126  O         14.4430   -5.2770   -5.2230 O.2   278  ASP278     -0.2718
    127  CB        13.3190   -5.4930   -2.1130 C.3   278  ASP278      0.1424
    128  CG        13.7180   -6.7140   -1.3020 C.2   278  ASP278      0.3668
    129  OD1       14.8930   -6.8050   -0.8860 O.co2 278  ASP278     -0.2456
    130  OD2       12.8590   -7.5940   -1.0950 O.co2 278  ASP278     -0.2456
    131  N         15.5000   -6.8050   -3.9050 N.am  279  THR279     -0.1939
    132  CA        15.7090   -7.8090   -4.9240 C.3   279  THR279      0.2028
    133  C         15.6960   -9.1210   -4.1640 C.2   279  THR279      0.2642
    134  O         16.0240   -9.1590   -2.9740 O.2   279  THR279     -0.2714
    135  CB        17.1020   -7.7070   -5.6130 C.3   279  THR279      0.1808
    136  OG1       17.8640   -6.6210   -5.0670 O.3   279  THR279     -0.2208
    137  CG2       16.9610   -7.5120   -7.0850 C.3   279  THR279      0.0379
    138  N         15.3540  -10.2090   -4.8250 N.am  280  ILE280     -0.1977
    139  CA        15.4960  -11.5130   -4.1600 C.3   280  ILE280      0.1596
    140  C         16.9600  -11.9310   -4.0250 C.2   280  ILE280      0.2287
    141  O         17.4530  -12.0950   -2.9070 O.2   280  ILE280     -0.2864
    142  CB        14.6800  -12.6480   -4.8260 C.3   280  ILE280      0.0276
    143  CG1       14.4180  -12.3340   -6.2960 C.3   280  ILE280      0.0022
    144  CG2       13.3820  -12.8840   -4.0480 C.3   280  ILE280      0.0022
    145  CD1       15.4610  -12.8650   -7.2560 C.3   280  ILE280      0.0001
    146  N         18.2360   -3.1010   -0.7990 N.3   325  ASN325     -0.1240
    147  CA        18.6030   -4.1550    0.1250 C.3   325  ASN325      0.1653
    148  C         19.6230   -5.0630   -0.5610 C.2   325  ASN325      0.2266
    149  O         19.3640   -5.6130   -1.6200 O.2   325  ASN325     -0.2867
    150  CB        17.3630   -4.9320    0.5680 C.3   325  ASN325      0.1155
    151  CG        17.7120   -6.1680    1.3940 C.2   325  ASN325      0.2627
    152  OD1       18.7900   -6.2540    1.9810 O.2   325  ASN325     -0.2716
    153  ND2       16.7940   -7.1180    1.4550 N.am  325  ASN325     -0.0877
    154  N         20.9500   -8.2750    0.2080 N.3   327  VAL327     -0.1245
    155  CA        20.7080   -9.4280    1.1160 C.3   327  VAL327      0.1561
    156  C         22.0280  -10.0030    1.5770 C.2   327  VAL327      0.2260
    157  O         22.9370  -10.2540    0.7870 O.2   327  VAL327     -0.2867
    158  CB        19.7380  -10.5510    0.5350 C.3   327  VAL327      0.0252
    159  CG1       19.6330  -11.7550    1.4900 C.3   327  VAL327      0.0019
    160  CG2       18.3140  -10.0180    0.2870 C.3   327  VAL327      0.0019
    161  N         21.4380   -0.2020    3.3410 N.3   344  TYR344     -0.1241
    162  CA        20.5630   -1.1230    4.0290 C.3   344  TYR344      0.1605
    163  C         20.9170   -2.5530    3.6780 C.2   344  TYR344      0.2264
    164  O         20.8620   -2.9200    2.4860 O.2   344  TYR344     -0.2867
    165  CB        19.0770   -0.8490    3.6470 C.3   344  TYR344      0.0534
    166  CG        18.1720   -1.8520    4.3300 C.ar  344  TYR344     -0.0201
    167  CD1       17.7050   -1.6260    5.6200 C.ar  344  TYR344     -0.0009
    168  CD2       17.8390   -3.0640    3.7020 C.ar  344  TYR344     -0.0009
    169  CE1       16.8950   -2.5810    6.2720 C.ar  344  TYR344      0.0417
    170  CE2       17.0290   -3.9970    4.3210 C.ar  344  TYR344      0.0417
    171  CZ        16.5790   -3.7580    5.6220 C.ar  344  TYR344      0.1957
    172  OH        15.7920   -4.7010    6.2390 O.3   344  TYR344     -0.2866
    173  N         19.7770   -6.5740    4.8410 N.3   346  GLU346     -0.1245
    174  CA        19.1330   -7.6360    5.6030 C.3   346  GLU346      0.1567
    175  C         20.1720   -8.7060    5.8040 C.2   346  GLU346      0.2260
    176  O         20.7180   -9.2670    4.8030 O.2   346  GLU346     -0.2867
    177  CB        17.9490   -8.2030    4.8130 C.3   346  GLU346      0.0388
    178  CG        17.2410   -9.4040    5.4120 C.3   346  GLU346      0.1160
    179  CD        16.1410   -9.8610    4.4530 C.2   346  GLU346      0.3649
    180  OE1       16.4520  -10.3120    3.3370 O.co2 346  GLU346     -0.2457
    181  OE2       14.9600   -9.6900    4.7870 O.co2 346  GLU346     -0.2457
    182  N         16.4640   -9.9560   11.9220 N.3   386  TYR386     -0.1241
    183  CA        15.2350  -10.3390   12.5510 C.3   386  TYR386      0.1605
    184  C         15.4900  -11.3110   13.6970 C.2   386  TYR386      0.2264
    185  O         16.2260  -12.2980   13.5440 O.2   386  TYR386     -0.2867
    186  CB        14.2570  -10.9180   11.4910 C.3   386  TYR386      0.0534
    187  CG        14.2960  -10.1100   10.2120 C.ar  386  TYR386     -0.0201
    188  CD1       14.3350   -8.6990   10.2680 C.ar  386  TYR386     -0.0009
    189  CD2       14.3240  -10.7280    8.9600 C.ar  386  TYR386     -0.0009
    190  CE1       14.3840   -7.9220    9.1190 C.ar  386  TYR386      0.0417
    191  CE2       14.3590   -9.9390    7.7720 C.ar  386  TYR386      0.0417
    192  CZ        14.3900   -8.5380    7.8690 C.ar  386  TYR386      0.1957
    193  OH        14.4200   -7.7190    6.7360 O.3   386  TYR386     -0.2866
    194  N         10.8510  -11.8570   11.4260 N.3   451  THR451     -0.1203
    195  CA        10.9770  -12.6450   10.2220 C.3   451  THR451      0.1994
    196  C         10.8990  -11.6970    9.0080 C.2   451  THR451      0.2618
    197  O         10.4260  -10.5700    9.1570 O.2   451  THR451     -0.2717
    198  CB         9.8580  -13.7520   10.1770 C.3   451  THR451      0.1784
    199  OG1       10.0860  -14.6290    9.0690 O.3   451  THR451     -0.2211
    200  CG2        8.4580  -13.1550   10.0860 C.3   451  THR451      0.0376
    201  N         11.3090  -12.1740    7.8230 N.am  452  ALA452     -0.1965
    202  CA        11.2440  -11.3520    6.5900 C.3   452  ALA452      0.1728
    203  C          9.8250  -10.8520    6.2690 C.2   452  ALA452      0.2616
    204  O          9.6240   -9.7120    5.8270 O.2   452  ALA452     -0.2715
    205  CB        11.8340  -12.1400    5.3990 C.3   452  ALA452      0.0334
    206  N          8.8180  -11.6780    6.5470 N.am  453  TYR453     -0.1960
    207  CA         7.4470  -11.1810    6.5100 C.3   453  TYR453      0.1771
    208  C          7.0770  -10.3180    7.7350 C.2   453  TYR453      0.2619
    209  O          6.5550  -10.8210    8.7340 O.2   453  TYR453     -0.2715
    210  CB         6.4570  -12.3580    6.2970 C.3   453  TYR453      0.0574
    211  CG         5.1070  -11.8990    5.9040 C.ar  453  TYR453     -0.0198
    212  CD1        4.8930  -11.3340    4.6410 C.ar  453  TYR453     -0.0009
    213  CD2        4.0210  -12.0000    6.7830 C.ar  453  TYR453     -0.0009
    214  CE1        3.6520  -10.8990    4.2700 C.ar  453  TYR453      0.0417
    215  CE2        2.7690  -11.5700    6.4080 C.ar  453  TYR453      0.0417
    216  CZ         2.5950  -11.0310    5.1380 C.ar  453  TYR453      0.1957
    217  OH         1.3650  -10.5890    4.7400 O.3   453  TYR453     -0.2866
    218  N          7.3000   -8.9960    7.6330 N.am  454  TYR454     -0.1974
    219  CA         7.2560   -8.0880    8.7940 C.3   454  TYR454      0.1639
    220  C          6.0200   -8.1520    9.6790 C.2   454  TYR454      0.2290
    221  O          6.1570   -8.0640   10.8940 O.2   454  TYR454     -0.2864
    222  CB         7.5440   -6.6090    8.4030 C.3   454  TYR454      0.0560
    223  CG         8.9850   -6.3330    7.9030 C.ar  454  TYR454     -0.0198
    224  CD1        9.9510   -7.3350    7.9030 C.ar  454  TYR454     -0.0009
    225  CD2        9.3630   -5.0490    7.4340 C.ar  454  TYR454     -0.0009
    226  CE1       11.2190   -7.0880    7.4450 C.ar  454  TYR454      0.0417
    227  CE2       10.6520   -4.7800    6.9920 C.ar  454  TYR454      0.0417
    228  CZ        11.5830   -5.8120    7.0050 C.ar  454  TYR454      0.1957
    229  OH        12.8690   -5.6170    6.5660 O.3   454  TYR454     -0.2866
    230  N          4.2330  -10.5290   10.7900 N.3   456  THR456     -0.1218
    231  CA         4.2330  -11.6650   11.7280 C.3   456  THR456      0.1862
    232  C          4.8220  -11.3140   13.0940 C.2   456  THR456      0.2287
    233  O          5.9990  -10.9460   13.1660 O.2   456  THR456     -0.2866
    234  CB         4.9350  -12.8680   11.0840 C.3   456  THR456      0.1770
    235  OG1        4.2610  -13.1850    9.8600 O.3   456  THR456     -0.2211
    236  CG2        4.9300  -14.1320   11.9890 C.3   456  THR456      0.0375
@<TRIPOS>BOND
     1   116   117    2
     2   116   115    1
     3   115   114    1
     4   115   118    1
     5   118   119    1
     6   119   120    1
     7   120   122   am
     8   120   121    2
     9   109   108    2
    10   145   143    1
    11   137   135    1
    12   108   107    1
    13   110   107    1
    14   110   111    1
    15   113   112    1
    16   143   142    1
    17   107   106    1
    18   135   136    1
    19   135   132    1
    20    56    53    1
    21    56    57    1
    22   111   112    1
    23    58    57   ar
    24    58    60   ar
    25   126   125    2
    26    52    53    1
    27    53    54    1
    28   132   133    1
    29   132   131    1
    30   142   139    1
    31   142   144    1
    32   138   133   am
    33   138   139    1
    34    57    59   ar
    35    47    49   ar
    36    47    45   ar
    37    49    50   ar
    38    60    61   ar
    39   133   134    2
    40   139   140    1
    41   125   131   am
    42   125   124    1
    43   140   141    2
    44    54    55    2
    45    72    74   ar
    46    72    71   ar
    47    74    75   ar
    48    59    61   ar
    49    59    62   ar
    50    42    43    2
    51    42    41    1
    52    44    45    1
    53    44    41    1
    54    45    46   ar
    55    61    63   ar
    56    50    51    1
    57    50    48   ar
    58   123   124    1
    59   124   127    1
    60    41    40    1
    61    62    64   ar
    62    71    70    1
    63    71    73   ar
    64    75    77   ar
    65    75    73   ar
    66    46    48   ar
    67   127   128    1
    68    70    67    1
    69    63    65   ar
    70    77    79   ar
    71    97    96    2
    72    96    95    1
    73    73    76   ar
    74   149   148    2
    75    66    67    1
    76   128   130   ar
    77   128   129   ar
    78    64    65   ar
    79    67    68    1
    80   105   104    1
    81    79    78   ar
    82   146   147    1
    83   103   104   ar
    84   103   101   ar
    85   148   147    1
    86    76    78   ar
    87   104   102   ar
    88    95    94    1
    89    95    98    1
    90   101    99   ar
    91    92    93   ar
    92    92    90   ar
    93    93    91   ar
    94   147   150    1
    95   102   100   ar
    96   154   155    1
    97    68    69    2
    98    68    80   am
    99   160   158    1
   100    99   100   ar
   101    99    98    1
   102   158   155    1
   103   158   159    1
   104   150   151    1
   105    90    87   ar
   106   157   156    2
   107    38    37   ar
   108   155   156    1
   109    80    81    1
   110    91    89   ar
   111   151   153   am
   112   151   152    2
   113    33    34    1
   114    33    36    1
   115    33    32    1
   116    37    39   ar
   117    37    36    1
   118    34    35    2
   119    87    89   ar
   120    87    85   ar
   121    89    88   ar
   122    32    22   am
   123   164   163    2
   124    81    84    1
   125    81    82    1
   126    85    84    1
   127    85    86   ar
   128   180   179   ar
   129   161   162    1
   130    31    30    1
   131    88    86   ar
   132    82    83    2
   133    22    21    1
   134    22    23    2
   135   165   162    1
   136   165   166    1
   137   163   162    1
   138   168   170   ar
   139   168   166   ar
   140    28    30   ar
   141    28    26   ar
   142    30    29   ar
   143    19    17   ar
   144    19    18   ar
   145    17    15   ar
   146    21    20    1
   147    21    24    1
   148    26    25   ar
   149   214   212   ar
   150   214   216   ar
   151   170   171   ar
   152    29    27   ar
   153   166   167   ar
   154   179   181   ar
   155   179   178    1
   156    18    16   ar
   157   212   211   ar
   158    15    14   ar
   159    25    27   ar
   160    25    24    1
   161   217   216    1
   162   176   175    2
   163   177   178    1
   164   177   174    1
   165   173   174    1
   166   216   215   ar
   167    16    14   ar
   168    14    13    1
   169   205   202    1
   170   174   175    1
   171   167   169   ar
   172   171   172    1
   173   171   169   ar
   174     4     3    2
   175    11    10    1
   176    11    12    2
   177    10    13    1
   178    10     9    1
   179   204   203    2
   180   211   210    1
   181   211   213   ar
   182   203   206   am
   183   203   202    1
   184   210   207    1
   185     3     2    1
   186   215   213   ar
   187     5     2    1
   188     5     6    1
   189   207   206    1
   190   207   208    1
   191   229   228    1
   192   202   201    1
   193   193   192    1
   194     8     6   am
   195   227   228   ar
   196   227   225   ar
   197   228   226   ar
   198     2     1    1
   199     6     7    2
   200   225   223   ar
   201   226   224   ar
   202   218   208   am
   203   218   219    1
   204   208   209    2
   205   191   192   ar
   206   191   189   ar
   207   201   196   am
   208   192   190   ar
   209   223   224   ar
   210   223   222    1
   211   222   219    1
   212   219   220    1
   213   189   187   ar
   214   196   197    2
   215   196   195    1
   216   199   198    1
   217   190   188   ar
   218   220   221    2
   219   235   234    1
   220   200   198    1
   221   198   195    1
   222   187   188   ar
   223   187   186    1
   224   195   194    1
   225   230   231    1
   226   234   231    1
   227   234   236    1
   228   186   183    1
   229   231   232    1
   230   182   183    1
   231   183   184    1
   232   232   233    2
   233   185   184    2
