@<TRIPOS>MOLECULE
tmp/3vmpA00.pdb
 165 161 0 0 0
SMALL
GASTEIGER

@<TRIPOS>ATOM
      1  N          4.4220   -1.4110    3.3400 N.3   155  TYR155     -0.1227
      2  CA         4.6120   -2.7700    2.8570 C.3   155  TYR155      0.1736
      3  C          3.2910   -3.2530    2.2540 C.2   155  TYR155      0.2595
      4  O          2.2930   -3.2030    2.9230 O.2   155  TYR155     -0.2718
      5  CB         4.9840   -3.6780    4.0370 C.3   155  TYR155      0.0548
      6  CG         5.2000   -5.0850    3.6140 C.ar  155  TYR155     -0.0200
      7  CD1        6.4340   -5.5030    3.0670 C.ar  155  TYR155     -0.0009
      8  CD2        4.1280   -6.0150    3.6720 C.ar  155  TYR155     -0.0009
      9  CE1        6.5930   -6.8370    2.6130 C.ar  155  TYR155      0.0417
     10  CE2        4.2930   -7.3030    3.2630 C.ar  155  TYR155      0.0417
     11  CZ         5.4950   -7.7240    2.7230 C.ar  155  TYR155      0.1957
     12  OH         5.5740   -9.0420    2.3120 O.3   155  TYR155     -0.2866
     13  N          3.3230   -3.7580    1.0230 N.am  156  ASP156     -0.1974
     14  CA         2.1520   -4.4050    0.3660 C.3   156  ASP156      0.1709
     15  C          0.9370   -3.4820    0.3820 C.2   156  ASP156      0.2293
     16  O         -0.1610   -3.9220    0.6470 O.2   156  ASP156     -0.2864
     17  CB         1.7950   -5.7780    0.9500 C.3   156  ASP156      0.1436
     18  CG         2.7420   -6.8660    0.5100 C.2   156  ASP156      0.3671
     19  OD1        3.7540   -6.5230   -0.1210 O.co2 156  ASP156     -0.2456
     20  OD2        2.4760   -8.0720    0.7670 O.co2 156  ASP156     -0.2456
     21  N          0.5460   -1.9150   -2.5660 N.3   158  TYR158     -0.1241
     22  CA         0.5660   -1.7400   -4.0360 C.3   158  TYR158      0.1605
     23  C         -0.4580   -2.6250   -4.7630 C.2   158  TYR158      0.2264
     24  O         -0.8330   -3.6930   -4.2620 O.2   158  TYR158     -0.2867
     25  CB         1.9750   -1.9950   -4.6320 C.3   158  TYR158      0.0534
     26  CG         2.4320   -3.4370   -4.5310 C.ar  158  TYR158     -0.0201
     27  CD1        2.9920   -3.9270   -3.3550 C.ar  158  TYR158     -0.0009
     28  CD2        2.3430   -4.2870   -5.6190 C.ar  158  TYR158     -0.0009
     29  CE1        3.4290   -5.2330   -3.2690 C.ar  158  TYR158      0.0417
     30  CE2        2.7720   -5.5690   -5.5490 C.ar  158  TYR158      0.0417
     31  CZ         3.3070   -6.0540   -4.3650 C.ar  158  TYR158      0.1957
     32  OH         3.7260   -7.3570   -4.3080 O.3   158  TYR158     -0.2866
     33  N         -2.4210  -10.7730   -6.6030 N.3   175  TRP175     -0.1241
     34  CA        -1.2220  -11.6010   -6.3840 C.3   175  TRP175      0.1605
     35  C         -1.2240  -12.1820   -4.9850 C.2   175  TRP175      0.2264
     36  O         -0.4150  -13.0600   -4.6710 O.2   175  TRP175     -0.2867
     37  CB         0.0760  -10.8080   -6.6380 C.3   175  TRP175      0.0550
     38  CG         0.0210   -9.4660   -6.0720 C.ar  175  TRP175      0.0003
     39  CD1       -0.2850   -8.3100   -6.7250 C.ar  175  TRP175      0.0946
     40  CD2        0.2400   -9.1250   -4.7100 C.ar  175  TRP175      0.0152
     41  NE1       -0.2720   -7.2580   -5.8470 N.ar  175  TRP175     -0.2442
     42  CE2        0.0360   -7.7330   -4.5950 C.ar  175  TRP175      0.0810
     43  CE3        0.5850   -9.8650   -3.5610 C.ar  175  TRP175      0.0012
     44  CZ2        0.1760   -7.0580   -3.3740 C.ar  175  TRP175      0.0191
     45  CZ3        0.7310   -9.1860   -2.3470 C.ar  175  TRP175      0.0001
     46  CH2        0.5160   -7.8030   -2.2630 C.ar  175  TRP175      0.0015
     47  N         -3.1750  -16.1360   -0.7250 N.3   178  TRP178     -0.1241
     48  CA        -3.3800  -16.7240    0.6090 C.3   178  TRP178      0.1605
     49  C         -4.5810  -16.0550    1.2990 C.2   178  TRP178      0.2264
     50  O         -5.3760  -16.7350    1.9520 O.2   178  TRP178     -0.2867
     51  CB        -2.0890  -16.6920    1.4770 C.3   178  TRP178      0.0550
     52  CG        -1.4800  -15.3240    1.5110 C.ar  178  TRP178      0.0003
     53  CD1       -1.7050  -14.3740    2.4400 C.ar  178  TRP178      0.0946
     54  CD2       -0.5860  -14.7410    0.5400 C.ar  178  TRP178      0.0152
     55  NE1       -1.0060  -13.2240    2.1240 N.ar  178  TRP178     -0.2442
     56  CE2       -0.3190  -13.4200    0.9600 C.ar  178  TRP178      0.0810
     57  CE3        0.0210  -15.2110   -0.6390 C.ar  178  TRP178      0.0012
     58  CZ2        0.5280  -12.5490    0.2420 C.ar  178  TRP178      0.0191
     59  CZ3        0.8580  -14.3480   -1.3570 C.ar  178  TRP178      0.0001
     60  CH2        1.1110  -13.0320   -0.9120 C.ar  178  TRP178      0.0015
     61  N          7.0600    0.4770   -1.0160 N.3   205  TYR205     -0.1241
     62  CA         7.6880   -0.8060   -1.3880 C.3   205  TYR205      0.1605
     63  C          7.1470   -1.2520   -2.7200 C.2   205  TYR205      0.2264
     64  O          5.9170   -1.2790   -2.9130 O.2   205  TYR205     -0.2867
     65  CB         7.3970   -1.8700   -0.3210 C.3   205  TYR205      0.0534
     66  CG         7.7470   -3.3270   -0.6720 C.ar  205  TYR205     -0.0201
     67  CD1        6.8210   -4.1500   -1.3160 C.ar  205  TYR205     -0.0009
     68  CD2        9.0040   -3.8870   -0.3030 C.ar  205  TYR205     -0.0009
     69  CE1        7.1270   -5.5110   -1.6120 C.ar  205  TYR205      0.0417
     70  CE2        9.3290   -5.2240   -0.5970 C.ar  205  TYR205      0.0417
     71  CZ         8.3730   -6.0420   -1.2490 C.ar  205  TYR205      0.1957
     72  OH         8.6960   -7.3650   -1.5810 O.3   205  TYR205     -0.2866
     73  N          8.8370   -4.0130   -6.1450 N.3   207  MET207     -0.1245
     74  CA         9.9330   -4.6670   -6.8790 C.3   207  MET207      0.1570
     75  C         10.4940   -3.7530   -7.9520 C.2   207  MET207      0.2261
     76  O          9.8580   -2.7410   -8.3430 O.2   207  MET207     -0.2867
     77  CB         9.4560   -5.9560   -7.5120 C.3   207  MET207      0.0387
     78  CG         9.0970   -7.0310   -6.5040 C.3   207  MET207      0.0595
     79  SD        10.5300   -8.0780   -6.1980 S.3   207  MET207     -0.1393
     80  CE        10.9000   -8.7800   -7.7530 C.3   207  MET207      0.0692
     81  N          9.4920  -16.3700  -11.5360 N.3   242  TYR242     -0.1241
     82  CA         9.2470  -16.8090  -10.1830 C.3   242  TYR242      0.1605
     83  C          7.9250  -17.5750  -10.1860 C.2   242  TYR242      0.2264
     84  O          6.8870  -17.0250  -10.5700 O.2   242  TYR242     -0.2867
     85  CB         9.1760  -15.6100   -9.2380 C.3   242  TYR242      0.0534
     86  CG         8.6890  -15.9460   -7.8580 C.ar  242  TYR242     -0.0201
     87  CD1        9.2770  -16.9710   -7.1220 C.ar  242  TYR242     -0.0009
     88  CD2        7.6320  -15.2390   -7.2860 C.ar  242  TYR242     -0.0009
     89  CE1        8.8350  -17.2910   -5.8550 C.ar  242  TYR242      0.0417
     90  CE2        7.1810  -15.5450   -6.0080 C.ar  242  TYR242      0.0417
     91  CZ         7.7810  -16.5790   -5.3040 C.ar  242  TYR242      0.1957
     92  OH         7.3380  -16.9000   -4.0430 O.3   242  TYR242     -0.2866
     93  N          5.6590  -14.3470  -11.2310 N.3   250  GLN250     -0.1245
     94  CA         6.3030  -13.1260  -11.7210 C.3   250  GLN250      0.1566
     95  C          7.3030  -13.3650  -12.8530 C.2   250  GLN250      0.2260
     96  O          7.9790  -14.3790  -12.8670 O.2   250  GLN250     -0.2867
     97  CB         6.9690  -12.4090  -10.5500 C.3   250  GLN250      0.0367
     98  CG         6.0040  -11.6780   -9.6350 C.3   250  GLN250      0.0905
     99  CD         6.7040  -10.7500   -8.6430 C.2   250  GLN250      0.2608
    100  OE1        6.0990   -9.8040   -8.1480 O.2   250  GLN250     -0.2717
    101  NE2        7.9850  -11.0040   -8.3720 N.am  250  GLN250     -0.0878
    102  N         12.8190   -3.6760   -3.9700 N.3   283  ASP283     -0.1225
    103  CA        13.0490   -5.0640   -3.6650 C.3   283  ASP283      0.1805
    104  C         13.2860   -5.8590   -4.9790 C.2   283  ASP283      0.2598
    105  O         12.7670   -5.4840   -6.0530 O.2   283  ASP283     -0.2718
    106  CB        11.8390   -5.6180   -2.9070 C.3   283  ASP283      0.1424
    107  CG        12.2100   -6.7640   -1.9700 C.2   283  ASP283      0.3668
    108  OD1       12.7630   -6.5320   -0.8810 O.co2 283  ASP283     -0.2456
    109  OD2       11.9530   -7.9190   -2.3360 O.co2 283  ASP283     -0.2456
    110  N         14.0730   -6.9480   -4.8810 N.am  284  THR284     -0.1939
    111  CA        14.2800   -7.8780   -6.0060 C.3   284  THR284      0.2028
    112  C         14.0370   -9.2860   -5.5160 C.2   284  THR284      0.2642
    113  O         14.1970   -9.5600   -4.3230 O.2   284  THR284     -0.2714
    114  CB        15.7010   -7.7980   -6.6490 C.3   284  THR284      0.1808
    115  OG1       16.7220   -8.2170   -5.7170 O.3   284  THR284     -0.2208
    116  CG2       16.0400   -6.4220   -7.1300 C.3   284  THR284      0.0379
    117  N         13.6450  -10.1920   -6.4120 N.am  285  ILE285     -0.1977
    118  CA        13.3210  -11.5550   -5.9930 C.3   285  ILE285      0.1596
    119  C         14.5540  -12.3490   -5.5180 C.2   285  ILE285      0.2287
    120  O         14.4310  -13.2480   -4.6930 O.2   285  ILE285     -0.2864
    121  CB        12.5380  -12.3250   -7.0720 C.3   285  ILE285      0.0276
    122  CG1       11.9410  -13.6120   -6.4890 C.3   285  ILE285      0.0022
    123  CG2       13.3950  -12.6020   -8.3500 C.3   285  ILE285      0.0022
    124  CD1       10.7970  -13.4090   -5.5400 C.3   285  ILE285      0.0001
    125  N         16.6270   -3.1930   -1.0840 N.3   330  ASN330     -0.1240
    126  CA        16.9180   -4.2670   -0.1430 C.3   330  ASN330      0.1653
    127  C         17.9860   -5.2030   -0.7040 C.2   330  ASN330      0.2266
    128  O         17.7810   -5.8070   -1.7520 O.2   330  ASN330     -0.2867
    129  CB        15.6370   -5.0680    0.1350 C.3   330  ASN330      0.1155
    130  CG        15.8500   -6.2290    1.0650 C.2   330  ASN330      0.2627
    131  OD1       16.9090   -6.3690    1.7190 O.2   330  ASN330     -0.2716
    132  ND2       14.8360   -7.0860    1.1440 N.am  330  ASN330     -0.0877
    133  N         19.5140   -8.4510    0.1860 N.3   332  VAL332     -0.1245
    134  CA        19.2240   -9.5390    1.1050 C.3   332  VAL332      0.1561
    135  C         20.5450  -10.1270    1.5760 C.2   332  VAL332      0.2260
    136  O         21.4220  -10.3910    0.7840 O.2   332  VAL332     -0.2867
    137  CB        18.3060  -10.6240    0.4580 C.3   332  VAL332      0.0252
    138  CG1       18.1400  -11.8430    1.3490 C.3   332  VAL332      0.0019
    139  CG2       16.9280  -10.0480    0.2430 C.3   332  VAL332      0.0019
    140  N         17.9960   -6.7050    4.5160 N.3   351  GLU351     -0.1245
    141  CA        17.2930   -7.7460    5.2510 C.3   351  GLU351      0.1567
    142  C         18.2660   -8.8890    5.5800 C.2   351  GLU351      0.2260
    143  O         18.8070   -9.4980    4.6710 O.2   351  GLU351     -0.2867
    144  CB        16.1970   -8.3110    4.3490 C.3   351  GLU351      0.0388
    145  CG        15.4930   -9.4650    4.8990 C.3   351  GLU351      0.1160
    146  CD        14.4130   -9.9170    3.9080 C.2   351  GLU351      0.3649
    147  OE1       13.3190   -9.3120    3.8560 O.co2 351  GLU351     -0.2457
    148  OE2       14.6860  -10.8570    3.1600 O.co2 351  GLU351     -0.2457
    149  N          9.2160  -12.0150    7.0850 N.3   457  ALA457     -0.1231
    150  CA         9.1970  -11.2940    5.8260 C.3   457  ALA457      0.1694
    151  C          7.8250  -10.6810    5.4950 C.2   457  ALA457      0.2592
    152  O          7.7530   -9.5550    4.9990 O.2   457  ALA457     -0.2718
    153  CB         9.6100  -12.2140    4.7130 C.3   457  ALA457      0.0304
    154  N          6.7620  -11.4540    5.7220 N.am  458  TYR458     -0.1976
    155  CA         5.4010  -10.9630    5.5190 C.3   458  TYR458      0.1639
    156  C          4.9930  -10.1560    6.7230 C.2   458  TYR458      0.2290
    157  O          4.4510  -10.6880    7.7060 O.2   458  TYR458     -0.2864
    158  CB         4.4400  -12.1360    5.3020 C.3   458  TYR458      0.0560
    159  CG         3.1200  -11.6790    4.7430 C.ar  458  TYR458     -0.0198
    160  CD1        3.0450  -11.0340    3.5220 C.ar  458  TYR458     -0.0009
    161  CD2        1.9530  -11.8710    5.4510 C.ar  458  TYR458     -0.0009
    162  CE1        1.7820  -10.5810    3.0210 C.ar  458  TYR458      0.0417
    163  CE2        0.7300  -11.4550    4.9670 C.ar  458  TYR458      0.0417
    164  CZ         0.6440  -10.8200    3.7530 C.ar  458  TYR458      0.1957
    165  OH        -0.5960  -10.4050    3.2950 O.3   458  TYR458     -0.2866
@<TRIPOS>BOND
     1    96    95    2
     2    95    94    1
     3    94    93    1
     4    94    97    1
     5    81    82    1
     6    84    83    2
     7    97    98    1
     8    83    82    1
     9    82    85    1
    10    98    99    1
    11    85    86    1
    12    99   101   am
    13    99   100    2
    14   123   121    1
    15    76    75    2
    16    75    74    1
    17    86    88   ar
    18    86    87   ar
    19    80    79    1
    20    77    74    1
    21    77    78    1
    22    88    90   ar
    23   116   114    1
    24    87    89   ar
    25   121   122    1
    26   121   118    1
    27    74    73    1
    28    39    38   ar
    29    39    41   ar
    30   114   111    1
    31   114   115    1
    32    37    34    1
    33    37    38    1
    34    33    34    1
    35    78    79    1
    36   122   124    1
    37   117   118    1
    38   117   112   am
    39    34    35    1
    40    38    40   ar
    41   105   104    2
    42    90    91   ar
    43   111   112    1
    44   111   110    1
    45   118   119    1
    46    89    91   ar
    47    41    42   ar
    48    28    30   ar
    49    28    26   ar
    50    30    31   ar
    51   119   120    2
    52   112   113    2
    53    91    92    1
    54    35    36    2
    55   104   110   am
    56   104   103    1
    57    23    24    2
    58    23    22    1
    59    40    42   ar
    60    40    43   ar
    61    25    26    1
    62    25    22    1
    63    42    44   ar
    64    26    27   ar
    65    31    32    1
    66    31    29   ar
    67    22    21    1
    68   102   103    1
    69   103   106    1
    70    43    45   ar
    71    44    46   ar
    72    27    29   ar
    73    64    63    2
    74   106   107    1
    75    63    62    1
    76    45    46   ar
    77   109   107   ar
    78   107   108   ar
    79   128   127    2
    80    69    67   ar
    81    69    71   ar
    82    72    71    1
    83    62    61    1
    84    62    65    1
    85    59    60   ar
    86    59    57   ar
    87    67    66   ar
    88    71    70   ar
    89   125   126    1
    90    60    58   ar
    91    47    48    1
    92   127   126    1
    93    66    65    1
    94    66    68   ar
    95    57    54   ar
    96    70    68   ar
    97   126   129    1
    98    19    18   ar
    99   129   130    1
   100   133   134    1
   101    58    56   ar
   102   139   137    1
   103    14    15    1
   104    14    17    1
   105    14    13    1
   106    15    16    2
   107   137   134    1
   108   137   138    1
   109    18    20   ar
   110    18    17    1
   111    54    56   ar
   112    54    52   ar
   113    48    49    1
   114    48    51    1
   115   136   135    2
   116    56    55   ar
   117    13     3   am
   118   130   132   am
   119   130   131    2
   120   134   135    1
   121    49    50    2
   122    51    52    1
   123    52    53   ar
   124    55    53   ar
   125     3     2    1
   126     3     4    2
   127    12    11    1
   128     9    11   ar
   129     9     7   ar
   130    11    10   ar
   131     2     1    1
   132     2     5    1
   133   162   160   ar
   134   162   164   ar
   135     7     6   ar
   136   148   146   ar
   137    10     8   ar
   138   165   164    1
   139   160   159   ar
   140     6     8   ar
   141     6     5    1
   142   164   163   ar
   143   147   146   ar
   144   146   145    1
   145   144   145    1
   146   144   141    1
   147   140   141    1
   148   143   142    2
   149   153   150    1
   150   159   158    1
   151   159   161   ar
   152   163   161   ar
   153   152   151    2
   154   141   142    1
   155   158   155    1
   156   151   154   am
   157   151   150    1
   158   155   154    1
   159   155   156    1
   160   150   149    1
   161   156   157    2
