@<TRIPOS>MOLECULE
tmp/3vmrA00.pdb
 216 202 0 0 0
SMALL
GASTEIGER

@<TRIPOS>ATOM
      1  N         20.3050   12.1590   13.2530 N.3    60  GLU60      -0.1245
      2  CA        19.6450   11.0570   12.5660 C.3    60  GLU60       0.1567
      3  C         18.2130   10.8610   13.0410 C.2    60  GLU60       0.2260
      4  O         17.4210   10.2080   12.3700 O.2    60  GLU60      -0.2867
      5  CB        20.4460    9.7660   12.7240 C.3    60  GLU60       0.0388
      6  CG        21.7880    9.7950   12.0120 C.3    60  GLU60       0.1160
      7  CD        21.6580   10.1610   10.5420 C.2    60  GLU60       0.3649
      8  OE1       21.6030    9.2380    9.6980 O.co2  60  GLU60      -0.2457
      9  OE2       21.6060   11.3720   10.2340 O.co2  60  GLU60      -0.2457
     10  N         11.9660    9.4270    1.9760 N.3    79  LEU79      -0.1245
     11  CA        12.0140    8.8150    0.6590 C.3    79  LEU79       0.1561
     12  C         11.2970    9.6980   -0.3770 C.2    79  LEU79       0.2260
     13  O         11.4940    9.5400   -1.5830 O.2    79  LEU79      -0.2867
     14  CB        11.4330    7.3950    0.7120 C.3    79  LEU79       0.0270
     15  CG        12.2390    6.2910    1.4240 C.3    79  LEU79       0.0019
     16  CD1       13.5280    5.9890    0.6780 C.3    79  LEU79       0.0001
     17  CD2       12.5390    6.6110    2.8860 C.3    79  LEU79       0.0001
     18  N         14.2750   12.1200   -0.9760 N.3    82  THR82      -0.1218
     19  CA        15.4620   11.4880   -1.5350 C.3    82  THR82       0.1862
     20  C         15.4240   11.6620   -3.0370 C.2    82  THR82       0.2287
     21  O         16.3810   12.1190   -3.6530 O.2    82  THR82      -0.2866
     22  CB        15.4840    9.9930   -1.2740 C.3    82  THR82       0.1770
     23  OG1       14.2660    9.4080   -1.7530 O.3    82  THR82      -0.2211
     24  CG2       15.6350    9.7150    0.2140 C.3    82  THR82       0.0375
     25  N         17.8990   14.1890   -3.3040 N.3    86  ARG86      -0.1231
     26  CA        19.0580   13.3310   -3.4590 C.3    86  ARG86       0.1694
     27  C         19.9810   13.5850   -2.2720 C.2    86  ARG86       0.2592
     28  O         21.1980   13.4340   -2.3620 O.2    86  ARG86      -0.2718
     29  CB        19.7540   13.6180   -4.7840 C.3    86  ARG86       0.0321
     30  CG        18.8090   13.5570   -5.9720 C.3    86  ARG86       0.0489
     31  CD        18.7790   12.1660   -6.5550 C.3    86  ARG86       0.2205
     32  NE        17.4210   11.6900   -6.7830 N.pl3  86  ARG86      -0.0865
     33  CZ        16.7090   11.9520   -7.8740 C.cat  86  ARG86       0.5346
     34  NH1       17.2220   12.7000   -8.8430 N.pl3  86  ARG86       0.1354
     35  NH2       15.4800   11.4680   -7.9950 N.pl3  86  ARG86       0.1354
     36  N         19.3790   13.9680   -1.1500 N.am   87  ASP87      -0.1974
     37  CA        20.1270   14.2790    0.0630 C.3    87  ASP87       0.1709
     38  C         19.8920   13.2320    1.1470 C.2    87  ASP87       0.2293
     39  O         19.4180   13.5480    2.2390 O.2    87  ASP87      -0.2864
     40  CB        19.7470   15.6670    0.5830 C.3    87  ASP87       0.1436
     41  CG        20.2100   16.7780   -0.3350 C.2    87  ASP87       0.3671
     42  OD1       21.4160   16.8190   -0.6610 O.co2  87  ASP87      -0.2456
     43  OD2       19.3720   17.6170   -0.7250 O.co2  87  ASP87      -0.2456
     44  N         19.0200   10.7390    8.5290 N.3    88  GLY88      -0.1210
     45  CA        17.6220   10.5670    8.1790 C.3    88  GLY88       0.1956
     46  C         17.4670   10.1170    6.7420 C.2    88  GLY88       0.2612
     47  O         18.4460   10.0860    5.9920 O.2    88  GLY88      -0.2717
     48  N         16.2400    9.7740    6.3510 N.am   89  GLY89      -0.1942
     49  CA        15.0810    9.8730    7.2230 C.3    89  GLY89       0.2014
     50  C         14.7080    8.5920    7.9460 C.2    89  GLY89       0.2639
     51  O         13.7060    8.5390    8.6630 O.2    89  GLY89      -0.2714
     52  N         15.5000    7.5470    7.7410 N.am   90  SER90      -0.1949
     53  CA        15.4200    6.3730    8.5910 C.3    90  SER90       0.1924
     54  C         16.1360    6.7330    9.8960 C.2    90  SER90       0.2314
     55  O         17.2750    7.2140    9.8660 O.2    90  SER90      -0.2863
     56  CB        16.0790    5.1780    7.9040 C.3    90  SER90       0.2116
     57  OG        17.4330    5.4610    7.5920 O.3    90  SER90      -0.2180
     58  N         19.0110    1.7850   11.0490 N.3    95  GLN95      -0.1245
     59  CA        20.4240    1.9560   10.7250 C.3    95  GLN95       0.1566
     60  C         21.2210    0.7650   11.2390 C.2    95  GLN95       0.2260
     61  O         22.0040    0.1650   10.5020 O.2    95  GLN95      -0.2867
     62  CB        20.9700    3.2460   11.3350 C.3    95  GLN95       0.0367
     63  CG        20.2890    4.5110   10.8450 C.3    95  GLN95       0.0905
     64  CD        21.1400    5.3000    9.8650 C.2    95  GLN95       0.2608
     65  OE1       21.4920    4.8120    8.7900 O.2    95  GLN95      -0.2717
     66  NE2       21.4700    6.5320   10.2330 N.am   95  GLN95      -0.0878
     67  N         20.3140   -2.4480    9.4100 N.3    98  LYS98      -0.1231
     68  CA        21.0110   -2.4070    8.1300 C.3    98  LYS98       0.1693
     69  C         22.4400   -2.8760    8.3280 C.2    98  LYS98       0.2592
     70  O         22.8650   -3.8790    7.7500 O.2    98  LYS98      -0.2718
     71  CB        21.0100   -0.9810    7.5630 C.3    98  LYS98       0.0285
     72  CG        21.9350   -0.7430    6.3570 C.3    98  LYS98       0.0035
     73  CD        21.9290    0.7390    5.9530 C.3    98  LYS98       0.0206
     74  CE        22.8310    1.0450    4.7540 C.3    98  LYS98       0.1093
     75  NZ        22.7450    2.4850    4.3490 N.3    98  LYS98      -0.1314
     76  N         23.1750   -2.1430    9.1580 N.am   99  ASN99      -0.1974
     77  CA        24.5770   -2.4420    9.4010 C.3    99  ASN99       0.1688
     78  C         24.7670   -3.8200   10.0080 C.2    99  ASN99       0.2292
     79  O         25.8330   -4.4220    9.8850 O.2    99  ASN99      -0.2864
     80  CB        25.1990   -1.3740   10.2970 C.3    99  ASN99       0.1181
     81  CG        25.2220   -0.0050    9.6400 C.2    99  ASN99       0.2629
     82  OD1       24.4220    0.2850    8.7490 O.2    99  ASN99      -0.2716
     83  ND2       26.1400    0.8450   10.0830 N.am   99  ASN99      -0.0877
     84  N         25.0400   -5.4530    4.9290 N.3   103  ASP103     -0.1239
     85  CA        25.9530   -4.3450    4.6840 C.3   103  ASP103      0.1674
     86  C         26.3120   -4.2610    3.2060 C.2   103  ASP103      0.2266
     87  O         26.5150   -3.1740    2.6610 O.2   103  ASP103     -0.2867
     88  CB        27.2310   -4.5280    5.5050 C.3   103  ASP103      0.1410
     89  CG        26.9520   -4.8820    6.9530 C.2   103  ASP103      0.3668
     90  OD1       25.7650   -4.8930    7.3440 O.co2 103  ASP103     -0.2456
     91  OD2       27.9210   -5.1500    7.6970 O.co2 103  ASP103     -0.2456
     92  N         22.0430   -3.3840   -1.2680 N.3   106  ARG106     -0.1231
     93  CA        20.9980   -2.3840   -1.1150 C.3   106  ARG106      0.1694
     94  C         19.8140   -2.7480   -1.9980 C.2   106  ARG106      0.2592
     95  O         19.9940   -3.1760   -3.1390 O.2   106  ARG106     -0.2718
     96  CB        21.5180   -1.0030   -1.5080 C.3   106  ARG106      0.0321
     97  CG        21.8220   -0.0910   -0.3390 C.3   106  ARG106      0.0489
     98  CD        23.0980   -0.4830    0.3840 C.3   106  ARG106      0.2205
     99  NE        23.4420    0.4920    1.4170 N.pl3 106  ARG106     -0.0865
    100  CZ        24.1320    1.6060    1.1940 C.cat 106  ARG106      0.5346
    101  NH1       24.5610    1.8910   -0.0300 N.pl3 106  ARG106      0.1354
    102  NH2       24.3940    2.4370    2.1950 N.pl3 106  ARG106      0.1354
    103  N         18.6050   -2.5770   -1.4700 N.am  107  SER107     -0.1952
    104  CA        17.3930   -2.8620   -2.2340 C.3   107  SER107      0.1924
    105  C         16.1270   -2.4150   -1.5110 C.2   107  SER107      0.2314
    106  O         16.1450   -2.1260   -0.3140 O.2   107  SER107     -0.2863
    107  CB        17.3030   -4.3550   -2.5590 C.3   107  SER107      0.2116
    108  OG        16.0580   -4.6730   -3.1580 O.3   107  SER107     -0.2180
    109  N         15.0210   -5.3220    0.3720 N.3   110  ARG110     -0.1231
    110  CA        15.8170   -5.3270    1.5890 C.3   110  ARG110      0.1694
    111  C         15.2300   -4.3020    2.5400 C.2   110  ARG110      0.2591
    112  O         15.1120   -4.5390    3.7410 O.2   110  ARG110     -0.2718
    113  CB        17.2780   -4.9960    1.2840 C.3   110  ARG110      0.0321
    114  CG        17.9500   -5.9920    0.3460 C.3   110  ARG110      0.0489
    115  CD        17.8790   -7.4090    0.9010 C.3   110  ARG110      0.2205
    116  NE        18.2120   -8.4130   -0.1080 N.pl3 110  ARG110     -0.0865
    117  CZ        18.1890   -9.7260    0.1040 C.cat 110  ARG110      0.5346
    118  NH1       17.8510  -10.2040    1.2960 N.pl3 110  ARG110      0.1354
    119  NH2       18.5050  -10.5640   -0.8760 N.pl3 110  ARG110      0.1354
    120  N         14.8540   -3.1600    1.9790 N.am  111  LYS111     -0.1980
    121  CA        14.2430   -2.0950    2.7490 C.3   111  LYS111      0.1596
    122  C         13.0600   -2.6280    3.5420 C.2   111  LYS111      0.2287
    123  O         12.7510   -2.1300    4.6230 O.2   111  LYS111     -0.2864
    124  CB        13.7830   -0.9740    1.8190 C.3   111  LYS111      0.0298
    125  CG        13.4800    0.3340    2.5270 C.3   111  LYS111      0.0038
    126  CD        14.6890    0.8150    3.3200 C.3   111  LYS111      0.0206
    127  CE        14.6810    2.3320    3.5190 C.3   111  LYS111      0.1093
    128  NZ        13.7050    2.8250    4.5360 N.3   111  LYS111     -0.1314
    129  N         13.9100   -5.2780    6.4430 N.3   114  GLU114     -0.1245
    130  CA        14.5030   -4.3660    7.4030 C.3   114  GLU114      0.1567
    131  C         13.5380   -3.9600    8.5150 C.2   114  GLU114      0.2260
    132  O         13.8700   -4.0440    9.7000 O.2   114  GLU114     -0.2867
    133  CB        14.9820   -3.1350    6.6410 C.3   114  GLU114      0.0388
    134  CG        15.7110   -2.1010    7.4520 C.3   114  GLU114      0.1160
    135  CD        16.2310   -0.9820    6.5710 C.2   114  GLU114      0.3649
    136  OE1       16.6910    0.0440    7.1130 O.co2 114  GLU114     -0.2457
    137  OE2       16.1720   -1.1340    5.3300 O.co2 114  GLU114     -0.2457
    138  N         29.2370    0.9340   13.3360 N.3   138  ILE138     -0.1231
    139  CA        29.1320    1.8730   12.2210 C.3   138  ILE138      0.1692
    140  C         30.5380    2.1190   11.6680 C.2   138  ILE138      0.2592
    141  O         31.5140    1.7450   12.3050 O.2   138  ILE138     -0.2718
    142  CB        28.4920    3.2090   12.6530 C.3   138  ILE138      0.0266
    143  CG1       28.7660    3.4930   14.1340 C.3   138  ILE138      0.0019
    144  CG2       26.9890    3.2060   12.3940 C.3   138  ILE138      0.0020
    145  CD1       28.1890    4.8070   14.6300 C.3   138  ILE138      0.0001
    146  N         30.6530    2.7350   10.4920 N.am  139  TYR139     -0.1976
    147  CA        31.9790    2.9850    9.9040 C.3   139  TYR139      0.1639
    148  C         32.4970    4.4090   10.1100 C.2   139  TYR139      0.2290
    149  O         31.8840    5.3780    9.6600 O.2   139  TYR139     -0.2864
    150  CB        32.0120    2.6310    8.4130 C.3   139  TYR139      0.0560
    151  CG        33.3510    2.8730    7.7520 C.ar  139  TYR139     -0.0198
    152  CD1       34.4560    2.0880    8.0640 C.ar  139  TYR139     -0.0009
    153  CD2       33.5110    3.8840    6.8120 C.ar  139  TYR139     -0.0009
    154  CE1       35.6800    2.3050    7.4610 C.ar  139  TYR139      0.0417
    155  CE2       34.7350    4.1060    6.2040 C.ar  139  TYR139      0.0417
    156  CZ        35.8130    3.3140    6.5320 C.ar  139  TYR139      0.1957
    157  OH        37.0300    3.5340    5.9300 O.3   139  TYR139     -0.2866
    158  N         36.0230    7.2990   10.2810 N.3   141  GLY141     -0.1225
    159  CA        37.1030    7.7720    9.4190 C.3   141  GLY141      0.1811
    160  C         37.9970    6.6980    8.8230 C.2   141  GLY141      0.2280
    161  O         37.8880    6.3690    7.6370 O.2   141  GLY141     -0.2866
    162  N         39.6590    2.6130    9.7440 N.3   143  ASN143     -0.1240
    163  CA        38.9600    1.3570    9.9780 C.3   143  ASN143      0.1653
    164  C         38.4610    1.1760   11.4080 C.2   143  ASN143      0.2266
    165  O         38.9060    0.2770   12.1230 O.2   143  ASN143     -0.2867
    166  CB        39.8060    0.1670    9.5410 C.3   143  ASN143      0.1155
    167  CG        39.0330   -0.7860    8.6650 C.2   143  ASN143      0.2627
    168  OD1       38.8640   -1.9580    8.9990 O.2   143  ASN143     -0.2716
    169  ND2       38.5270   -0.2780    7.5470 N.am  143  ASN143     -0.0877
    170  N         34.8030    1.1980   13.9970 N.3   145  TYR145     -0.1241
    171  CA        33.3850    0.8900   13.8800 C.3   145  TYR145      0.1605
    172  C         32.5790    1.1420   15.1450 C.2   145  TYR145      0.2264
    173  O         31.3540    1.2420   15.1010 O.2   145  TYR145     -0.2867
    174  CB        33.2000   -0.5310   13.3490 C.3   145  TYR145      0.0534
    175  CG        33.8630   -0.6950   12.0030 C.ar  145  TYR145     -0.0201
    176  CD1       33.1590   -0.4730   10.8300 C.ar  145  TYR145     -0.0009
    177  CD2       35.2080   -1.0230   11.9070 C.ar  145  TYR145     -0.0009
    178  CE1       33.7670   -0.6030    9.5960 C.ar  145  TYR145      0.0417
    179  CE2       35.8270   -1.1530   10.6770 C.ar  145  TYR145      0.0417
    180  CZ        35.1010   -0.9420    9.5240 C.ar  145  TYR145      0.1957
    181  OH        35.7070   -1.0690    8.2940 O.3   145  TYR145     -0.2866
    182  N         28.9710    9.2630   10.3540 N.3   181  VAL181     -0.1231
    183  CA        28.0640    8.1330   10.1740 C.3   181  VAL181      0.1692
    184  C         27.8550    7.7950    8.6980 C.2   181  VAL181      0.2592
    185  O         27.6460    6.6360    8.3330 O.2   181  VAL181     -0.2718
    186  CB        26.7180    8.3740   10.8820 C.3   181  VAL181      0.0266
    187  CG1       25.7080    7.3140   10.4810 C.3   181  VAL181      0.0020
    188  CG2       26.9220    8.3870   12.3970 C.3   181  VAL181      0.0020
    189  N         27.9240    8.8140    7.8520 N.am  182  ASN182     -0.1974
    190  CA        27.8790    8.5960    6.4190 C.3   182  ASN182      0.1688
    191  C         29.0270    9.3120    5.7210 C.2   182  ASN182      0.2292
    192  O         29.2520    9.1240    4.5260 O.2   182  ASN182     -0.2864
    193  CB        26.5400    9.0620    5.8550 C.3   182  ASN182      0.1181
    194  CG        26.2380    8.4550    4.5060 C.2   182  ASN182      0.2629
    195  OD1       27.0510    8.5070    3.5870 O.2   182  ASN182     -0.2716
    196  ND2       25.0580    7.8770    4.3790 N.am  182  ASN182     -0.0877
    197  N         32.2850    9.0750    5.2820 N.3   184  PRO184     -0.2102
    198  CA        33.2350    8.4310    4.3670 C.3   184  PRO184      0.1504
    199  C         32.6240    8.2180    2.9860 C.2   184  PRO184      0.2576
    200  O         31.4130    8.0240    2.8730 O.2   184  PRO184     -0.2718
    201  CB        33.5040    7.0790    5.0390 C.3   184  PRO184      0.0282
    202  CG        32.3220    6.8560    5.9270 C.3   184  PRO184      0.0208
    203  CD        31.9760    8.2150    6.4350 C.3   184  PRO184      0.0893
    204  N         33.4560    8.2560    1.9500 N.am  185  SER185     -0.1938
    205  CA        34.8810    8.5060    2.1170 C.3   185  SER185      0.2055
    206  C         35.3210    9.7070    1.2850 C.2   185  SER185      0.2642
    207  O         36.4640   10.1540    1.3820 O.2   185  SER185     -0.2714
    208  CB        35.6940    7.2580    1.7630 C.3   185  SER185      0.2130
    209  OG        35.2870    6.7230    0.5150 O.3   185  SER185     -0.2179
    210  N         34.4060   10.2190    0.4650 N.am  186  VAL186     -0.1977
    211  CA        34.6300   11.4660   -0.2560 C.3   186  VAL186      0.1596
    212  C         35.0210   12.5450    0.7420 C.2   186  VAL186      0.2287
    213  O         35.9170   13.3550    0.4920 O.2   186  VAL186     -0.2864
    214  CB        33.3570   11.9280   -0.9870 C.3   186  VAL186      0.0276
    215  CG1       33.6090   13.2420   -1.7130 C.3   186  VAL186      0.0022
    216  CG2       32.8750   10.8550   -1.9540 C.3   186  VAL186      0.0022
@<TRIPOS>BOND
     1    34    33    1
     2    35    33    1
     3    33    32    2
     4    32    31    1
     5    31    30    1
     6    30    29    1
     7    29    26    1
     8    21    20    2
     9    26    25    1
    10    26    27    1
    11   108   107    1
    12    95    94    2
    13    20    19    1
    14   107   104    1
    15    28    27    2
    16    27    36   am
    17   104   105    1
    18   104   103    1
    19    94   103   am
    20    94    93    1
    21   216   214    1
    22    23    22    1
    23   215   214    1
    24    13    12    2
    25    19    22    1
    26    19    18    1
    27   105   106    2
    28    96    93    1
    29    96    97    1
    30    22    24    1
    31    92    93    1
    32    36    37    1
    33   214   211    1
    34   119   117    1
    35    43    41   ar
    36    42    41   ar
    37    12    11    1
    38    97    98    1
    39    41    40    1
    40   211   210    1
    41   211   212    1
    42   116   117    2
    43   116   115    1
    44   101   100    1
    45    37    40    1
    46    37    38    1
    47   117   118    1
    48   114   115    1
    49   114   113    1
    50   109   110    1
    51    98    99    1
    52   210   206   am
    53   213   212    2
    54   209   208    1
    55    11    14    1
    56    11    10    1
    57    16    15    1
    58    14    15    1
    59    38    39    2
    60   100    99    2
    61   100   102    1
    62   113   110    1
    63   206   207    2
    64   206   205    1
    65    15    17    1
    66   110   111    1
    67   208   205    1
    68   124   125    1
    69   124   121    1
    70   204   205    1
    71   204   199   am
    72   120   111   am
    73   120   121    1
    74   125   126    1
    75   111   112    2
    76    87    86    2
    77   121   122    1
    78   200   199    2
    79   199   198    1
    80    86    85    1
    81   126   127    1
    82   127   128    1
    83   122   123    2
    84   195   194    2
    85    75    74    1
    86   198   201    1
    87   198   197    1
    88   196   194   am
    89   194   193    1
    90   192   191    2
    91    85    84    1
    92    85    88    1
    93    74    73    1
    94   201   202    1
    95   197   203    1
    96   137   135   ar
    97    88    89    1
    98   191   190    1
    99   193   190    1
   100   202   203    1
   101   157   156    1
   102    73    72    1
   103    47    46    2
   104   155   156   ar
   105   155   153   ar
   106    48    46   am
   107    48    49    1
   108    72    71    1
   109   190   189    1
   110   129   130    1
   111   156   154   ar
   112   135   136   ar
   113   135   134    1
   114   133   130    1
   115   133   134    1
   116    46    45    1
   117   153   151   ar
   118    89    90   ar
   119    89    91   ar
   120    49    50    1
   121   130   131    1
   122   154   152   ar
   123   169   167   am
   124    71    68    1
   125    57    56    1
   126   161   160    2
   127    52    50   am
   128    52    53    1
   129    70    69    2
   130   151   152   ar
   131   151   150    1
   132   189   184   am
   133    56    53    1
   134    50    51    2
   135    68    69    1
   136    68    67    1
   137    45    44    1
   138   181   180    1
   139    69    76   am
   140   185   184    2
   141   150   147    1
   142   131   132    2
   143    53    54    1
   144   167   168    2
   145   167   166    1
   146   184   183    1
   147    82    81    2
   148    65    64    2
   149   160   159    1
   150    76    77    1
   151    77    78    1
   152    77    80    1
   153   159   158    1
   154   180   178   ar
   155   180   179   ar
   156   166   163    1
   157   178   176   ar
   158    81    83   am
   159    81    80    1
   160   149   148    2
   161     8     7   ar
   162   162   163    1
   163    64    66   am
   164    64    63    1
   165    55    54    2
   166    79    78    2
   167   147   148    1
   168   147   146    1
   169   163   164    1
   170   183   182    1
   171   183   186    1
   172     9     7   ar
   173   187   186    1
   174   146   140   am
   175    61    60    2
   176     7     6    1
   177   179   177   ar
   178    59    58    1
   179    59    60    1
   180    59    62    1
   181   176   175   ar
   182    63    62    1
   183   186   188    1
   184   164   165    2
   185   140   139    1
   186   140   141    2
   187   177   175   ar
   188   175   174    1
   189     6     5    1
   190   139   142    1
   191   139   138    1
   192     4     3    2
   193   144   142    1
   194     2     5    1
   195     2     3    1
   196     2     1    1
   197   142   143    1
   198   174   171    1
   199   171   170    1
   200   171   172    1
   201   143   145    1
   202   173   172    2
