@<TRIPOS>MOLECULE
tmp/3vmtA00.pdb
 155 144 0 0 0
SMALL
GASTEIGER

@<TRIPOS>ATOM
      1  N        -18.2560    5.1010   -7.3550 N.3    58  SER58      -0.1202
      2  CA       -19.0010    3.9570   -7.8600 C.3    58  SER58       0.2020
      3  C        -20.4890    4.2940   -8.0070 C.2    58  SER58       0.2619
      4  O        -21.1670    3.8270   -8.9310 O.2    58  SER58      -0.2717
      5  CB       -18.8250    2.7630   -6.9220 C.3    58  SER58       0.2103
      6  OG       -19.3890    3.0280   -5.6520 O.3    58  SER58      -0.2182
      7  N        -20.9830    5.1180   -7.0910 N.am   59  MET59      -0.1965
      8  CA       -22.3780    5.5330   -7.0960 C.3    59  MET59       0.1736
      9  C        -22.6550    6.6600   -8.0840 C.2    59  MET59       0.2616
     10  O        -23.7110    6.6840   -8.7170 O.2    59  MET59      -0.2715
     11  CB       -22.8030    5.9650   -5.6900 C.3    59  MET59       0.0427
     12  CG       -24.3170    6.1120   -5.4980 C.3    59  MET59       0.0599
     13  SD       -25.2310    4.6020   -5.9250 S.3    59  MET59      -0.1393
     14  CE       -26.7040    4.7920   -4.9260 C.3    59  MET59       0.0692
     15  N        -21.7120    7.5920   -8.2170 N.am   60  GLU60      -0.1963
     16  CA       -21.9690    8.8280   -8.9660 C.3    60  GLU60       0.1733
     17  C        -21.2500    8.9500  -10.3090 C.2    60  GLU60       0.2616
     18  O        -21.7490    9.6200  -11.2090 O.2    60  GLU60      -0.2715
     19  CB       -21.6460   10.0590   -8.1060 C.3    60  GLU60       0.0429
     20  CG       -22.5590   10.2290   -6.9060 C.3    60  GLU60       0.1163
     21  CD       -23.9790   10.5920   -7.3140 C.2    60  GLU60       0.3649
     22  OE1      -24.1320   11.3180   -8.3220 O.co2  60  GLU60      -0.2457
     23  OE2      -24.9360   10.1590   -6.6290 O.co2  60  GLU60      -0.2457
     24  N        -20.0780    8.3330  -10.4460 N.am   61  ASP61      -0.1957
     25  CA       -19.2920    8.5200  -11.6550 C.3    61  ASP61       0.1840
     26  C        -18.1950    7.4610  -11.7210 C.2    61  ASP61       0.2622
     27  O        -17.0100    7.7560  -11.4990 O.2    61  ASP61      -0.2715
     28  CB       -18.6920    9.9370  -11.6510 C.3    61  ASP61       0.1450
     29  CG       -18.1020   10.3490  -12.9930 C.2    61  ASP61       0.3671
     30  OD1      -18.2300    9.6100  -13.9910 O.co2  61  ASP61      -0.2456
     31  OD2      -17.5040   11.4380  -13.0450 O.co2  61  ASP61      -0.2456
     32  N        -18.5930    6.2290  -12.0280 N.am   62  GLU62      -0.1963
     33  CA       -17.6750    5.0900  -11.9600 C.3    62  GLU62       0.1733
     34  C        -16.5170    5.1180  -12.9690 C.2    62  GLU62       0.2616
     35  O        -15.5800    4.3180  -12.8720 O.2    62  GLU62      -0.2715
     36  CB       -18.4420    3.7650  -12.0500 C.3    62  GLU62       0.0429
     37  CG       -19.4060    3.6660  -13.2100 C.3    62  GLU62       0.1163
     38  CD       -20.1740    2.3470  -13.2040 C.2    62  GLU62       0.3649
     39  OE1      -21.1990    2.2400  -12.4890 O.co2  62  GLU62      -0.2457
     40  OE2      -19.7370    1.4140  -13.9060 O.co2  62  GLU62      -0.2457
     41  N        -16.5790    6.0350  -13.9290 N.am   63  ARG63      -0.1977
     42  CA       -15.4810    6.2330  -14.8700 C.3    63  ARG63       0.1597
     43  C        -14.8150    7.5960  -14.6610 C.2    63  ARG63       0.2287
     44  O        -14.1810    8.1360  -15.5710 O.2    63  ARG63      -0.2864
     45  CB       -15.9840    6.0870  -16.3060 C.3    63  ARG63       0.0334
     46  CG       -16.5610    4.7030  -16.6050 C.3    63  ARG63       0.0492
     47  CD       -17.2190    4.6220  -17.9820 C.3    63  ARG63       0.2205
     48  NE       -18.5470    5.2220  -17.9930 N.pl3  63  ARG63      -0.0865
     49  CZ       -19.6060    4.6840  -17.3970 C.cat  63  ARG63       0.5346
     50  NH1      -19.4860    3.5360  -16.7410 N.pl3  63  ARG63       0.1354
     51  NH2      -20.7820    5.2920  -17.4530 N.pl3  63  ARG63       0.1354
     52  N        -19.0890   12.3520  -19.6650 N.3    71  ASP71      -0.1239
     53  CA       -19.1840   10.9050  -19.8480 C.3    71  ASP71       0.1674
     54  C        -20.2670   10.5900  -20.8730 C.2    71  ASP71       0.2266
     55  O        -21.4580   10.7580  -20.6080 O.2    71  ASP71      -0.2867
     56  CB       -19.4660   10.1910  -18.5260 C.3    71  ASP71       0.1410
     57  CG       -19.3830    8.6730  -18.6530 C.2    71  ASP71       0.3668
     58  OD1      -20.1030    8.1070  -19.5030 O.co2  71  ASP71      -0.2456
     59  OD2      -18.5990    8.0460  -17.9020 O.co2  71  ASP71      -0.2456
     60  N        -21.3810    7.7240  -22.3450 N.3    73  LYS73      -0.1231
     61  CA       -22.2950    6.6360  -22.0090 C.3    73  LYS73       0.1693
     62  C        -23.3760    7.1040  -21.0430 C.2    73  LYS73       0.2592
     63  O        -24.5640    6.8700  -21.2560 O.2    73  LYS73      -0.2718
     64  CB       -21.5300    5.4600  -21.4050 C.3    73  LYS73       0.0285
     65  CG       -22.3200    4.1610  -21.3540 C.3    73  LYS73       0.0035
     66  CD       -21.4040    2.9900  -21.0150 C.3    73  LYS73       0.0206
     67  CE       -22.0210    1.6410  -21.3830 C.3    73  LYS73       0.1093
     68  NZ       -23.0210    1.1500  -20.3890 N.3    73  LYS73      -0.1314
     69  N        -22.9550    7.7750  -19.9790 N.am   74  GLY74      -0.1957
     70  CA       -23.8750    8.2480  -18.9660 C.3    74  GLY74       0.1869
     71  C        -24.6790    9.4550  -19.3950 C.2    74  GLY74       0.2309
     72  O        -25.6180    9.8460  -18.7100 O.2    74  GLY74      -0.2863
     73  N        -27.3700    7.6580  -22.1040 N.3    77  ARG77      -0.1245
     74  CA       -28.2720    6.9930  -21.1770 C.3    77  ARG77       0.1563
     75  C        -29.1010    8.0610  -20.4780 C.2    77  ARG77       0.2260
     76  O        -30.2640    7.8450  -20.1390 O.2    77  ARG77      -0.2867
     77  CB       -27.4770    6.1970  -20.1420 C.3    77  ARG77       0.0307
     78  CG       -28.3300    5.3220  -19.2370 C.3    77  ARG77       0.0489
     79  CD       -27.6680    5.0720  -17.8860 C.3    77  ARG77       0.2205
     80  NE       -27.6930    6.2600  -17.0350 N.pl3  77  ARG77      -0.0865
     81  CZ       -26.6210    6.9800  -16.7150 C.cat  77  ARG77       0.5346
     82  NH1      -26.7420    8.0470  -15.9380 N.pl3  77  ARG77       0.1354
     83  NH2      -25.4260    6.6290  -17.1650 N.pl3  77  ARG77       0.1354
     84  N        -34.0480    5.0080  -19.9530 N.3    82  THR82      -0.1218
     85  CA       -34.3870    3.9790  -18.9640 C.3    82  THR82       0.1862
     86  C        -33.5010    2.7380  -19.0510 C.2    82  THR82       0.2287
     87  O        -32.3850    2.7210  -18.5320 O.2    82  THR82      -0.2866
     88  CB       -35.8730    3.5550  -19.0560 C.3    82  THR82       0.1770
     89  OG1      -36.2090    2.7330  -17.9320 O.3    82  THR82      -0.2211
     90  CG2      -36.1430    2.7860  -20.3440 C.3    82  THR82       0.0375
     91  N        -27.9800   10.1440  -12.9730 N.3    83  GLY83      -0.1210
     92  CA       -27.8410   10.4680  -14.3800 C.3    83  GLY83       0.1956
     93  C        -28.1210   11.9280  -14.6810 C.2    83  GLY83       0.2612
     94  O        -28.9780   12.5540  -14.0540 O.2    83  GLY83      -0.2717
     95  N        -27.3760   12.4790  -15.6330 N.am   84  GLY84      -0.1942
     96  CA       -26.2840   11.7600  -16.2570 C.3    84  GLY84       0.2014
     97  C        -25.0260   12.5850  -16.1010 C.2    84  GLY84       0.2640
     98  O        -24.1100   12.5190  -16.9250 O.2    84  GLY84      -0.2714
     99  N        -24.9830   13.3710  -15.0300 N.am   85  SER85      -0.1935
    100  CA       -23.8840   14.3040  -14.8410 C.3    85  SER85       0.2055
    101  C        -22.6770   13.6900  -14.1270 C.2    85  SER85       0.2643
    102  O        -22.7730   13.1090  -13.0390 O.2    85  SER85      -0.2714
    103  CB       -24.3450   15.6110  -14.1810 C.3    85  SER85       0.2130
    104  OG       -25.0570   15.3770  -12.9830 O.3    85  SER85      -0.2179
    105  N        -21.5410   13.8140  -14.7960 N.am   86  THR86      -0.1950
    106  CA       -20.2570   13.4150  -14.2730 C.3    86  THR86       0.1897
    107  C        -19.9440   14.2270  -13.0140 C.2    86  THR86       0.2313
    108  O        -20.4920   15.3070  -12.8220 O.2    86  THR86      -0.2863
    109  CB       -19.2040   13.7130  -15.3240 C.3    86  THR86       0.1794
    110  OG1      -18.0430   12.9250  -15.0750 O.3    86  THR86      -0.2208
    111  CG2      -18.8510   15.1790  -15.2860 C.3    86  THR86       0.0378
    112  N        -21.1330   18.0580  -11.8090 N.3    90  GLN90      -0.1245
    113  CA       -21.7990   18.3150  -10.5340 C.3    90  GLN90       0.1566
    114  C        -21.0640   19.3740   -9.7210 C.2    90  GLN90       0.2260
    115  O        -21.6810   20.1230   -8.9640 O.2    90  GLN90      -0.2867
    116  CB       -21.9450   17.0340   -9.7110 C.3    90  GLN90       0.0367
    117  CG       -23.0230   16.0830  -10.2090 C.3    90  GLN90       0.0905
    118  CD       -23.1080   14.8070   -9.3740 C.2    90  GLN90       0.2608
    119  OE1      -23.4720   14.8410   -8.1970 O.2    90  GLN90      -0.2717
    120  NE2      -22.7730   13.6780   -9.9860 N.am   90  GLN90      -0.0878
    121  N        -27.3140   12.4810   -4.0950 N.3   177  ASN177     -0.1240
    122  CA       -28.3250   12.6510   -5.1430 C.3   177  ASN177      0.1653
    123  C        -29.6810   12.0030   -4.8510 C.2   177  ASN177      0.2266
    124  O        -30.5280   11.8990   -5.7340 O.2   177  ASN177     -0.2867
    125  CB       -27.7850   12.2370   -6.5130 C.3   177  ASN177      0.1155
    126  CG       -27.1500   13.4050   -7.2590 C.2   177  ASN177      0.2627
    127  OD1      -27.6620   14.5210   -7.2170 O.2   177  ASN177     -0.2716
    128  ND2      -26.0370   13.1540   -7.9440 N.am  177  ASN177     -0.0877
    129  N        -31.3980    2.1730   -1.3940 N.3   194  ARG194     -0.1245
    130  CA       -30.4580    2.9680   -2.1630 C.3   194  ARG194      0.1563
    131  C        -29.0150    2.7060   -1.7020 C.2   194  ARG194      0.2260
    132  O        -28.1230    2.4980   -2.5260 O.2   194  ARG194     -0.2867
    133  CB       -30.7980    4.4660   -2.0780 C.3   194  ARG194      0.0307
    134  CG       -29.7880    5.3570   -2.8080 C.3   194  ARG194      0.0489
    135  CD       -30.3060    6.7920   -3.0540 C.3   194  ARG194      0.2205
    136  NE       -29.2950    7.6110   -3.7270 N.pl3 194  ARG194     -0.0865
    137  CZ       -29.2180    7.7810   -5.0500 C.cat 194  ARG194      0.5346
    138  NH1      -30.0990    7.2050   -5.8610 N.pl3 194  ARG194      0.1354
    139  NH2      -28.2590    8.5340   -5.5730 N.pl3 194  ARG194      0.1354
    140  N        -27.6400   -0.6010   -2.7380 N.3   197  THR197     -0.1218
    141  CA       -27.2310   -0.5500   -4.1340 C.3   197  THR197      0.1862
    142  C        -25.8310    0.0790   -4.2010 C.2   197  THR197      0.2287
    143  O        -24.9630   -0.3670   -4.9580 O.2   197  THR197     -0.2866
    144  CB       -28.2760    0.2410   -4.9700 C.3   197  THR197      0.1770
    145  OG1      -29.5310   -0.4460   -4.9170 O.3   197  THR197     -0.2211
    146  CG2      -27.8600    0.3820   -6.4250 C.3   197  THR197      0.0375
    147  N        -22.3010   -1.6330   -5.5050 N.3   201  LYS201     -0.1245
    148  CA       -21.4300   -1.1020   -6.5500 C.3   201  LYS201      0.1561
    149  C        -19.9800   -0.9920   -6.0770 C.2   201  LYS201      0.2260
    150  O        -19.0450   -1.1380   -6.8670 O.2   201  LYS201     -0.2867
    151  CB       -21.9480    0.2460   -7.0500 C.3   201  LYS201      0.0271
    152  CG       -23.3440    0.1750   -7.6320 C.3   201  LYS201      0.0035
    153  CD       -23.7020    1.4410   -8.4020 C.3   201  LYS201      0.0206
    154  CE       -25.1230    1.3550   -8.9540 C.3   201  LYS201      0.1093
    155  NZ       -25.4160    2.4110   -9.9550 N.3   201  LYS201     -0.1314
@<TRIPOS>BOND
     1    60    61    1
     2    73    74    1
     3    61    64    1
     4    61    62    1
     5    64    65    1
     6    67    66    1
     7    67    68    1
     8    65    66    1
     9    63    62    2
    10    74    75    1
    11    74    77    1
    12    62    69   am
    13    54    55    2
    14    54    53    1
    15    75    76    2
    16    90    88    1
    17    77    78    1
    18    69    70    1
    19    84    85    1
    20    53    52    1
    21    53    56    1
    22    58    57   ar
    23    71    70    1
    24    71    72    2
    25    78    79    1
    26    88    85    1
    27    88    89    1
    28    86    85    1
    29    86    87    2
    30    57    56    1
    31    57    59   ar
    32    48    47    1
    33    48    49    2
    34    47    46    1
    35    79    80    1
    36    51    49    1
    37    49    50    1
    38    83    81    1
    39    80    81    2
    40    98    97    2
    41    81    82    1
    42    46    45    1
    43    45    42    1
    44    96    97    1
    45    96    95    1
    46    97    99   am
    47    95    93   am
    48    44    43    2
    49   109   111    1
    50   109   110    1
    51   109   106    1
    52    99   100    1
    53    42    43    1
    54    42    41    1
    55   100   103    1
    56   100   101    1
    57   105   106    1
    58   105   101   am
    59    93    92    1
    60    93    94    2
    61    92    91    1
    62   106   107    1
    63   103   104    1
    64   101   102    2
    65    30    29   ar
    66    41    34   am
    67    40    38   ar
    68    37    38    1
    69    37    36    1
    70    38    39   ar
    71    31    29   ar
    72   107   108    2
    73    29    28    1
    74    34    35    2
    75    34    33    1
    76    36    33    1
    77    32    33    1
    78    32    26   am
    79   112   113    1
    80    26    25    1
    81    26    27    2
    82    25    28    1
    83    25    24    1
    84    18    17    2
    85   113   114    1
    86   113   116    1
    87    24    17   am
    88    17    16    1
    89   117   116    1
    90   117   118    1
    91   120   118   am
    92   155   154    1
    93   114   115    2
    94   118   119    2
    95    16    15    1
    96    16    19    1
    97   154   153    1
    98     4     3    2
    99    10     9    2
   100   153   152    1
   101    22    21   ar
   102    15     9   am
   103    19    20    1
   104     9     8    1
   105     3     2    1
   106     3     7   am
   107   128   126   am
   108     2     1    1
   109     2     5    1
   110   152   151    1
   111    21    20    1
   112    21    23   ar
   113   126   127    2
   114   126   125    1
   115     8     7    1
   116     8    11    1
   117   151   148    1
   118     5     6    1
   119   150   149    2
   120   148   149    1
   121   148   147    1
   122   125   122    1
   123   146   144    1
   124    13    12    1
   125    13    14    1
   126   138   137    1
   127   124   123    2
   128    11    12    1
   129   139   137    1
   130   122   123    1
   131   122   121    1
   132   137   136    2
   133   144   145    1
   134   144   141    1
   135   143   142    2
   136   142   141    1
   137   141   140    1
   138   136   135    1
   139   135   134    1
   140   134   133    1
   141   132   131    2
   142   130   133    1
   143   130   131    1
   144   130   129    1
