@<TRIPOS>MOLECULE
tmp/3vmwA00.pdb
 155 149 0 0 0
SMALL
GASTEIGER

@<TRIPOS>ATOM
      1  N         -5.8620   21.2610  -20.3200 N.3   147  SER147     -0.1202
      2  CA        -6.7940   20.1300  -20.3350 C.3   147  SER147      0.2020
      3  C         -6.2960   18.9550  -19.4900 C.2   147  SER147      0.2618
      4  O         -7.0830   18.0950  -19.0710 O.2   147  SER147     -0.2717
      5  CB        -7.0260   19.6720  -21.7780 C.3   147  SER147      0.2103
      6  OG        -5.8430   19.1230  -22.3640 O.3   147  SER147     -0.2182
      7  N         -4.9910   18.9420  -19.2220 N.am  148  ASP148     -0.1973
      8  CA        -4.3590   17.8320  -18.4900 C.3   148  ASP148      0.1709
      9  C         -4.0760   18.1400  -17.0260 C.2   148  ASP148      0.2293
     10  O         -3.5610   17.2810  -16.3050 O.2   148  ASP148     -0.2864
     11  CB        -3.0310   17.4430  -19.1560 C.3   148  ASP148      0.1436
     12  CG        -3.2070   16.9910  -20.5910 C.2   148  ASP148      0.3671
     13  OD1       -4.2190   16.2990  -20.9130 O.co2 148  ASP148     -0.2456
     14  OD2       -2.3210   17.3400  -21.4040 O.co2 148  ASP148     -0.2456
     15  N        -12.5090   19.2670  -18.4840 N.3   174  TRP174     -0.1227
     16  CA       -12.0130   18.9820  -19.8320 C.3   174  TRP174      0.1737
     17  C        -12.2390   17.5310  -20.3010 C.2   174  TRP174      0.2595
     18  O        -13.1090   17.2850  -21.1200 O.2   174  TRP174     -0.2718
     19  CB       -10.5130   19.3170  -19.9410 C.3   174  TRP174      0.0564
     20  CG       -10.2330   20.7830  -19.8940 C.ar  174  TRP174      0.0003
     21  CD1      -10.1420   21.5710  -18.7710 C.ar  174  TRP174      0.0946
     22  CD2       -9.9780   21.6540  -21.0200 C.ar  174  TRP174      0.0152
     23  NE1       -9.8580   22.8760  -19.1350 N.ar  174  TRP174     -0.2442
     24  CE2       -9.7560   22.9520  -20.5030 C.ar  174  TRP174      0.0810
     25  CE3       -9.9150   21.4580  -22.4060 C.ar  174  TRP174      0.0012
     26  CZ2       -9.4650   24.0550  -21.3310 C.ar  174  TRP174      0.0191
     27  CZ3       -9.6410   22.5520  -23.2270 C.ar  174  TRP174      0.0001
     28  CH2       -9.4270   23.8320  -22.6850 C.ar  174  TRP174      0.0015
     29  N        -11.4290   16.5920  -19.8010 N.am  175  LYS175     -0.1980
     30  CA       -11.4090   15.2160  -20.2940 C.3   175  LYS175      0.1596
     31  C        -12.3190   14.3450  -19.4380 C.2   175  LYS175      0.2287
     32  O        -11.8750   13.7600  -18.4580 O.2   175  LYS175     -0.2864
     33  CB        -9.9830   14.6540  -20.2350 C.3   175  LYS175      0.0298
     34  CG        -9.0120   15.4840  -21.0930 C.3   175  LYS175      0.0038
     35  CD        -7.6270   14.8350  -21.1330 C.3   175  LYS175      0.0206
     36  CE        -7.0200   14.6960  -19.7260 C.3   175  LYS175      0.1093
     37  NZ        -5.6460   14.1040  -19.8410 N.3   175  LYS175     -0.1314
     38  N        -15.4800   19.7070  -22.0490 N.3   203  ASN203     -0.1225
     39  CA       -14.8260   19.8500  -23.3500 C.3   203  ASN203      0.1785
     40  C        -14.9970   18.6290  -24.2370 C.2   203  ASN203      0.2598
     41  O        -15.4070   18.7590  -25.4050 O.2   203  ASN203     -0.2718
     42  CB       -13.3440   20.1740  -23.2070 C.3   203  ASN203      0.1169
     43  CG       -12.7050   20.5420  -24.5300 C.2   203  ASN203      0.2627
     44  OD1      -11.7110   19.9260  -24.9530 O.2   203  ASN203     -0.2716
     45  ND2      -13.2510   21.5420  -25.1830 N.am  203  ASN203     -0.0877
     46  N        -14.6500   17.4550  -23.7130 N.am  204  SER204     -0.1938
     47  CA       -14.6480   16.2600  -24.5300 C.3   204  SER204      0.2055
     48  C        -14.7760   14.9920  -23.6820 C.2   204  SER204      0.2642
     49  O        -14.8620   15.0310  -22.4510 O.2   204  SER204     -0.2714
     50  CB       -13.3420   16.1970  -25.3730 C.3   204  SER204      0.2130
     51  OG       -12.2280   15.9260  -24.5040 O.3   204  SER204     -0.2179
     52  N        -14.8010   13.8690  -24.3790 N.am  205  ARG205     -0.1977
     53  CA       -14.8430   12.5400  -23.7920 C.3   205  ARG205      0.1597
     54  C        -16.1170   12.2600  -23.0300 C.2   205  ARG205      0.2287
     55  O        -16.0820   12.0780  -21.8030 O.2   205  ARG205     -0.2864
     56  CB       -13.6210   12.2970  -22.8740 C.3   205  ARG205      0.0334
     57  CG       -12.3030   12.4190  -23.6210 C.3   205  ARG205      0.0492
     58  CD       -11.1430   11.9320  -22.6980 C.3   205  ARG205      0.2205
     59  NE        -9.8610   11.9960  -23.3830 N.pl3 205  ARG205     -0.0865
     60  CZ        -8.7260   11.5640  -22.8390 C.cat 205  ARG205      0.5346
     61  NH1       -8.7470   11.0840  -21.6020 N.pl3 205  ARG205      0.1354
     62  NH2       -7.5900   11.6140  -23.5220 N.pl3 205  ARG205      0.1354
     63  N        -15.1710    8.9690  -24.1220 N.3   208  LEU208     -0.1245
     64  CA       -14.2740    8.4250  -25.1380 C.3   208  LEU208      0.1561
     65  C        -14.3490    6.8980  -25.0170 C.2   208  LEU208      0.2260
     66  O        -13.9400    6.3340  -23.9890 O.2   208  LEU208     -0.2867
     67  CB       -12.8610    8.8870  -24.8480 C.3   208  LEU208      0.0270
     68  CG       -11.7220    8.5710  -25.8610 C.3   208  LEU208      0.0019
     69  CD1      -10.4020    9.2210  -25.4020 C.3   208  LEU208      0.0001
     70  CD2      -11.5170    7.0930  -25.9580 C.3   208  LEU208      0.0001
     71  N        -13.2760    3.1710  -26.4640 N.3   210  ARG210     -0.1245
     72  CA       -12.5370    2.2400  -27.3290 C.3   210  ARG210      0.1563
     73  C        -13.0610    0.8210  -27.0880 C.2   210  ARG210      0.2260
     74  O        -13.2340    0.4190  -25.9310 O.2   210  ARG210     -0.2867
     75  CB       -11.0450    2.2580  -26.9780 C.3   210  ARG210      0.0307
     76  CG       -10.3160    3.6020  -27.1780 C.3   210  ARG210      0.0489
     77  CD        -8.8430    3.3890  -26.7700 C.3   210  ARG210      0.2205
     78  NE        -7.9210    4.4320  -27.2190 N.pl3 210  ARG210     -0.0865
     79  CZ        -7.6290    5.5380  -26.5540 C.cat 210  ARG210      0.5346
     80  NH1       -8.2010    5.7940  -25.3790 N.pl3 210  ARG210      0.1354
     81  NH2       -6.7340    6.3860  -27.0660 N.pl3 210  ARG210      0.1354
     82  N        -18.2410   21.5700  -25.2120 N.3   225  ASN225     -0.1225
     83  CA       -17.5120   22.4840  -26.0820 C.3   225  ASN225      0.1785
     84  C        -16.9790   21.8770  -27.3840 C.2   225  ASN225      0.2597
     85  O        -17.1140   22.4950  -28.4450 O.2   225  ASN225     -0.2718
     86  CB       -16.3730   23.1420  -25.3120 C.3   225  ASN225      0.1169
     87  CG       -15.7000   24.2470  -26.1040 C.2   225  ASN225      0.2627
     88  OD1      -16.3150   25.2720  -26.3810 O.2   225  ASN225     -0.2716
     89  ND2      -14.4120   24.0500  -26.4550 N.am  225  ASN225     -0.0877
     90  N        -16.3640   20.6940  -27.3160 N.am  226  ASP226     -0.1974
     91  CA       -15.7010   20.1400  -28.5180 C.3   226  ASP226      0.1709
     92  C        -16.4420   18.9520  -29.1050 C.2   226  ASP226      0.2293
     93  O        -17.0140   19.0660  -30.1880 O.2   226  ASP226     -0.2864
     94  CB       -14.2310   19.8030  -28.2350 C.3   226  ASP226      0.1436
     95  CG       -13.3670   19.9170  -29.4760 C.2   226  ASP226      0.3671
     96  OD1      -13.3820   20.9790  -30.1230 O.co2 226  ASP226     -0.2456
     97  OD2      -12.7100   18.9280  -29.8280 O.co2 226  ASP226     -0.2456
     98  N        -14.6510    4.5430  -30.9360 N.3   232  ARG232     -0.1245
     99  CA       -13.3880    4.2250  -31.6150 C.3   232  ARG232      0.1563
    100  C        -13.1050    2.7300  -31.6430 C.2   232  ARG232      0.2260
    101  O        -13.5960    1.9730  -30.7920 O.2   232  ARG232     -0.2867
    102  CB       -12.2420    4.9260  -30.8770 C.3   232  ARG232      0.0307
    103  CG       -12.2600    6.4390  -31.0600 C.3   232  ARG232      0.0489
    104  CD       -11.6340    7.1530  -29.8660 C.3   232  ARG232      0.2205
    105  NE       -10.1620    7.1620  -29.9370 N.pl3 232  ARG232     -0.0865
    106  CZ        -9.4030    8.1610  -29.4830 C.cat 232  ARG232      0.5346
    107  NH1       -8.0790    8.1120  -29.6070 N.pl3 232  ARG232      0.1354
    108  NH2       -9.9760    9.2150  -28.8910 N.pl3 232  ARG232      0.1354
    109  N        -13.2500   17.5440  -37.6750 N.3   253  ASP253     -0.1225
    110  CA       -12.1080   17.0200  -36.9230 C.3   253  ASP253      0.1790
    111  C        -10.8870   16.9500  -37.8470 C.2   253  ASP253      0.2440
    112  O        -10.9470   16.3730  -38.9470 O.2   253  ASP253     -0.2733
    113  CB       -12.4790   15.6390  -36.3570 C.3   253  ASP253      0.1423
    114  CG       -11.4030   15.0630  -35.4320 C.2   253  ASP253      0.3668
    115  OD1      -11.6960   14.8090  -34.2320 O.co2 253  ASP253     -0.2456
    116  OD2      -10.2890   14.8070  -35.9200 O.co2 253  ASP253     -0.2456
    117  N         -9.7700   17.5640  -37.4260 N.am  254  PRO254     -0.2718
    118  CA        -8.6120   17.6220  -38.3270 C.3   254  PRO254      0.1535
    119  C         -7.9310   16.2740  -38.4960 C.2   254  PRO254      0.2599
    120  O         -7.0850   16.1320  -39.3820 O.2   254  PRO254     -0.2715
    121  CB        -7.6750   18.6350  -37.6550 C.3   254  PRO254      0.0310
    122  CG        -8.0710   18.6130  -36.2150 C.3   254  PRO254      0.0237
    123  CD        -9.5520   18.3180  -36.1790 C.3   254  PRO254      0.0939
    124  N         -8.2980   15.2920  -37.6840 N.am  255  THR255     -0.1951
    125  CA        -7.7230   13.9600  -37.8410 C.3   255  THR255      0.1897
    126  C         -8.6470   13.0010  -38.5960 C.2   255  THR255      0.2313
    127  O         -8.2350   12.3790  -39.5660 O.2   255  THR255     -0.2863
    128  CB        -7.3820   13.3590  -36.4700 C.3   255  THR255      0.1794
    129  OG1       -6.4730   14.2460  -35.8080 O.3   255  THR255     -0.2208
    130  CG2       -6.7360   11.9850  -36.6400 C.3   255  THR255      0.0378
    131  N        -17.5720   17.6270  -35.6050 N.3   260  LYS260     -0.1245
    132  CA       -17.5730   17.5330  -34.1600 C.3   260  LYS260      0.1561
    133  C        -18.9430   17.8150  -33.5530 C.2   260  LYS260      0.2260
    134  O        -19.4880   18.9150  -33.6830 O.2   260  LYS260     -0.2867
    135  CB       -16.4850   18.4330  -33.5480 C.3   260  LYS260      0.0271
    136  CG       -15.0710   17.8650  -33.8000 C.3   260  LYS260      0.0035
    137  CD       -14.0020   18.7890  -33.2020 C.3   260  LYS260      0.0206
    138  CE       -12.6160   18.1370  -33.2580 C.3   260  LYS260      0.1093
    139  NZ       -11.6240   18.9810  -32.5590 N.3   260  LYS260     -0.1314
    140  N        -10.4120   12.6250  -33.0960 N.3   267  TYR267     -0.1227
    141  CA        -9.1060   12.7160  -32.4350 C.3   267  TYR267      0.1740
    142  C         -8.0640   11.6440  -32.7720 C.2   267  TYR267      0.2635
    143  O         -6.8780   11.9450  -32.9190 O.2   267  TYR267     -0.2714
    144  CB        -9.3020   12.6980  -30.9360 C.3   267  TYR267      0.0548
    145  CG       -10.1940   13.7880  -30.4170 C.ar  267  TYR267     -0.0200
    146  CD1      -10.1710   15.0790  -30.9500 C.ar  267  TYR267     -0.0009
    147  CD2      -11.0560   13.5280  -29.3740 C.ar  267  TYR267     -0.0009
    148  CE1      -11.0350   16.0980  -30.4150 C.ar  267  TYR267      0.0417
    149  CE2      -11.9060   14.4970  -28.8620 C.ar  267  TYR267      0.0417
    150  CZ       -11.8870   15.7690  -29.3680 C.ar  267  TYR267      0.1957
    151  OH       -12.7410   16.6820  -28.8030 O.3   267  TYR267     -0.2866
    152  N         -8.4660   10.3840  -32.8420 N.am  268  GLY268     -0.1732
    153  CA        -7.4490    9.3520  -32.9600 C.2   268  GLY268      0.1340
    154  C         -7.9580    7.9340  -32.9690 C.2   268  GLY268      0.2521
    155  O         -9.1690    7.7100  -33.1150 O.2   268  GLY268     -0.2816
@<TRIPOS>BOND
     1   127   126    2
     2   120   119    2
     3   112   111    2
     4   126   125    1
     5   119   118    1
     6   119   124   am
     7   118   121    1
     8   118   117    1
     9   111   117   am
    10   111   110    1
    11   125   124    1
    12   125   128    1
    13   109   110    1
    14   121   122    1
    15   117   123    1
    16   110   113    1
    17   130   128    1
    18   128   129    1
    19   113   114    1
    20   122   123    1
    21   116   114   ar
    22   131   132    1
    23   114   115   ar
    24   132   133    1
    25   132   135    1
    26   136   135    1
    27   136   137    1
    28   134   133    2
    29   138   137    1
    30   138   139    1
    31   155   154    2
    32   140   141    1
    33   154   153    1
    34   153   152    2
    35   143   142    2
    36   152   142    1
    37   142   141    1
    38   141   144    1
    39   100    99    1
    40   100   101    2
    41    99    98    1
    42    99   102    1
    43   103   102    1
    44   103   104    1
    45   146   145   ar
    46   146   148   ar
    47   144   145    1
    48   145   147   ar
    49   148   150   ar
    50    93    92    2
    51    96    95   ar
    52   105   104    1
    53   105   106    2
    54    97    95   ar
    55   107   106    1
    56   106   108    1
    57    95    94    1
    58   147   149   ar
    59   150   149   ar
    60   150   151    1
    61    92    91    1
    62    91    94    1
    63    91    90    1
    64    85    84    2
    65    84    90   am
    66    84    83    1
    67    72    73    1
    68    72    75    1
    69    72    71    1
    70    78    77    1
    71    78    79    2
    72    76    75    1
    73    76    77    1
    74    73    74    2
    75    81    79    1
    76    79    80    1
    77    89    87   am
    78    88    87    2
    79    87    86    1
    80    83    86    1
    81    83    82    1
    82    70    68    1
    83    68    69    1
    84    68    67    1
    85    41    40    2
    86    50    47    1
    87    50    51    1
    88    45    43   am
    89    64    65    1
    90    64    67    1
    91    64    63    1
    92    65    66    2
    93    44    43    2
    94    43    42    1
    95    47    46    1
    96    47    48    1
    97    52    53    1
    98    52    48   am
    99    40    46   am
   100    40    39    1
   101    53    54    1
   102    53    56    1
   103    48    49    2
   104    57    56    1
   105    57    58    1
   106    62    60    1
   107    59    60    2
   108    59    58    1
   109    39    42    1
   110    39    38    1
   111    27    28   ar
   112    27    25   ar
   113    54    55    2
   114    60    61    1
   115    28    26   ar
   116    25    22   ar
   117     6     5    1
   118     5     2    1
   119    14    12   ar
   120    26    24   ar
   121    35    34    1
   122    35    36    1
   123    18    17    2
   124    34    33    1
   125    22    24   ar
   126    22    20   ar
   127    13    12   ar
   128    12    11    1
   129    24    23   ar
   130     2     1    1
   131     2     3    1
   132    17    16    1
   133    17    29   am
   134    30    33    1
   135    30    29    1
   136    30    31    1
   137    19    20    1
   138    19    16    1
   139    20    21   ar
   140    37    36    1
   141    16    15    1
   142     3     7   am
   143     3     4    2
   144    31    32    2
   145     7     8    1
   146    11     8    1
   147    23    21   ar
   148     8     9    1
   149     9    10    2
