@<TRIPOS>MOLECULE
tmp/3vndC00.pdb
 88 83 0 0 0
SMALL
GASTEIGER

@<TRIPOS>ATOM
      1  N         66.1730   24.8790  -16.4440 N.3    59  LEU59      -0.1231
      2  CA        65.4970   23.6080  -16.7990 C.3    59  LEU59       0.1693
      3  C         64.9450   22.8390  -15.5950 C.2    59  LEU59       0.2592
      4  O         64.0690   22.0070  -15.7180 O.2    59  LEU59      -0.2718
      5  CB        66.4660   22.7150  -17.5720 C.3    59  LEU59       0.0284
      6  CG        66.2570   22.3980  -19.0490 C.3    59  LEU59       0.0019
      7  CD1       65.2200   23.3240  -19.6730 C.3    59  LEU59       0.0001
      8  CD2       67.5760   22.4230  -19.8200 C.3    59  LEU59       0.0001
      9  N         65.4420   23.1570  -14.4170 N.am   60  ALA60      -0.1966
     10  CA        65.1000   22.4490  -13.2150 C.3    60  ALA60       0.1728
     11  C         64.0880   23.1870  -12.3590 C.2    60  ALA60       0.2616
     12  O         63.8740   22.8160  -11.2050 O.2    60  ALA60      -0.2715
     13  CB        66.3730   22.2050  -12.4280 C.3    60  ALA60       0.0334
     14  N         63.3990   24.1700  -12.9370 N.am   61  ASP61      -0.1971
     15  CA        62.5660   25.1140  -12.1710 C.3    61  ASP61       0.1709
     16  C         61.2630   25.2750  -12.8610 C.2    61  ASP61       0.2293
     17  O         61.1650   25.1210  -14.0190 O.2    61  ASP61      -0.2864
     18  CB        63.2390   26.4910  -12.1580 C.3    61  ASP61       0.1436
     19  CG        64.0490   26.7330  -10.8940 C.2    61  ASP61       0.3671
     20  OD1       63.4240   26.6800   -9.8350 O.co2  61  ASP61      -0.2456
     21  OD2       65.2830   26.9660  -10.9310 O.co2  61  ASP61      -0.2456
     22  N         72.4370   29.4340   -5.7230 N.3   101  LEU101     -0.1245
     23  CA        71.8290   28.3020   -6.3530 C.3   101  LEU101      0.1561
     24  C         71.8090   28.6160   -7.8180 C.2   101  LEU101      0.2260
     25  O         71.1300   29.5420   -8.2600 O.2   101  LEU101     -0.2867
     26  CB        70.4120   28.1040   -5.8060 C.3   101  LEU101      0.0270
     27  CG        69.6110   26.8400   -6.1580 C.3   101  LEU101      0.0019
     28  CD1       68.3980   26.7730   -5.2970 C.3   101  LEU101      0.0001
     29  CD2       69.1190   26.8740   -7.5730 C.3   101  LEU101      0.0001
     30  N         72.4340   23.1730   -9.3770 N.3   130  ALA130     -0.1231
     31  CA        71.1150   22.6440   -9.4120 C.3   130  ALA130      0.1694
     32  C         70.9870   21.5130  -10.4650 C.2   130  ALA130      0.2592
     33  O         70.4800   20.4550  -10.1630 O.2   130  ALA130     -0.2718
     34  CB        70.1650   23.8200   -9.7140 C.3   130  ALA130      0.0304
     35  N         71.4940   21.7400  -11.6700 N.am  131  ASP131     -0.1974
     36  CA        71.2230   20.8530  -12.7850 C.3   131  ASP131      0.1709
     37  C         72.3440   19.8510  -13.0180 C.2   131  ASP131      0.2293
     38  O         72.5890   19.4350  -14.1340 O.2   131  ASP131     -0.2864
     39  CB        70.9200   21.6480  -14.0680 C.3   131  ASP131      0.1436
     40  CG        72.1110   22.4790  -14.5780 C.2   131  ASP131      0.3671
     41  OD1       72.1940   22.6780  -15.8120 O.co2 131  ASP131     -0.2456
     42  OD2       72.9430   22.9530  -13.7910 O.co2 131  ASP131     -0.2456
     43  N         72.0410   18.3280   -3.7510 N.3   154  ILE154     -0.1245
     44  CA        70.6880   17.8590   -3.5800 C.3   154  ILE154      0.1561
     45  C         70.4910   16.3530   -3.3370 C.2   154  ILE154      0.2260
     46  O         70.9880   15.5170   -4.0640 O.2   154  ILE154     -0.2867
     47  CB        69.7800   18.2740   -4.7210 C.3   154  ILE154      0.0252
     48  CG1       69.5520   19.7970   -4.6490 C.3   154  ILE154      0.0019
     49  CG2       68.4390   17.5250   -4.5620 C.3   154  ILE154      0.0019
     50  CD1       68.8680   20.3910   -5.8810 C.3   154  ILE154      0.0001
     51  N         64.2180   12.9900   -4.3300 N.3   157  PRO157     -0.2116
     52  CA        63.1640   12.1420   -3.7550 C.3   157  PRO157      0.1372
     53  C         63.3340   10.5970   -3.9350 C.2   157  PRO157      0.2244
     54  O         63.0240    9.7690   -3.0410 O.2   157  PRO157     -0.2868
     55  CB        61.8810   12.6600   -4.4480 C.3   157  PRO157      0.0268
     56  CG        62.3270   13.5610   -5.5650 C.3   157  PRO157      0.0207
     57  CD        63.6840   14.0570   -5.2040 C.3   157  PRO157      0.0892
     58  N         70.5110   19.8920    0.9030 N.3   176  TYR176     -0.1241
     59  CA        69.2820   20.3830    0.3650 C.3   176  TYR176      0.1605
     60  C         68.3550   19.2190    0.0690 C.2   176  TYR176      0.2264
     61  O         68.5780   18.4920   -0.8790 O.2   176  TYR176     -0.2867
     62  CB        69.6100   21.1350   -0.9400 C.3   176  TYR176      0.0534
     63  CG        68.4100   21.8450   -1.5530 C.ar  176  TYR176     -0.0201
     64  CD1       67.2930   21.1450   -1.9190 C.ar  176  TYR176     -0.0009
     65  CD2       68.4220   23.1960   -1.7710 C.ar  176  TYR176     -0.0009
     66  CE1       66.2150   21.7550   -2.4810 C.ar  176  TYR176      0.0417
     67  CE2       67.3290   23.8270   -2.3160 C.ar  176  TYR176      0.0417
     68  CZ        66.2170   23.0970   -2.6540 C.ar  176  TYR176      0.1957
     69  OH        65.1030   23.6770   -3.1700 O.3   176  TYR176     -0.2866
     70  N         65.1340   17.8450   -1.5320 N.3   178  LEU178     -0.1245
     71  CA        64.0320   18.2140   -2.3960 C.3   178  LEU178      0.1561
     72  C         62.8200   17.3900   -1.9650 C.2   178  LEU178      0.2260
     73  O         62.3120   16.5300   -2.7260 O.2   178  LEU178     -0.2867
     74  CB        64.3950   17.9040   -3.8340 C.3   178  LEU178      0.0270
     75  CG        63.5810   18.4170   -4.9950 C.3   178  LEU178      0.0019
     76  CD1       63.4840   19.8950   -4.9820 C.3   178  LEU178      0.0001
     77  CD2       64.3580   18.0030   -6.2610 C.3   178  LEU178      0.0001
     78  N         61.4430   21.3880   -0.7980 N.3   205  PHE205     -0.1241
     79  CA        60.4240   21.2650   -1.8940 C.3   205  PHE205      0.1605
     80  C         59.0690   21.7880   -1.4860 C.2   205  PHE205      0.2264
     81  O         58.3270   21.1650   -0.7690 O.2   205  PHE205     -0.2867
     82  CB        60.3750   19.8760   -2.5260 C.3   205  PHE205      0.0534
     83  CG        59.2860   19.7220   -3.5070 C.ar  205  PHE205     -0.0203
     84  CD1       59.2950   20.4170   -4.6960 C.ar  205  PHE205     -0.0042
     85  CD2       58.2160   18.9050   -3.2250 C.ar  205  PHE205     -0.0042
     86  CE1       58.2620   20.2880   -5.6210 C.ar  205  PHE205     -0.0003
     87  CE2       57.1840   18.7620   -4.1370 C.ar  205  PHE205     -0.0003
     88  CZ        57.1970   19.4790   -5.3320 C.ar  205  PHE205     -0.0000
@<TRIPOS>BOND
     1     8     6    1
     2     7     6    1
     3     6     5    1
     4     5     2    1
     5     2     1    1
     6     2     3    1
     7    41    40   ar
     8     4     3    2
     9     3     9   am
    10    40    39    1
    11    40    42   ar
    12     9    10    1
    13    38    37    2
    14    39    36    1
    15    17    16    2
    16    10    13    1
    17    10    11    1
    18    37    36    1
    19    14    11   am
    20    14    15    1
    21    16    15    1
    22    36    35    1
    23    11    12    2
    24    15    18    1
    25    18    19    1
    26    35    32   am
    27    21    19   ar
    28    19    20   ar
    29    32    33    2
    30    32    31    1
    31    34    31    1
    32    31    30    1
    33    25    24    2
    34    24    23    1
    35    29    27    1
    36    23    26    1
    37    23    22    1
    38    77    75    1
    39    27    26    1
    40    27    28    1
    41    50    48    1
    42    86    88   ar
    43    86    84   ar
    44    56    57    1
    45    56    55    1
    46    88    87   ar
    47    57    51    1
    48    75    76    1
    49    75    74    1
    50    47    48    1
    51    47    49    1
    52    47    44    1
    53    84    83   ar
    54    55    52    1
    55    51    52    1
    56    87    85   ar
    57    46    45    2
    58    53    52    1
    59    53    54    2
    60    74    71    1
    61    43    44    1
    62    44    45    1
    63    83    85   ar
    64    83    82    1
    65    69    68    1
    66    73    72    2
    67    68    66   ar
    68    68    67   ar
    69    82    79    1
    70    66    64   ar
    71    71    72    1
    72    71    70    1
    73    67    65   ar
    74    64    63   ar
    75    79    80    1
    76    79    78    1
    77    65    63   ar
    78    63    62    1
    79    80    81    2
    80    62    59    1
    81    61    60    2
    82    60    59    1
    83    59    58    1
