@<TRIPOS>MOLECULE
tmp/3vngA00.pdb
 104 98 0 0 0
SMALL
GASTEIGER

@<TRIPOS>ATOM
      1  N          9.7250  -25.0770  -26.1890 N.3    13  TYR13      -0.1241
      2  CA        10.0680  -26.4950  -26.2180 C.3    13  TYR13       0.1605
      3  C          8.8960  -27.3520  -26.7060 C.2    13  TYR13       0.2264
      4  O          7.7570  -27.1900  -26.2880 O.2    13  TYR13      -0.2867
      5  CB        10.4690  -26.9170  -24.8040 C.3    13  TYR13       0.0534
      6  CG        10.8840  -28.3450  -24.8030 C.ar   13  TYR13      -0.0201
      7  CD1       12.2160  -28.6810  -25.0300 C.ar   13  TYR13      -0.0009
      8  CD2        9.9490  -29.3530  -24.5650 C.ar   13  TYR13      -0.0009
      9  CE1       12.6130  -30.0100  -25.0090 C.ar   13  TYR13       0.0417
     10  CE2       10.3440  -30.6820  -24.5540 C.ar   13  TYR13       0.0417
     11  CZ        11.6680  -31.0120  -24.7780 C.ar   13  TYR13       0.1957
     12  OH        12.0710  -32.3330  -24.7570 O.3    13  TYR13      -0.2866
     13  N          9.3850  -31.5350  -27.8050 N.3    15  ARG15      -0.1245
     14  CA        10.2900  -32.6190  -28.1730 C.3    15  ARG15       0.1563
     15  C         11.7480  -32.1780  -28.1160 C.2    15  ARG15       0.2260
     16  O         12.6720  -32.9610  -27.9350 O.2    15  ARG15      -0.2867
     17  CB         9.9260  -33.1330  -29.5610 C.3    15  ARG15       0.0307
     18  CG         8.5030  -33.6690  -29.5920 C.3    15  ARG15       0.0489
     19  CD         8.0250  -34.0060  -31.0040 C.3    15  ARG15       0.2205
     20  NE         6.6870  -34.5950  -30.9480 N.pl3  15  ARG15      -0.0865
     21  CZ         6.0680  -34.8360  -32.1150 C.cat  15  ARG15       0.5346
     22  NH1        6.6670  -34.5540  -33.2570 N.pl3  15  ARG15       0.1354
     23  NH2        4.8400  -35.3630  -32.1100 N.pl3  15  ARG15       0.1354
     24  N         14.8200  -22.7290  -25.0350 N.3    42  SER42      -0.1202
     25  CA        13.6010  -22.7620  -24.2380 C.3    42  SER42       0.2020
     26  C         13.8980  -22.4680  -22.7690 C.2    42  SER42       0.2619
     27  O         15.0360  -22.4870  -22.3210 O.2    42  SER42      -0.2717
     28  CB        12.9670  -24.1460  -24.3860 C.3    42  SER42       0.2103
     29  OG        13.8950  -25.1340  -23.9420 O.3    42  SER42      -0.2182
     30  N         12.8300  -22.1560  -22.0170 N.am   43  GLY43      -0.1956
     31  CA        13.0410  -21.7120  -20.6490 C.3    43  GLY43       0.1869
     32  C         13.7840  -20.3740  -20.6130 C.2    43  GLY43       0.2309
     33  O         14.4200  -20.0010  -19.6360 O.2    43  GLY43      -0.2863
     34  N         17.9120  -22.5430  -22.4310 N.3    59  ARG59      -0.1245
     35  CA        18.7940  -23.6660  -22.6960 C.3    59  ARG59       0.1563
     36  C         18.3960  -24.3220  -24.0030 C.2    59  ARG59       0.2260
     37  O         17.2860  -24.1110  -24.5020 O.2    59  ARG59      -0.2867
     38  CB        18.7050  -24.7050  -21.5690 C.3    59  ARG59       0.0307
     39  CG        17.4140  -25.5280  -21.5670 C.3    59  ARG59       0.0489
     40  CD        17.4320  -26.5910  -20.4730 C.3    59  ARG59       0.2205
     41  NE        16.1820  -27.3480  -20.4120 N.pl3  59  ARG59      -0.0865
     42  CZ        15.8840  -28.2300  -19.4620 C.cat  59  ARG59       0.5346
     43  NH1       16.7470  -28.4720  -18.4830 N.pl3  59  ARG59       0.1354
     44  NH2       14.7260  -28.8820  -19.4920 N.pl3  59  ARG59       0.1354
     45  N         17.7210  -27.7300  -25.0600 N.3    61  ASN61      -0.1240
     46  CA        17.4350  -29.1070  -24.6960 C.3    61  ASN61       0.1653
     47  C         17.1030  -29.9050  -25.9490 C.2    61  ASN61       0.2266
     48  O         16.0580  -29.7650  -26.5750 O.2    61  ASN61      -0.2867
     49  CB        16.2650  -29.1130  -23.7050 C.3    61  ASN61       0.1155
     50  CG        15.9340  -30.5230  -23.2870 C.2    61  ASN61       0.2627
     51  OD1       16.7270  -31.4490  -23.4080 O.2    61  ASN61      -0.2716
     52  ND2       14.7100  -30.6700  -22.7500 N.am   61  ASN61      -0.0877
     53  N         19.1300  -21.0360  -17.2180 N.3    93  ASN93      -0.1225
     54  CA        17.8710  -21.6350  -17.6860 C.3    93  ASN93       0.1785
     55  C         16.7640  -21.3370  -16.6900 C.2    93  ASN93       0.2597
     56  O         17.0100  -21.1690  -15.5020 O.2    93  ASN93      -0.2718
     57  CB        18.0720  -23.1450  -17.7970 C.3    93  ASN93       0.1169
     58  CG        16.8300  -23.8210  -18.3540 C.2    93  ASN93       0.2627
     59  OD1       16.2470  -23.3890  -19.3480 O.2    93  ASN93      -0.2716
     60  ND2       16.4410  -24.9370  -17.7080 N.am   93  ASN93      -0.0877
     61  N         15.5230  -21.2360  -17.2100 N.am   94  ARG94      -0.1979
     62  CA        14.4100  -20.8720  -16.3460 C.3    94  ARG94       0.1597
     63  C         14.6940  -19.5690  -15.6170 C.2    94  ARG94       0.2287
     64  O         14.5330  -19.4390  -14.4120 O.2    94  ARG94      -0.2864
     65  CB        14.1840  -21.9920  -15.3360 C.3    94  ARG94       0.0334
     66  CG        13.8330  -23.3260  -16.0010 C.3    94  ARG94       0.0492
     67  CD        13.0690  -24.2710  -15.0610 C.3    94  ARG94       0.2205
     68  NE        12.4450  -25.3650  -15.8160 N.pl3  94  ARG94      -0.0865
     69  CZ        13.0780  -26.5640  -15.8590 C.cat  94  ARG94       0.5346
     70  NH1       14.2490  -26.7680  -15.2470 N.pl3  94  ARG94       0.1354
     71  NH2       12.5130  -27.5660  -16.5360 N.pl3  94  ARG94       0.1354
     72  N          2.9190  -25.9300  -20.1230 N.3   251  TYR251     -0.1241
     73  CA         2.9290  -27.3780  -19.9360 C.3   251  TYR251      0.1605
     74  C          2.0390  -27.7500  -18.7520 C.2   251  TYR251      0.2264
     75  O          2.0770  -27.0910  -17.7130 O.2   251  TYR251     -0.2867
     76  CB         4.3700  -27.8260  -19.6790 C.3   251  TYR251      0.0534
     77  CG         4.5500  -29.3110  -19.4500 C.ar  251  TYR251     -0.0201
     78  CD1        4.3630  -30.2260  -20.4840 C.ar  251  TYR251     -0.0009
     79  CD2        4.9170  -29.7990  -18.1980 C.ar  251  TYR251     -0.0009
     80  CE1        4.5420  -31.5930  -20.2760 C.ar  251  TYR251      0.0417
     81  CE2        5.0970  -31.1690  -17.9800 C.ar  251  TYR251      0.0417
     82  CZ         4.9100  -32.0560  -19.0230 C.ar  251  TYR251      0.1957
     83  OH         5.1090  -33.4070  -18.8160 O.3   251  TYR251     -0.2866
     84  N          1.7210  -30.1950  -24.2720 N.3   256  PHE256     -0.1241
     85  CA         2.2740  -28.8880  -24.5880 C.3   256  PHE256      0.1605
     86  C          1.2090  -27.9740  -25.1880 C.2   256  PHE256      0.2264
     87  O          0.7560  -28.1580  -26.3110 O.2   256  PHE256     -0.2867
     88  CB         3.4160  -29.0820  -25.5860 C.3   256  PHE256      0.0534
     89  CG         4.5820  -29.7350  -24.9020 C.ar  256  PHE256     -0.0203
     90  CD1        5.5220  -28.9600  -24.2440 C.ar  256  PHE256     -0.0042
     91  CD2        4.7060  -31.1190  -24.9300 C.ar  256  PHE256     -0.0042
     92  CE1        6.5980  -29.5770  -23.6110 C.ar  256  PHE256     -0.0003
     93  CE2        5.7810  -31.7260  -24.2950 C.ar  256  PHE256     -0.0003
     94  CZ         6.7320  -30.9590  -23.6340 C.ar  256  PHE256     -0.0000
     95  N          6.1730  -25.0660  -24.6200 N.3   281  SER281     -0.1202
     96  CA         6.3930  -24.4670  -23.3110 C.3   281  SER281      0.2020
     97  C          7.7320  -23.7440  -23.2520 C.2   281  SER281      0.2619
     98  O          8.5640  -23.8940  -24.1440 O.2   281  SER281     -0.2717
     99  CB         6.3860  -25.5590  -22.2420 C.3   281  SER281      0.2103
    100  OG         7.4680  -26.4490  -22.4570 O.3   281  SER281     -0.2182
    101  N          7.9300  -22.9690  -22.1890 N.am  282  GLY282     -0.1956
    102  CA         9.1770  -22.2480  -21.9990 C.3   282  GLY282      0.1869
    103  C          9.5160  -21.2090  -23.0500 C.2   282  GLY282      0.2309
    104  O         10.6800  -21.0880  -23.4350 O.2   282  GLY282     -0.2863
@<TRIPOS>BOND
     1    22    21    1
     2    21    23    1
     3    21    20    2
     4    19    20    1
     5    19    18    1
     6    18    17    1
     7    17    14    1
     8    14    15    1
     9    14    13    1
    10    15    16    2
    11     3     4    2
    12     3     2    1
    13    48    47    2
    14    87    86    2
    15     2     1    1
    16     2     5    1
    17    47    46    1
    18    88    89    1
    19    88    85    1
    20    86    85    1
    21    45    46    1
    22    24    25    1
    23     7     9   ar
    24     7     6   ar
    25     9    11   ar
    26    91    89   ar
    27    91    93   ar
    28    89    90   ar
    29     5     6    1
    30     6     8   ar
    31    11    12    1
    32    11    10   ar
    33    46    49    1
    34    95    96    1
    35    85    84    1
    36     8    10   ar
    37    37    36    2
    38    28    25    1
    39    28    29    1
    40    93    94   ar
    41    90    92   ar
    42    25    26    1
    43    98    97    2
    44    36    35    1
    45    49    50    1
    46    94    92   ar
    47   104   103    2
    48    51    50    2
    49    96    97    1
    50    96    99    1
    51    50    52   am
    52    97   101   am
    53   103   102    1
    54    26    27    2
    55    26    30   am
    56    35    34    1
    57    35    38    1
    58   100    99    1
    59   101   102    1
    60    30    31    1
    61    38    39    1
    62    39    40    1
    63    31    32    1
    64    32    33    2
    65    78    80   ar
    66    78    77   ar
    67    40    41    1
    68    41    42    2
    69    80    82   ar
    70    72    73    1
    71    73    76    1
    72    73    74    1
    73    76    77    1
    74    44    42    1
    75    42    43    1
    76    77    79   ar
    77    59    58    2
    78    82    83    1
    79    82    81   ar
    80    74    75    2
    81    58    57    1
    82    58    60   am
    83    79    81   ar
    84    57    54    1
    85    54    53    1
    86    54    55    1
    87    61    55   am
    88    61    62    1
    89    55    56    2
    90    71    69    1
    91    62    63    1
    92    62    65    1
    93    66    65    1
    94    66    67    1
    95    69    68    2
    96    69    70    1
    97    68    67    1
    98    63    64    2
