@<TRIPOS>MOLECULE
tmp/3vnhA00.pdb
 148 139 0 0 0
SMALL
GASTEIGER

@<TRIPOS>ATOM
      1  N        -13.6130  -32.0300    1.1030 N.3    13  TYR13      -0.1241
      2  CA       -14.4480  -31.4730    2.1680 C.3    13  TYR13       0.1605
      3  C        -15.7880  -30.9390    1.6420 C.2    13  TYR13       0.2264
      4  O        -15.8490  -30.1620    0.6980 O.2    13  TYR13      -0.2867
      5  CB       -13.6670  -30.3460    2.8450 C.3    13  TYR13       0.0534
      6  CG       -14.4060  -29.8730    4.0460 C.ar   13  TYR13      -0.0201
      7  CD1      -15.4480  -28.9610    3.9050 C.ar   13  TYR13      -0.0009
      8  CD2      -14.0690  -30.3450    5.3150 C.ar   13  TYR13      -0.0009
      9  CE1      -16.1560  -28.5330    5.0180 C.ar   13  TYR13       0.0417
     10  CE2      -14.7700  -29.9090    6.4300 C.ar   13  TYR13       0.0417
     11  CZ       -15.8060  -29.0050    6.2850 C.ar   13  TYR13       0.1957
     12  OH       -16.5210  -28.5800    7.3880 O.3    13  TYR13      -0.2866
     13  N         -9.7440  -34.1780    4.5300 N.3    42  SER42      -0.1202
     14  CA        -9.7020  -33.0470    3.6160 C.3    42  SER42       0.2020
     15  C         -8.3270  -32.3660    3.6960 C.2    42  SER42       0.2619
     16  O         -7.5960  -32.5030    4.6700 O.2    42  SER42      -0.2717
     17  CB       -10.7970  -32.0720    4.0460 C.3    42  SER42       0.2103
     18  OG       -10.5920  -31.7360    5.4220 O.3    42  SER42      -0.2182
     19  N         -7.9480  -31.6470    2.6250 N.am   43  GLY43      -0.1956
     20  CA        -6.6510  -30.9770    2.6510 C.3    43  GLY43       0.1869
     21  C         -5.4800  -31.9510    2.4880 C.2    43  GLY43       0.2309
     22  O         -4.3460  -31.6810    2.8670 O.2    43  GLY43      -0.2863
     23  N         -6.4920  -33.7960    6.8740 N.3    59  ARG59      -0.1245
     24  CA        -7.0890  -33.6150    8.1800 C.3    59  ARG59       0.1563
     25  C         -8.5210  -34.1080    8.2140 C.2    59  ARG59       0.2260
     26  O         -9.2250  -34.0850    7.2000 O.2    59  ARG59      -0.2867
     27  CB        -7.0300  -32.1280    8.5340 C.3    59  ARG59       0.0307
     28  CG        -8.0390  -31.6080    9.5510 C.3    59  ARG59       0.0489
     29  CD        -7.7540  -30.1310    9.8440 C.3    59  ARG59       0.2205
     30  NE        -8.8640  -29.2640    9.4640 N.pl3  59  ARG59      -0.0865
     31  CZ        -8.8600  -27.9420    9.6060 C.cat  59  ARG59       0.5346
     32  NH1       -7.8020  -27.3220   10.1160 N.pl3  59  ARG59       0.1354
     33  NH2       -9.9260  -27.2410    9.2510 N.pl3  59  ARG59       0.1354
     34  N        -11.9130  -33.2550    9.8940 N.3    61  ASN61      -0.1240
     35  CA       -12.7080  -32.3310   10.6700 C.3    61  ASN61       0.1653
     36  C        -14.1960  -32.5710   10.4680 C.2    61  ASN61       0.2266
     37  O        -14.7170  -32.6360    9.3580 O.2    61  ASN61      -0.2867
     38  CB       -12.3410  -30.8990   10.2800 C.3    61  ASN61       0.1155
     39  CG       -13.0120  -29.9380   11.2310 C.2    61  ASN61       0.2627
     40  OD1      -14.2290  -29.7800   11.2400 O.2    61  ASN61      -0.2716
     41  ND2      -12.1770  -29.2510   12.0300 N.am   61  ASN61      -0.0877
     42  N         -1.5030  -31.0080    7.3900 N.3    93  ASN93      -0.1225
     43  CA        -2.7710  -30.6160    6.7850 C.3    93  ASN93       0.1785
     44  C         -2.4910  -29.5660    5.7170 C.2    93  ASN93       0.2597
     45  O         -1.6120  -28.7200    5.8890 O.2    93  ASN93      -0.2718
     46  CB        -3.7130  -30.0320    7.8380 C.3    93  ASN93       0.1169
     47  CG        -5.0080  -29.5380    7.2330 C.2    93  ASN93       0.2627
     48  OD1       -5.6780  -30.2650    6.5040 O.2    93  ASN93      -0.2716
     49  ND2       -5.3680  -28.2940    7.5310 N.am   93  ASN93      -0.0877
     50  N         -3.2520  -29.6250    4.6230 N.am   94  ARG94      -0.1979
     51  CA        -3.0790  -28.7010    3.5060 C.3    94  ARG94       0.1597
     52  C         -1.6370  -28.8170    3.0450 C.2    94  ARG94       0.2287
     53  O         -0.8700  -27.8490    2.9310 O.2    94  ARG94      -0.2864
     54  CB        -3.4940  -27.2880    3.9240 C.3    94  ARG94       0.0334
     55  CG        -4.9970  -27.2830    4.2100 C.3    94  ARG94       0.0492
     56  CD        -5.6260  -25.9640    4.5690 C.3    94  ARG94       0.2205
     57  NE        -6.9960  -26.2180    5.0190 N.pl3  94  ARG94      -0.0865
     58  CZ        -7.9340  -25.2940    5.2000 C.cat  94  ARG94       0.5346
     59  NH1       -7.6740  -24.0180    4.9900 N.pl3  94  ARG94       0.1354
     60  NH2       -9.1390  -25.6550    5.6070 N.pl3  94  ARG94       0.1354
     61  N          1.8680  -23.7920    4.1450 N.3   140  ILE140     -0.1231
     62  CA         0.7100  -24.6710    4.1160 C.3   140  ILE140      0.1692
     63  C         -0.2490  -24.2020    3.0190 C.2   140  ILE140      0.2592
     64  O         -0.2730  -23.0400    2.6320 O.2   140  ILE140     -0.2718
     65  CB         0.0600  -24.6470    5.4990 C.3   140  ILE140      0.0266
     66  CG1       -0.7660  -23.3750    5.6760 C.3   140  ILE140      0.0019
     67  CG2        1.1630  -24.6520    6.5760 C.3   140  ILE140      0.0020
     68  CD1       -2.2360  -23.6750    5.9660 C.3   140  ILE140      0.0001
     69  N         -1.0070  -25.1580    2.4610 N.am  141  GLY141     -0.1957
     70  CA        -1.7850  -24.8230    1.2720 C.3   141  GLY141      0.1869
     71  C         -0.8540  -24.5760    0.0840 C.2   141  GLY141      0.2309
     72  O         -1.1050  -23.7620   -0.7960 O.2   141  GLY141     -0.2863
     73  N          0.7300  -20.3900    2.5170 N.3   157  PHE157     -0.1241
     74  CA         0.5460  -19.4700    3.6410 C.3   157  PHE157      0.1605
     75  C          1.6210  -19.8000    4.6760 C.2   157  PHE157      0.2264
     76  O          1.7210  -20.9420    5.1220 O.2   157  PHE157     -0.2867
     77  CB        -0.8600  -19.6870    4.2250 C.3   157  PHE157      0.0534
     78  CG        -1.1950  -18.7950    5.3870 C.ar  157  PHE157     -0.0203
     79  CD1       -1.1310  -17.4120    5.2630 C.ar  157  PHE157     -0.0042
     80  CD2       -1.6030  -19.3400    6.6030 C.ar  157  PHE157     -0.0042
     81  CE1       -1.4690  -16.5770    6.3330 C.ar  157  PHE157     -0.0003
     82  CE2       -1.9460  -18.5100    7.6860 C.ar  157  PHE157     -0.0003
     83  CZ        -1.8760  -17.1270    7.5430 C.ar  157  PHE157     -0.0000
     84  N          0.0470  -14.7210    3.1510 N.3   162  ARG162     -0.1245
     85  CA        -0.0660  -15.5850    1.9800 C.3   162  ARG162      0.1563
     86  C          1.0140  -15.2290    0.9470 C.2   162  ARG162      0.2260
     87  O          1.3770  -14.0760    0.7660 O.2   162  ARG162     -0.2867
     88  CB        -1.4630  -15.3800    1.3790 C.3   162  ARG162      0.0307
     89  CG        -2.4180  -16.5330    1.6990 C.3   162  ARG162      0.0489
     90  CD        -3.5230  -16.1190    2.6820 C.3   162  ARG162      0.2205
     91  NE        -4.3370  -17.2810    3.0590 N.pl3 162  ARG162     -0.0865
     92  CZ        -4.9710  -17.2390    4.2480 C.cat 162  ARG162      0.5346
     93  NH1       -4.8580  -16.1770    5.0260 N.pl3 162  ARG162      0.1354
     94  NH2       -5.7150  -18.2800    4.6400 N.pl3 162  ARG162      0.1354
     95  N         -2.7880  -19.0730   -2.2730 N.3   187  SER187     -0.1202
     96  CA        -2.7630  -20.2230   -1.3730 C.3   187  SER187      0.2020
     97  C         -3.8720  -21.2070   -1.7510 C.2   187  SER187      0.2619
     98  O         -4.9650  -20.8230   -2.1370 O.2   187  SER187     -0.2717
     99  CB        -2.9660  -19.7340    0.0660 C.3   187  SER187      0.2103
    100  OG        -2.8920  -20.8460    0.9630 O.3   187  SER187     -0.2182
    101  N         -3.5480  -22.5140   -1.6720 N.am  188  GLY188     -0.1956
    102  CA        -4.5490  -23.5120   -2.0330 C.3   188  GLY188      0.1869
    103  C         -4.8530  -23.4700   -3.5270 C.2   188  GLY188      0.2309
    104  O         -5.9810  -23.5930   -3.9770 O.2   188  GLY188     -0.2863
    105  N         -6.3870  -18.8060   -3.2450 N.3   204  TYR204     -0.1241
    106  CA        -6.9400  -17.7400   -2.4180 C.3   204  TYR204      0.1605
    107  C         -5.8280  -16.7160   -2.2340 C.2   204  TYR204      0.2264
    108  O         -4.7230  -17.0730   -1.8290 O.2   204  TYR204     -0.2867
    109  CB        -7.3630  -18.3220   -1.0670 C.3   204  TYR204      0.0534
    110  CG        -7.8660  -17.3190   -0.0540 C.ar  204  TYR204     -0.0201
    111  CD1       -8.9620  -16.4950   -0.3320 C.ar  204  TYR204     -0.0009
    112  CD2       -7.2760  -17.2270    1.2060 C.ar  204  TYR204     -0.0009
    113  CE1       -9.4580  -15.6060    0.6290 C.ar  204  TYR204      0.0417
    114  CE2       -7.7610  -16.3460    2.1690 C.ar  204  TYR204      0.0417
    115  CZ        -8.8500  -15.5420    1.8760 C.ar  204  TYR204      0.1957
    116  OH        -9.3320  -14.6880    2.8410 O.3   204  TYR204     -0.2866
    117  N        -10.4590  -22.1010   -4.8740 N.3   234  SER234     -0.1202
    118  CA        -9.3120  -22.4830   -4.0800 C.3   234  SER234      0.2020
    119  C         -9.5060  -23.8910   -3.5260 C.2   234  SER234      0.2618
    120  O        -10.6170  -24.3990   -3.4450 O.2   234  SER234     -0.2717
    121  CB        -9.1790  -21.4840   -2.9320 C.3   234  SER234      0.2103
    122  OG       -10.3760  -21.4920   -2.1600 O.3   234  SER234     -0.2182
    123  N         -8.4230  -24.5780   -3.1790 N.am  235  ALA235     -0.1979
    124  CA        -8.5010  -25.9550   -2.6940 C.3   235  ALA235      0.1597
    125  C         -9.0990  -26.8470   -3.7750 C.2   235  ALA235      0.2287
    126  O         -9.9020  -27.7360   -3.4890 O.2   235  ALA235     -0.2864
    127  CB        -9.3440  -26.0280   -1.4160 C.3   235  ALA235      0.0319
    128  N        -19.3120  -24.9110   -2.7300 N.3   256  PHE256     -0.1241
    129  CA       -18.3550  -25.9800   -2.9930 C.3   256  PHE256      0.1605
    130  C        -18.6420  -26.6580   -4.3350 C.2   256  PHE256      0.2264
    131  O        -19.5720  -27.4410   -4.4910 O.2   256  PHE256     -0.2867
    132  CB       -18.4370  -26.9900   -1.8450 C.3   256  PHE256      0.0534
    133  CG       -17.8450  -26.3930   -0.5990 C.ar  256  PHE256     -0.0203
    134  CD1      -18.6200  -25.5620    0.2020 C.ar  256  PHE256     -0.0042
    135  CD2      -16.5340  -26.6770   -0.2490 C.ar  256  PHE256     -0.0042
    136  CE1      -18.0790  -25.0190    1.3600 C.ar  256  PHE256     -0.0003
    137  CE2      -15.9990  -26.1290    0.9150 C.ar  256  PHE256     -0.0003
    138  CZ       -16.7690  -25.3010    1.7240 C.ar  256  PHE256     -0.0000
    139  N        -14.2090  -29.4900   -1.8650 N.3   281  SER281     -0.1202
    140  CA       -12.8850  -28.9120   -2.0120 C.3   281  SER281      0.2020
    141  C        -11.8510  -29.7340   -1.2350 C.2   281  SER281      0.2619
    142  O        -12.1890  -30.6650   -0.5070 O.2   281  SER281     -0.2717
    143  CB       -12.9390  -27.4850   -1.4750 C.3   281  SER281      0.2103
    144  OG       -12.9340  -27.5070   -0.0520 O.3   281  SER281     -0.2182
    145  N        -10.5540  -29.4160   -1.4540 N.am  282  GLY282     -0.1956
    146  CA        -9.4980  -30.0640   -0.6770 C.3   282  GLY282      0.1869
    147  C         -9.3800  -31.5780   -0.9640 C.2   282  GLY282      0.2309
    148  O         -9.0720  -32.3680   -0.0870 O.2   282  GLY282     -0.2863
@<TRIPOS>BOND
     1   117   118    1
     2   131   130    2
     3   130   129    1
     4   118   119    1
     5   118   121    1
     6   104   103    2
     7   125   126    2
     8   125   124    1
     9   103   102    1
    10   119   120    2
    11   119   123   am
    12   105   106    1
    13   123   124    1
    14   129   128    1
    15   129   132    1
    16   121   122    1
    17   124   127    1
    18   106   107    1
    19   106   109    1
    20    95    96    1
    21   107   108    2
    22    98    97    2
    23   102   101    1
    24   140   139    1
    25   140   143    1
    26   140   141    1
    27   132   133    1
    28    97   101   am
    29    97    96    1
    30   143   144    1
    31   145   141   am
    32   145   146    1
    33    96    99    1
    34   141   142    2
    35   109   110    1
    36   147   146    1
    37   147   148    2
    38    72    71    2
    39   133   135   ar
    40   133   134   ar
    41   111   110   ar
    42   111   113   ar
    43   135   137   ar
    44   110   112   ar
    45    99   100    1
    46    71    70    1
    47   134   136   ar
    48   113   115   ar
    49     4     3    2
    50    87    86    2
    51   137   138   ar
    52    86    85    1
    53     1     2    1
    54   112   114   ar
    55    70    69    1
    56   136   138   ar
    57    88    89    1
    58    88    85    1
    59     3     2    1
    60    89    90    1
    61   115   114   ar
    62   115   116    1
    63    85    84    1
    64     2     5    1
    65    69    63   am
    66    21    20    1
    67    21    22    2
    68    73    74    1
    69    19    20    1
    70    19    15   am
    71    64    63    2
    72    90    91    1
    73     5     6    1
    74    53    52    2
    75    63    62    1
    76    52    51    1
    77    91    92    2
    78    51    54    1
    79    51    50    1
    80    14    15    1
    81    14    17    1
    82    14    13    1
    83    74    77    1
    84    74    75    1
    85    15    16    2
    86     7     6   ar
    87     7     9   ar
    88    54    55    1
    89    17    18    1
    90     6     8   ar
    91    62    61    1
    92    62    65    1
    93    55    56    1
    94    77    78    1
    95    92    94    1
    96    92    93    1
    97    56    57    1
    98    50    44   am
    99    75    76    2
   100    59    58    1
   101     9    11   ar
   102    57    58    2
   103    58    60    1
   104    79    78   ar
   105    79    81   ar
   106     8    10   ar
   107    78    80   ar
   108    65    66    1
   109    65    67    1
   110    66    68    1
   111    44    45    2
   112    44    43    1
   113    11    10   ar
   114    11    12    1
   115    81    83   ar
   116    48    47    2
   117    80    82   ar
   118    43    42    1
   119    43    46    1
   120    23    24    1
   121    26    25    2
   122    47    49   am
   123    47    46    1
   124    83    82   ar
   125    24    25    1
   126    24    27    1
   127    27    28    1
   128    33    31    1
   129    37    36    2
   130    30    31    2
   131    30    29    1
   132    28    29    1
   133    31    32    1
   134    34    35    1
   135    38    35    1
   136    38    39    1
   137    36    35    1
   138    39    40    2
   139    39    41   am
