@<TRIPOS>MOLECULE
tmp/3vnlA00.pdb
 164 158 0 0 0
SMALL
GASTEIGER

@<TRIPOS>ATOM
      1  N         -5.3570  -28.6500   -2.6020 N.3     7  TYR7       -0.1241
      2  CA        -4.5240  -29.2030   -3.6560 C.3     7  TYR7        0.1605
      3  C         -3.0370  -29.1370   -3.1870 C.2     7  TYR7        0.2264
      4  O         -2.6050  -28.0930   -2.6730 O.2     7  TYR7       -0.2867
      5  CB        -4.7000  -28.3450   -4.8900 C.3     7  TYR7        0.0534
      6  CG        -4.1870  -28.9500   -6.1640 C.ar    7  TYR7       -0.0201
      7  CD1       -4.1080  -30.3190   -6.3400 C.ar    7  TYR7       -0.0009
      8  CD2       -3.9180  -28.1470   -7.2380 C.ar    7  TYR7       -0.0009
      9  CE1       -3.7720  -30.8750   -7.5820 C.ar    7  TYR7        0.0417
     10  CE2       -3.6040  -28.6780   -8.4690 C.ar    7  TYR7        0.0417
     11  CZ        -3.5330  -30.0480   -8.6300 C.ar    7  TYR7        0.1957
     12  OH        -3.2350  -30.5000   -9.8830 O.3     7  TYR7       -0.2866
     13  N          3.8650  -30.4800  -11.3810 N.3    15  TRP15      -0.1241
     14  CA         2.6770  -31.3100  -11.3030 C.3    15  TRP15       0.1605
     15  C          2.9640  -32.7140  -10.7620 C.2    15  TRP15       0.2264
     16  O          2.4570  -33.7230  -11.2740 O.2    15  TRP15      -0.2867
     17  CB         1.9680  -31.3540  -12.6800 C.3    15  TRP15       0.0550
     18  CG         1.4600  -29.9870  -13.1420 C.ar   15  TRP15       0.0003
     19  CD1        1.7480  -29.3590  -14.3250 C.ar   15  TRP15       0.0946
     20  CD2        0.5630  -29.0980  -12.4290 C.ar   15  TRP15       0.0152
     21  NE1        1.0940  -28.1350  -14.3930 N.ar   15  TRP15      -0.2442
     22  CE2        0.3620  -27.9540  -13.2500 C.ar   15  TRP15       0.0810
     23  CE3       -0.0770  -29.1600  -11.1860 C.ar   15  TRP15       0.0012
     24  CZ2       -0.4580  -26.8710  -12.8630 C.ar   15  TRP15       0.0191
     25  CZ3       -0.8880  -28.0880  -10.7950 C.ar   15  TRP15       0.0001
     26  CH2       -1.0720  -26.9520  -11.6390 C.ar   15  TRP15       0.0015
     27  N         -6.7770  -34.2990   -9.6170 N.3    66  GLY66      -0.1210
     28  CA        -7.0340  -33.3010  -10.6260 C.3    66  GLY66       0.1956
     29  C         -6.1070  -33.6220  -11.7880 C.2    66  GLY66       0.2612
     30  O         -5.0760  -34.2860  -11.6020 O.2    66  GLY66      -0.2717
     31  N         -6.4500  -33.1710  -12.9930 N.am   67  HIS67      -0.1961
     32  CA        -5.5730  -33.3820  -14.1490 C.3    67  HIS67       0.1787
     33  C         -5.8170  -32.3700  -15.2730 C.2    67  HIS67       0.2620
     34  O         -6.9530  -32.1330  -15.6640 O.2    67  HIS67      -0.2715
     35  CB        -5.8020  -34.7680  -14.7160 C.3    67  HIS67       0.0785
     36  CG        -4.7780  -35.1640  -15.7460 C.ar   67  HIS67       0.0821
     37  ND1       -3.4210  -35.0340  -15.5320 N.ar   67  HIS67      -0.2267
     38  CD2       -4.9070  -35.7010  -16.9790 C.ar   67  HIS67       0.1154
     39  CE1       -2.7630  -35.4680  -16.5920 C.ar   67  HIS67       0.1986
     40  NE2       -3.6430  -35.8780  -17.4830 N.ar   67  HIS67      -0.2212
     41  N         -4.7450  -31.7460  -15.7560 N.am   68  GLY68      -0.1954
     42  CA        -4.8370  -30.8360  -16.8850 C.3    68  GLY68       0.1869
     43  C         -4.2410  -31.7320  -17.9620 C.2    68  GLY68       0.2309
     44  O         -3.0280  -31.9020  -17.9920 O.2    68  GLY68      -0.2863
     45  N        -10.9950  -34.8170  -11.5650 N.3   106  GLY106     -0.1210
     46  CA       -11.6090  -33.6020  -12.0780 C.3   106  GLY106      0.1956
     47  C        -10.6120  -32.7800  -12.8450 C.2   106  GLY106      0.2612
     48  O         -9.4070  -33.0550  -12.7870 O.2   106  GLY106     -0.2717
     49  N        -11.1020  -31.7760  -13.5540 N.am  107  GLY107     -0.1942
     50  CA       -10.2530  -30.9210  -14.3650 C.3   107  GLY107      0.2014
     51  C        -10.8870  -30.8240  -15.7580 C.2   107  GLY107      0.2638
     52  O        -12.0580  -31.1960  -15.9300 O.2   107  GLY107     -0.2714
     53  N        -10.1310  -30.3360  -16.7390 N.am  108  ALA108     -0.1977
     54  CA       -10.5970  -30.1730  -18.1130 C.3   108  ALA108      0.1597
     55  C        -10.4690  -31.5170  -18.8220 C.2   108  ALA108      0.2287
     56  O         -9.8240  -31.6190  -19.8570 O.2   108  ALA108     -0.2864
     57  CB        -9.7340  -29.1140  -18.8530 C.3   108  ALA108      0.0319
     58  N         -5.3020  -29.0100  -21.2820 N.3   113  TRP113     -0.1241
     59  CA        -4.9990  -27.7370  -20.6260 C.3   113  TRP113      0.1605
     60  C         -3.5100  -27.6940  -20.2820 C.2   113  TRP113      0.2264
     61  O         -2.9430  -28.6770  -19.8290 O.2   113  TRP113     -0.2867
     62  CB        -5.8230  -27.6790  -19.3310 C.3   113  TRP113      0.0550
     63  CG        -5.5780  -26.5180  -18.4250 C.ar  113  TRP113      0.0003
     64  CD1       -6.2960  -25.3460  -18.3700 C.ar  113  TRP113      0.0946
     65  CD2       -4.5600  -26.4160  -17.4260 C.ar  113  TRP113      0.0152
     66  NE1       -5.7890  -24.5260  -17.3950 N.ar  113  TRP113     -0.2442
     67  CE2       -4.7230  -25.1510  -16.7940 C.ar  113  TRP113      0.0810
     68  CE3       -3.5170  -27.2680  -16.9980 C.ar  113  TRP113      0.0012
     69  CZ2       -3.8890  -24.7150  -15.7490 C.ar  113  TRP113      0.0191
     70  CZ3       -2.6640  -26.8260  -15.9460 C.ar  113  TRP113      0.0001
     71  CH2       -2.8670  -25.5610  -15.3400 C.ar  113  TRP113      0.0015
     72  N        -14.7520  -29.9200  -15.1700 N.3   151  GLU151     -0.1245
     73  CA       -14.6270  -28.5830  -14.6200 C.3   151  GLU151      0.1567
     74  C        -14.8660  -27.4620  -15.6070 C.2   151  GLU151      0.2260
     75  O        -14.2570  -27.4090  -16.6590 O.2   151  GLU151     -0.2867
     76  CB       -13.2300  -28.4030  -14.0000 C.3   151  GLU151      0.0388
     77  CG       -12.9300  -26.9850  -13.5830 C.3   151  GLU151      0.1160
     78  CD       -11.5890  -26.8710  -12.7510 C.2   151  GLU151      0.3649
     79  OE1      -10.6100  -27.5160  -13.0820 O.co2 151  GLU151     -0.2457
     80  OE2      -11.5310  -26.1200  -11.7920 O.co2 151  GLU151     -0.2457
     81  N        -14.2030  -23.9650  -16.9450 N.3   153  LEU153     -0.1245
     82  CA       -13.0980  -23.0250  -16.8900 C.3   153  LEU153      0.1561
     83  C        -13.3780  -21.6910  -17.6040 C.2   153  LEU153      0.2260
     84  O        -14.2620  -21.5990  -18.4970 O.2   153  LEU153     -0.2867
     85  CB       -11.8740  -23.6470  -17.5490 C.3   153  LEU153      0.0270
     86  CG       -11.4650  -25.0600  -17.0810 C.3   153  LEU153      0.0019
     87  CD1      -10.2600  -25.5260  -17.8720 C.3   153  LEU153      0.0001
     88  CD2      -11.1460  -25.0400  -15.6170 C.3   153  LEU153      0.0001
     89  N         -8.5520  -20.2850  -20.5520 N.3   157  GLU157     -0.1245
     90  CA        -7.9730  -21.6100  -20.3110 C.3   157  GLU157      0.1567
     91  C         -8.6910  -22.7370  -21.0690 C.2   157  GLU157      0.2260
     92  O         -8.2440  -23.8920  -21.0560 O.2   157  GLU157     -0.2867
     93  CB        -7.9530  -21.8930  -18.7950 C.3   157  GLU157      0.0388
     94  CG        -7.0910  -20.8630  -18.0150 C.3   157  GLU157      0.1160
     95  CD        -6.9880  -21.2130  -16.5340 C.2   157  GLU157      0.3649
     96  OE1       -6.6650  -22.3890  -16.2360 O.co2 157  GLU157     -0.2457
     97  OE2       -7.2340  -20.3350  -15.6750 O.co2 157  GLU157     -0.2457
     98  N        -15.6030  -23.8910  -10.0070 N.3   184  ASP184     -0.1239
     99  CA       -14.4070  -23.3520   -9.3830 C.3   184  ASP184      0.1674
    100  C        -14.6630  -21.8470   -9.2080 C.2   184  ASP184      0.2266
    101  O        -14.9320  -21.1410  -10.1830 O.2   184  ASP184     -0.2867
    102  CB       -13.2280  -23.6130  -10.3230 C.3   184  ASP184      0.1410
    103  CG       -11.9070  -23.0480   -9.8140 C.2   184  ASP184      0.3668
    104  OD1      -11.8920  -21.9510   -9.2250 O.co2 184  ASP184     -0.2456
    105  OD2      -10.8890  -23.7050  -10.0700 O.co2 184  ASP184     -0.2456
    106  N        -12.9120  -19.5290  -11.5870 N.3   187  HIS187     -0.1241
    107  CA       -13.3670  -19.4970  -12.9670 C.3   187  HIS187      0.1621
    108  C        -14.7720  -18.8860  -13.0450 C.2   187  HIS187      0.2264
    109  O        -15.0450  -18.1510  -13.9740 O.2   187  HIS187     -0.2867
    110  CB       -13.3310  -20.9030  -13.5780 C.3   187  HIS187      0.0745
    111  CG       -11.9350  -21.4410  -13.7150 C.ar  187  HIS187      0.0817
    112  ND1      -11.0130  -20.8940  -14.5800 N.ar  187  HIS187     -0.2268
    113  CD2      -11.3100  -22.4840  -13.1150 C.ar  187  HIS187      0.1154
    114  CE1       -9.8880  -21.5830  -14.5160 C.ar  187  HIS187      0.1986
    115  NE2      -10.0410  -22.5500  -13.6330 N.ar  187  HIS187     -0.2212
    116  N        -13.9730  -26.4000   -6.5080 N.3   210  HIS210     -0.1241
    117  CA       -12.6470  -25.9090   -6.2250 C.3   210  HIS210      0.1621
    118  C        -12.8560  -24.5050   -5.6770 C.2   210  HIS210      0.2264
    119  O        -13.7610  -23.7740   -6.1490 O.2   210  HIS210     -0.2867
    120  CB       -11.8680  -25.7560   -7.4970 C.3   210  HIS210      0.0745
    121  CG       -10.9650  -26.8960   -7.8230 C.ar  210  HIS210      0.0817
    122  ND1      -10.2450  -26.9260   -8.9980 N.ar  210  HIS210     -0.2268
    123  CD2      -10.6960  -28.0590   -7.1790 C.ar  210  HIS210      0.1154
    124  CE1       -9.5730  -28.0690   -9.0660 C.ar  210  HIS210      0.1986
    125  NE2       -9.8350  -28.7770   -7.9800 N.ar  210  HIS210     -0.2212
    126  N         -6.6220  -16.0910   -6.8300 N.3   216  ARG216     -0.1245
    127  CA        -6.1390  -17.4140   -6.4000 C.3   216  ARG216      0.1563
    128  C         -5.4280  -17.5470   -5.0710 C.2   216  ARG216      0.2260
    129  O         -4.7040  -18.5150   -4.8570 O.2   216  ARG216     -0.2867
    130  CB        -5.2620  -18.0450   -7.4880 C.3   216  ARG216      0.0307
    131  CG        -5.8830  -18.1070   -8.9130 C.3   216  ARG216      0.0489
    132  CD        -6.6160  -19.4330   -9.1120 C.3   216  ARG216      0.2205
    133  NE        -6.2500  -19.9670  -10.3710 N.pl3 216  ARG216     -0.0865
    134  CZ        -6.5890  -21.1580  -10.8490 C.cat 216  ARG216      0.5346
    135  NH1       -7.3240  -22.0130  -10.1720 N.pl3 216  ARG216      0.1354
    136  NH2       -6.1920  -21.4550  -12.0660 N.pl3 216  ARG216      0.1354
    137  N         -7.7360  -24.5130   -3.9280 N.3   245  GLU245     -0.1245
    138  CA        -6.6510  -24.6460   -4.8630 C.3   245  GLU245      0.1567
    139  C         -5.8470  -23.3070   -4.9230 C.2   245  GLU245      0.2260
    140  O         -5.7260  -22.6700   -5.9600 O.2   245  GLU245     -0.2867
    141  CB        -7.3260  -24.9810   -6.1890 C.3   245  GLU245      0.0388
    142  CG        -6.5050  -25.3320   -7.3310 C.3   245  GLU245      0.1160
    143  CD        -7.3970  -25.5760   -8.6010 C.2   245  GLU245      0.3649
    144  OE1       -8.2810  -24.7560   -8.9580 O.co2 245  GLU245     -0.2457
    145  OE2       -7.1790  -26.5870   -9.2340 O.co2 245  GLU245     -0.2457
    146  N         -2.9300  -20.7150   -5.4970 N.3   247  PHE247     -0.1241
    147  CA        -1.6810  -20.6920   -6.2360 C.3   247  PHE247      0.1605
    148  C         -1.0580  -19.3290   -5.9310 C.2   247  PHE247      0.2264
    149  O         -1.4400  -18.3050   -6.5050 O.2   247  PHE247     -0.2867
    150  CB        -1.8950  -20.8630   -7.7500 C.3   247  PHE247      0.0534
    151  CG        -2.4350  -22.2380   -8.1600 C.ar  247  PHE247     -0.0203
    152  CD1       -1.6000  -23.3470   -8.2220 C.ar  247  PHE247     -0.0042
    153  CD2       -3.7800  -22.4030   -8.5100 C.ar  247  PHE247     -0.0042
    154  CE1       -2.0900  -24.6130   -8.6320 C.ar  247  PHE247     -0.0003
    155  CE2       -4.2830  -23.6750   -8.9130 C.ar  247  PHE247     -0.0003
    156  CZ        -3.4250  -24.7730   -8.9700 C.ar  247  PHE247     -0.0000
    157  N         -0.3300  -21.6090  -14.3840 N.3   258  ILE258     -0.1245
    158  CA        -1.3330  -20.8330  -13.6750 C.3   258  ILE258      0.1561
    159  C         -1.1270  -19.3090  -13.9080 C.2   258  ILE258      0.2260
    160  O         -1.9910  -18.5030  -13.5910 O.2   258  ILE258     -0.2867
    161  CB        -1.2990  -21.1920  -12.1480 C.3   258  ILE258      0.0252
    162  CG1       -1.5570  -22.6970  -11.9700 C.3   258  ILE258      0.0019
    163  CG2       -2.3670  -20.4130  -11.3900 C.3   258  ILE258      0.0019
    164  CD1       -2.9480  -23.1770  -12.4390 C.3   258  ILE258      0.0001
@<TRIPOS>BOND
     1    58    59    1
     2    91    92    2
     3    91    90    1
     4    59    60    1
     5    59    62    1
     6    89    90    1
     7    90    93    1
     8    60    61    2
     9    56    55    2
    10    62    63    1
    11    57    54    1
    12    55    54    1
    13    93    94    1
    14    84    83    2
    15    63    64   ar
    16    63    65   ar
    17    64    66   ar
    18    54    53    1
    19    94    95    1
    20    44    43    2
    21    43    42    1
    22    87    86    1
    23    83    82    1
    24    85    86    1
    25    85    82    1
    26    40    38   ar
    27    40    39   ar
    28    65    68   ar
    29    65    67   ar
    30    66    67   ar
    31    86    88    1
    32    68    70   ar
    33    38    36   ar
    34    81    82    1
    35    42    41    1
    36    67    69   ar
    37    53    51   am
    38    75    74    2
    39    39    37   ar
    40    95    96   ar
    41    95    97   ar
    42    70    71   ar
    43    52    51    2
    44    51    50    1
    45    41    33   am
    46    69    71   ar
    47    36    37   ar
    48    36    35    1
    49    34    33    2
    50    74    73    1
    51    33    32    1
    52    72    73    1
    53    35    32    1
    54    73    76    1
    55   112   114   ar
    56   112   111   ar
    57   114   115   ar
    58    21    19   ar
    59    21    22   ar
    60   157   158    1
    61    50    49    1
    62    19    18   ar
    63    32    31    1
    64    76    77    1
    65   109   108    2
    66   159   158    1
    67   159   160    2
    68   111   110    1
    69   111   113   ar
    70   158   161    1
    71   115   113   ar
    72    77    78    1
    73   110   107    1
    74    49    47   am
    75    22    24   ar
    76    22    20   ar
    77    18    17    1
    78    18    20   ar
    79    79    78   ar
    80   108   107    1
    81    31    29   am
    82   107   106    1
    83    24    26   ar
    84    47    48    2
    85    47    46    1
    86    78    80   ar
    87    17    14    1
    88   164   162    1
    89    20    23   ar
    90   161   162    1
    91   161   163    1
    92    46    45    1
    93   136   134    1
    94    29    30    2
    95    29    28    1
    96    26    25   ar
    97    13    14    1
    98    14    15    1
    99    16    15    2
   100    23    25   ar
   101   134   133    2
   102   134   135    1
   103    28    27    1
   104   133   132    1
   105   102   103    1
   106   102    99    1
   107   101   100    2
   108   105   103   ar
   109    98    99    1
   110    12    11    1
   111   103   104   ar
   112    99   100    1
   113   145   143   ar
   114   132   131    1
   115   124   122   ar
   116   124   125   ar
   117   122   121   ar
   118   156   155   ar
   119   156   154   ar
   120   144   143   ar
   121   155   153   ar
   122   131   130    1
   123   154   152   ar
   124    11    10   ar
   125    11     9   ar
   126   143   142    1
   127   153   151   ar
   128    10     8   ar
   129   152   151   ar
   130   151   150    1
   131   125   123   ar
   132   121   120    1
   133   121   123   ar
   134   150   147    1
   135     9     7   ar
   136   120   117    1
   137   130   127    1
   138   142   141    1
   139     8     6   ar
   140   126   127    1
   141   116   117    1
   142   149   148    2
   143   127   128    1
   144     7     6   ar
   145   147   148    1
   146   147   146    1
   147   117   118    1
   148   141   138    1
   149     6     5    1
   150   119   118    2
   151   140   139    2
   152   128   129    2
   153   139   138    1
   154     5     2    1
   155   138   137    1
   156     2     3    1
   157     2     1    1
   158     3     4    2
