@<TRIPOS>MOLECULE
tmp/3vnoA01.pdb
 101 92 0 0 0
SMALL
GASTEIGER

@<TRIPOS>ATOM
      1  N        -22.6280   -7.5300   -0.8000 N.3     5  THR5       -0.1218
      2  CA       -24.0550   -7.5660   -0.4910 C.3     5  THR5        0.1862
      3  C        -24.3340   -7.8360    0.9910 C.2     5  THR5        0.2287
      4  O        -25.1230   -7.1200    1.6150 O.2     5  THR5       -0.2866
      5  CB       -24.8100   -8.5840   -1.3780 C.3     5  THR5        0.1770
      6  OG1      -24.4400   -8.3930   -2.7500 O.3     5  THR5       -0.2211
      7  CG2      -26.3220   -8.4120   -1.2360 C.3     5  THR5        0.0375
      8  N        -23.4800   -4.8890    3.2240 N.3     8  LEU8       -0.1231
      9  CA       -24.5210   -3.8760    3.1130 C.3     8  LEU8        0.1693
     10  C        -25.7510   -4.2640    3.9400 C.2     8  LEU8        0.2591
     11  O        -26.2310   -3.4630    4.7390 O.2     8  LEU8       -0.2718
     12  CB       -24.8910   -3.6200    1.6420 C.3     8  LEU8        0.0284
     13  CG       -25.9520   -2.5630    1.3300 C.3     8  LEU8        0.0019
     14  CD1      -25.5430   -1.1690    1.8170 C.3     8  LEU8        0.0001
     15  CD2      -26.2470   -2.5410   -0.1570 C.3     8  LEU8        0.0001
     16  N        -26.2310   -5.4950    3.7530 N.am    9  LEU9       -0.1980
     17  CA       -27.3690   -6.0500    4.5030 C.3     9  LEU9        0.1596
     18  C        -27.1220   -6.0980    6.0220 C.2     9  LEU9        0.2287
     19  O        -28.0600   -5.9740    6.8160 O.2     9  LEU9       -0.2864
     20  CB       -27.7150   -7.4560    3.9790 C.3     9  LEU9        0.0297
     21  CG       -28.8010   -7.6510    2.9040 C.3     9  LEU9        0.0022
     22  CD1      -28.5190   -6.9100    1.5990 C.3     9  LEU9        0.0001
     23  CD2      -29.0390   -9.1360    2.6160 C.3     9  LEU9        0.0001
     24  N        -23.0630   -5.0430   -5.5850 N.3    32  PHE32      -0.1227
     25  CA       -24.1550   -5.6810   -4.8540 C.3    32  PHE32       0.1736
     26  C        -24.9240   -6.5670   -5.8250 C.2    32  PHE32       0.2595
     27  O        -25.2680   -6.1310   -6.9270 O.2    32  PHE32      -0.2718
     28  CB       -25.0830   -4.6450   -4.2110 C.3    32  PHE32       0.0547
     29  CG       -24.3590   -3.5780   -3.4260 C.ar   32  PHE32      -0.0202
     30  CD1      -23.5490   -3.9160   -2.3400 C.ar   32  PHE32      -0.0042
     31  CD2      -24.5060   -2.2330   -3.7610 C.ar   32  PHE32      -0.0042
     32  CE1      -22.8820   -2.9360   -1.6110 C.ar   32  PHE32      -0.0003
     33  CE2      -23.8440   -1.2410   -3.0380 C.ar   32  PHE32      -0.0003
     34  CZ       -23.0260   -1.5950   -1.9590 C.ar   32  PHE32      -0.0000
     35  N        -25.1780   -7.8090   -5.4090 N.am   33  LEU33      -0.1980
     36  CA       -25.6730   -8.8590   -6.3010 C.3    33  LEU33       0.1596
     37  C        -24.6860   -9.0420   -7.4600 C.2    33  LEU33       0.2287
     38  O        -23.5000   -9.2740   -7.2300 O.2    33  LEU33      -0.2864
     39  CB       -27.0920   -8.5520   -6.7900 C.3    33  LEU33       0.0297
     40  CG       -28.3310   -8.8420   -5.9180 C.3    33  LEU33       0.0022
     41  CD1      -28.0470   -9.0500   -4.4250 C.3    33  LEU33       0.0001
     42  CD2      -29.3720   -7.7580   -6.1180 C.3    33  LEU33       0.0001
     43  N        -24.1970   -6.6480   -9.9160 N.3    35  LYS35      -0.1245
     44  CA       -23.8990   -5.3590  -10.5320 C.3    35  LYS35       0.1561
     45  C        -22.8700   -4.5030   -9.7900 C.2    35  LYS35       0.2260
     46  O        -23.0040   -4.2450   -8.5890 O.2    35  LYS35      -0.2867
     47  CB       -25.1930   -4.5440  -10.6760 C.3    35  LYS35       0.0271
     48  CG       -26.3600   -5.2750  -11.3330 C.3    35  LYS35       0.0035
     49  CD       -27.5720   -4.3560  -11.4630 C.3    35  LYS35       0.0206
     50  CE       -28.7650   -5.0650  -12.1300 C.3    35  LYS35       0.1093
     51  NZ       -28.3950   -5.7750  -13.3970 N.3    35  LYS35      -0.1314
     52  N        -21.6370   -1.1470   -8.5640 N.3    37  THR37      -0.1218
     53  CA       -22.4390   -0.0430   -8.0510 C.3    37  THR37       0.1862
     54  C        -21.5610    1.1260   -7.6060 C.2    37  THR37       0.2287
     55  O        -20.6050    0.9410   -6.8570 O.2    37  THR37      -0.2866
     56  CB       -23.3120   -0.4960   -6.8510 C.3    37  THR37       0.1770
     57  OG1      -24.1190   -1.6140   -7.2290 O.3    37  THR37      -0.2211
     58  CG2      -24.2230    0.6260   -6.3740 C.3    37  THR37       0.0375
     59  N        -33.8140    0.0340  -12.5370 N.3    60  ALA60      -0.1245
     60  CA       -33.1470    0.1340  -11.2410 C.3    60  ALA60       0.1562
     61  C        -33.7480   -0.7250  -10.1330 C.2    60  ALA60       0.2260
     62  O        -33.0240   -1.2300   -9.2750 O.2    60  ALA60      -0.2867
     63  CB       -33.0740    1.6040  -10.7980 C.3    60  ALA60       0.0290
     64  N        -35.0680   -3.3640   -7.8600 N.3    62  PRO62      -0.2116
     65  CA       -34.8270   -4.7950   -7.6000 C.3    62  PRO62       0.1372
     66  C        -36.1570   -5.5430   -7.4590 C.2    62  PRO62       0.2244
     67  O        -36.9430   -5.2570   -6.5490 O.2    62  PRO62      -0.2868
     68  CB       -34.0430   -4.7990   -6.2770 C.3    62  PRO62       0.0268
     69  CG       -33.5340   -3.4010   -6.1200 C.3    62  PRO62       0.0207
     70  CD       -34.5680   -2.5180   -6.7600 C.3    62  PRO62       0.0892
     71  N        -38.4270   -6.2290   -4.4950 N.3    65  ILE65      -0.1245
     72  CA       -38.9970   -5.0870   -3.7950 C.3    65  ILE65       0.1561
     73  C        -40.3990   -4.7790   -4.3600 C.2    65  ILE65       0.2260
     74  O        -41.2960   -4.3630   -3.6200 O.2    65  ILE65      -0.2867
     75  CB       -38.0110   -3.8630   -3.8160 C.3    65  ILE65       0.0252
     76  CG1      -37.0100   -3.9410   -2.6490 C.3    65  ILE65       0.0019
     77  CG2      -38.7450   -2.5380   -3.7340 C.3    65  ILE65       0.0019
     78  CD1      -35.9130   -5.0110   -2.7940 C.3    65  ILE65       0.0001
     79  N        -32.0550    4.1160   -5.3310 N.3   284  VAL284     -0.1245
     80  CA       -31.2640    3.5630   -6.4230 C.3   284  VAL284      0.1561
     81  C        -31.7260    4.0820   -7.7960 C.2   284  VAL284      0.2260
     82  O        -32.9100    4.2970   -8.0270 O.2   284  VAL284     -0.2867
     83  CB       -31.1870    2.0010   -6.3220 C.3   284  VAL284      0.0252
     84  CG1      -32.5650    1.4090   -6.1750 C.3   284  VAL284      0.0019
     85  CG2      -30.4610    1.3830   -7.5180 C.3   284  VAL284      0.0019
     86  N        -25.4900    1.0020  -12.0990 N.3   303  GLN303     -0.1245
     87  CA       -26.3230    1.1960  -10.9170 C.3   303  GLN303      0.1566
     88  C        -25.6240    2.1330   -9.9340 C.2   303  GLN303      0.2260
     89  O        -24.4160    2.0130   -9.6780 O.2   303  GLN303     -0.2867
     90  CB       -26.6070   -0.1360  -10.2220 C.3   303  GLN303      0.0367
     91  CG       -28.0210   -0.6990  -10.3900 C.3   303  GLN303      0.0905
     92  CD       -28.4980   -0.7700  -11.8420 C.2   303  GLN303      0.2608
     93  OE1      -27.7050   -1.0020  -12.7770 O.2   303  GLN303     -0.2717
     94  NE2      -29.7990   -0.5850  -12.0350 N.am  303  GLN303     -0.0878
     95  N        -26.1910    4.1190   -6.0950 N.3   305  VAL305     -0.1245
     96  CA       -26.9570    4.2150   -4.8520 C.3   305  VAL305      0.1561
     97  C        -26.6370    5.5490   -4.1560 C.2   305  VAL305      0.2260
     98  O        -25.4660    5.8890   -3.9370 O.2   305  VAL305     -0.2867
     99  CB       -26.6590    3.0160   -3.9220 C.3   305  VAL305      0.0252
    100  CG1      -27.4170    3.1350   -2.6130 C.3   305  VAL305      0.0019
    101  CG2      -27.0510    1.6960   -4.5950 C.3   305  VAL305      0.0019
@<TRIPOS>BOND
     1    51    50    1
     2    93    92    2
     3    59    60    1
     4    50    49    1
     5    86    87    1
     6    94    92   am
     7    92    91    1
     8    49    48    1
     9    48    47    1
    10    60    63    1
    11    60    61    1
    12    87    90    1
    13    87    88    1
    14    47    44    1
    15    44    43    1
    16    44    45    1
    17    91    90    1
    18    61    62    2
    19    88    89    2
    20    45    46    2
    21    52    53    1
    22    53    54    1
    23    53    56    1
    24    82    81    2
    25    64    65    1
    26    64    70    1
    27    81    80    1
    28    54    55    2
    29    65    66    1
    30    65    68    1
    31    85    83    1
    32    37    38    2
    33    37    36    1
    34    66    67    2
    35    57    56    1
    36    27    26    2
    37    56    58    1
    38    39    36    1
    39    39    40    1
    40    70    69    1
    41    80    83    1
    42    80    79    1
    43    83    84    1
    44    36    35    1
    45    68    69    1
    46    42    40    1
    47    95    96    1
    48    40    41    1
    49    26    35   am
    50    26    25    1
    51    24    25    1
    52    25    28    1
    53    96    97    1
    54    96    99    1
    55   101    99    1
    56    71    72    1
    57    73    72    1
    58    73    74    2
    59    28    29    1
    60    97    98    2
    61    99   100    1
    62    75    72    1
    63    75    77    1
    64    75    76    1
    65    31    29   ar
    66    31    33   ar
    67    29    30   ar
    68    33    34   ar
    69    78    76    1
    70     6     5    1
    71    30    32   ar
    72    34    32   ar
    73     5     7    1
    74     5     2    1
    75     1     2    1
    76     2     3    1
    77    15    13    1
    78     3     4    2
    79    13    12    1
    80    13    14    1
    81    22    21    1
    82    12     9    1
    83    23    21    1
    84    21    20    1
    85     9     8    1
    86     9    10    1
    87    16    10   am
    88    16    17    1
    89    10    11    2
    90    20    17    1
    91    17    18    1
    92    18    19    2
