@<TRIPOS>MOLECULE
tmp/3vnoA00.pdb
 230 222 0 0 0
SMALL
GASTEIGER

@<TRIPOS>ATOM
      1  N        -30.2220   13.4180   -8.8550 N.3    50  TYR50      -0.1241
      2  CA       -31.5300   13.9230   -9.2600 C.3    50  TYR50       0.1605
      3  C        -31.5500   14.6010  -10.6240 C.2    50  TYR50       0.2264
      4  O        -32.5870   15.1080  -11.0550 O.2    50  TYR50      -0.2867
      5  CB       -32.1300   14.8130   -8.1580 C.3    50  TYR50       0.0534
      6  CG       -32.6340   13.9360   -7.0370 C.ar   50  TYR50      -0.0201
      7  CD1      -33.8280   13.2100   -7.1910 C.ar   50  TYR50      -0.0009
      8  CD2      -31.9040   13.7670   -5.8640 C.ar   50  TYR50      -0.0009
      9  CE1      -34.2920   12.3670   -6.1900 C.ar   50  TYR50       0.0417
     10  CE2      -32.3700   12.9000   -4.8400 C.ar   50  TYR50       0.0417
     11  CZ       -33.5690   12.2260   -5.0070 C.ar   50  TYR50       0.1957
     12  OH       -34.0570   11.3650   -4.0260 O.3    50  TYR50      -0.2866
     13  N        -34.8740    5.6980  -13.5080 N.3    57  ARG57      -0.1245
     14  CA       -35.3000    4.7070  -12.5170 C.3    57  ARG57       0.1563
     15  C        -35.7720    3.4110  -13.1490 C.2    57  ARG57       0.2260
     16  O        -35.8290    2.3970  -12.4930 O.2    57  ARG57      -0.2867
     17  CB       -36.3920    5.2520  -11.5990 C.3    57  ARG57       0.0307
     18  CG       -36.0040    6.5830  -10.8830 C.3    57  ARG57       0.0489
     19  CD       -34.6570    6.5000  -10.1330 C.3    57  ARG57       0.2205
     20  NE       -34.3960    7.7260   -9.3990 N.pl3  57  ARG57      -0.0865
     21  CZ       -34.9200    8.0320   -8.2100 C.cat  57  ARG57       0.5346
     22  NH1      -35.7340    7.1800   -7.5880 N.pl3  57  ARG57       0.1354
     23  NH2      -34.6160    9.1960   -7.6460 N.pl3  57  ARG57       0.1354
     24  N        -45.5180    4.6810   -9.7930 N.3    75  VAL75      -0.1231
     25  CA       -44.7760    5.9110  -10.1290 C.3    75  VAL75       0.1692
     26  C        -43.2450    5.8020   -9.9490 C.2    75  VAL75       0.2591
     27  O        -42.5030    6.4230  -10.6990 O.2    75  VAL75      -0.2718
     28  CB       -45.3490    7.1100   -9.3490 C.3    75  VAL75       0.0266
     29  CG1      -45.1330    6.9600   -7.8320 C.3    75  VAL75       0.0020
     30  CG2      -44.7960    8.4520   -9.8830 C.3    75  VAL75       0.0020
     31  N        -42.7760    4.9900   -8.9910 N.am   76  GLN76      -0.1979
     32  CA       -41.3210    4.8470   -8.7040 C.3    76  GLN76       0.1601
     33  C        -40.4980    4.2700   -9.8720 C.2    76  GLN76       0.2287
     34  O        -39.2950    4.5560   -9.9880 O.2    76  GLN76      -0.2864
     35  CB       -41.0670    3.9570   -7.4650 C.3    76  GLN76       0.0394
     36  CG       -41.6610    4.5110   -6.1500 C.3    76  GLN76       0.0908
     37  CD       -43.0870    4.0320   -5.8730 C.2    76  GLN76       0.2608
     38  OE1      -43.7930    3.5700   -6.7820 O.2    76  GLN76      -0.2717
     39  NE2      -43.5180    4.1410   -4.6130 N.am   76  GLN76      -0.0878
     40  N        -43.4350    9.7460  -16.1790 N.3    83  HIS83      -0.1241
     41  CA       -43.2940    9.9330  -14.7330 C.3    83  HIS83       0.1621
     42  C        -43.9320   11.2570  -14.2650 C.2    83  HIS83       0.2264
     43  O        -44.6840   11.2850  -13.2910 O.2    83  HIS83      -0.2867
     44  CB       -41.8230   10.0230  -14.3110 C.3    83  HIS83       0.0745
     45  CG       -41.6790   10.3990  -12.8740 C.ar   83  HIS83       0.0817
     46  ND1      -41.3910   11.6810  -12.4690 N.ar   83  HIS83      -0.2268
     47  CD2      -41.9340    9.6930  -11.7400 C.ar   83  HIS83       0.1154
     48  CE1      -41.4000   11.7420  -11.1470 C.ar   83  HIS83       0.1986
     49  NE2      -41.7290   10.5490  -10.6760 N.ar   83  HIS83      -0.2212
     50  N        -46.7140   11.6310  -11.4940 N.3    87  LYS87      -0.1245
     51  CA       -46.3530   12.2800  -10.2330 C.3    87  LYS87       0.1561
     52  C        -47.3170   13.4150   -9.8910 C.2    87  LYS87       0.2260
     53  O        -47.6380   13.6380   -8.7150 O.2    87  LYS87      -0.2867
     54  CB       -44.9060   12.8170  -10.2930 C.3    87  LYS87       0.0271
     55  CG       -44.3900   13.4750   -8.9920 C.3    87  LYS87       0.0035
     56  CD       -44.4700   12.5130   -7.7580 C.3    87  LYS87       0.0206
     57  CE       -43.6020   13.0290   -6.5970 C.3    87  LYS87       0.1093
     58  NZ       -42.1520   12.7710   -6.8810 N.3    87  LYS87      -0.1314
     59  N        -50.2020   12.4100   -7.7330 N.3    90  PHE90      -0.1241
     60  CA       -49.9420   12.3880   -6.2900 C.3    90  PHE90       0.1605
     61  C        -49.8590   13.8020   -5.6980 C.2    90  PHE90       0.2264
     62  O        -50.3880   14.0420   -4.6210 O.2    90  PHE90      -0.2867
     63  CB       -48.6690   11.6190   -5.9810 C.3    90  PHE90       0.0534
     64  CG       -48.7900   10.1160   -6.1760 C.ar   90  PHE90      -0.0203
     65  CD1      -49.2560    9.3030   -5.1500 C.ar   90  PHE90      -0.0042
     66  CD2      -48.4170    9.5230   -7.3870 C.ar   90  PHE90      -0.0042
     67  CE1      -49.3480    7.9030   -5.3110 C.ar   90  PHE90      -0.0003
     68  CE2      -48.4980    8.1220   -7.5710 C.ar   90  PHE90      -0.0003
     69  CZ       -48.9620    7.3140   -6.5300 C.ar   90  PHE90      -0.0000
     70  N        -52.0480   16.8110   -2.2280 N.3    94  MET94      -0.1245
     71  CA       -51.3230   17.3790   -1.0840 C.3    94  MET94       0.1570
     72  C        -51.5490   18.8820   -0.8570 C.2    94  MET94       0.2261
     73  O        -50.6050   19.6350   -0.6090 O.2    94  MET94      -0.2867
     74  CB       -49.8150   17.1000   -1.2350 C.3    94  MET94       0.0387
     75  CG       -49.4670   15.6460   -1.6090 C.3    94  MET94       0.0595
     76  SD       -50.2420   14.5080   -0.4380 S.3    94  MET94      -0.1393
     77  CE       -49.6540   12.9340   -1.0330 C.3    94  MET94       0.0692
     78  N        -49.5990    3.0170   -2.7410 N.3   230  ASN230     -0.1225
     79  CA       -48.5290    3.9980   -2.6060 C.3   230  ASN230      0.1785
     80  C        -48.9590    5.2350   -1.7580 C.2   230  ASN230      0.2597
     81  O        -48.1070    6.0240   -1.4120 O.2   230  ASN230     -0.2718
     82  CB       -48.0480    4.4860   -3.9870 C.3   230  ASN230      0.1169
     83  CG       -46.8550    3.7050   -4.5240 C.2   230  ASN230      0.2627
     84  OD1      -46.0210    3.1980   -3.7670 O.2   230  ASN230     -0.2716
     85  ND2      -46.7640    3.6070   -5.8500 N.am  230  ASN230     -0.0877
     86  N        -50.2550    5.4050   -1.4640 N.am  231  VAL231     -0.1980
     87  CA       -50.7180    6.4080   -0.4770 C.3   231  VAL231      0.1595
     88  C        -50.9530    5.7480    0.8980 C.2   231  VAL231      0.2287
     89  O        -50.5410    6.2810    1.9340 O.2   231  VAL231     -0.2864
     90  CB       -52.0490    7.0910   -0.9300 C.3   231  VAL231      0.0276
     91  CG1      -52.6030    8.0300    0.1690 C.3   231  VAL231      0.0022
     92  CG2      -51.8610    7.8830   -2.2820 C.3   231  VAL231      0.0022
     93  N        -47.3100    3.9660    2.7760 N.3   234  PRO234     -0.2102
     94  CA       -46.3250    4.8140    3.4300 C.3   234  PRO234      0.1504
     95  C        -46.9350    5.7030    4.5100 C.2   234  PRO234      0.2576
     96  O        -46.2240    6.0880    5.4280 O.2   234  PRO234     -0.2718
     97  CB       -45.7400    5.6500    2.2820 C.3   234  PRO234      0.0282
     98  CG       -46.8010    5.6100    1.2220 C.3   234  PRO234      0.0208
     99  CD       -47.4550    4.2830    1.3400 C.3   234  PRO234      0.0893
    100  N        -48.2360    5.9770    4.4540 N.am  235  THR235     -0.1953
    101  CA       -48.8670    6.6990    5.5660 C.3   235  THR235      0.1897
    102  C        -48.8450    5.8800    6.8540 C.2   235  THR235      0.2313
    103  O        -48.5210    6.3990    7.9320 O.2   235  THR235     -0.2863
    104  CB       -50.2990    7.1670    5.2290 C.3   235  THR235      0.1794
    105  OG1      -50.2490    7.9990    4.0640 O.3   235  THR235     -0.2208
    106  CG2      -50.8950    7.9790    6.3940 C.3   235  THR235      0.0378
    107  N        -46.6190    3.6870    7.4770 N.3   237  ALA237     -0.1231
    108  CA       -45.1850    3.6710    7.8490 C.3   237  ALA237      0.1694
    109  C        -44.7380    4.8730    8.7280 C.2   237  ALA237      0.2591
    110  O        -43.6650    4.8430    9.3390 O.2   237  ALA237     -0.2718
    111  CB       -44.2920    3.5540    6.5870 C.3   237  ALA237      0.0304
    112  N        -45.5750    5.9050    8.8190 N.am  238  ILE238     -0.1980
    113  CA       -45.2860    7.0360    9.7190 C.3   238  ILE238      0.1595
    114  C        -45.2230    6.5640   11.1820 C.2   238  ILE238      0.2287
    115  O        -44.7250    7.2840   12.0460 O.2   238  ILE238     -0.2864
    116  CB       -46.2890    8.2010    9.5210 C.3   238  ILE238      0.0276
    117  CG1      -46.2410    8.6980    8.0620 C.3   238  ILE238      0.0022
    118  CG2      -45.9510    9.4070   10.4360 C.3   238  ILE238      0.0022
    119  CD1      -47.4200    9.5620    7.6620 C.3   238  ILE238      0.0001
    120  N        -41.6610    6.9390   12.3770 N.3   241  TYR241     -0.1241
    121  CA       -41.2870    8.3080   12.8070 C.3   241  TYR241      0.1605
    122  C        -41.9580    8.7160   14.1090 C.2   241  TYR241      0.2264
    123  O        -41.3520    9.4400   14.9070 O.2   241  TYR241     -0.2867
    124  CB       -41.5970    9.3760   11.7440 C.3   241  TYR241      0.0534
    125  CG       -40.4980    9.6100   10.7240 C.ar  241  TYR241     -0.0201
    126  CD1      -39.1350    9.6490   11.1110 C.ar  241  TYR241     -0.0009
    127  CD2      -40.8160    9.8480    9.3680 C.ar  241  TYR241     -0.0009
    128  CE1      -38.1170    9.8720   10.1700 C.ar  241  TYR241      0.0417
    129  CE2      -39.8080   10.0960    8.4250 C.ar  241  TYR241      0.0417
    130  CZ       -38.4630   10.1030    8.8340 C.ar  241  TYR241      0.1957
    131  OH       -37.4760   10.3190    7.8950 O.3   241  TYR241     -0.2866
    132  N        -34.2920    5.9280    8.6490 N.3   279  PHE279     -0.1227
    133  CA       -35.5690    5.3670    8.2140 C.3   279  PHE279      0.1736
    134  C        -35.4140    4.7270    6.8190 C.2   279  PHE279      0.2595
    135  O        -35.3430    3.5010    6.6990 O.2   279  PHE279     -0.2718
    136  CB       -36.6920    6.4330    8.2620 C.3   279  PHE279      0.0547
    137  CG       -38.1100    5.8630    8.1450 C.ar  279  PHE279     -0.0202
    138  CD1      -38.3590    4.6450    7.5230 C.ar  279  PHE279     -0.0042
    139  CD2      -39.1940    6.5890    8.6340 C.ar  279  PHE279     -0.0042
    140  CE1      -39.6770    4.1520    7.3990 C.ar  279  PHE279     -0.0003
    141  CE2      -40.5050    6.1050    8.5280 C.ar  279  PHE279     -0.0003
    142  CZ       -40.7550    4.8960    7.9170 C.ar  279  PHE279     -0.0000
    143  N        -35.3560    5.5630    5.7790 N.am  280  PHE280     -0.1976
    144  CA       -35.1030    5.0880    4.4330 C.3   280  PHE280      0.1639
    145  C        -33.6050    5.1240    4.1720 C.2   280  PHE280      0.2290
    146  O        -32.9980    6.1910    4.1990 O.2   280  PHE280     -0.2864
    147  CB       -35.8400    5.9550    3.4210 C.3   280  PHE280      0.0560
    148  CG       -36.1820    5.2360    2.1610 C.ar  280  PHE280     -0.0200
    149  CD1      -35.1910    4.8980    1.2390 C.ar  280  PHE280     -0.0042
    150  CD2      -37.4930    4.8930    1.8970 C.ar  280  PHE280     -0.0042
    151  CE1      -35.5020    4.2090    0.0750 C.ar  280  PHE280     -0.0003
    152  CE2      -37.8210    4.2080    0.7200 C.ar  280  PHE280     -0.0003
    153  CZ       -36.8100    3.8730   -0.1940 C.ar  280  PHE280     -0.0000
    154  N        -31.5070    5.2730   -2.0150 N.3   283  VAL283     -0.1245
    155  CA       -32.3440    5.2290   -3.2050 C.3   283  VAL283      0.1561
    156  C        -31.4600    4.7800   -4.3460 C.2   283  VAL283      0.2260
    157  O        -30.2570    5.0400   -4.3400 O.2   283  VAL283     -0.2867
    158  CB       -32.9530    6.6320   -3.4980 C.3   283  VAL283      0.0252
    159  CG1      -33.6300    6.6700   -4.8610 C.3   283  VAL283      0.0019
    160  CG2      -33.9580    6.9940   -2.4050 C.3   283  VAL283      0.0019
    161  N        -28.9570    8.1580    1.7900 N.3   308  LEU308     -0.1245
    162  CA       -29.7480    9.2170    2.4320 C.3   308  LEU308      0.1561
    163  C        -29.3110    9.4720    3.8630 C.2   308  LEU308      0.2260
    164  O        -29.1470   10.6150    4.2570 O.2   308  LEU308     -0.2867
    165  CB       -31.2570    8.8960    2.3930 C.3   308  LEU308      0.0270
    166  CG       -31.8910    8.6420    1.0140 C.3   308  LEU308      0.0019
    167  CD1      -33.3960    8.3360    1.1320 C.3   308  LEU308      0.0001
    168  CD2      -31.6520    9.7920   -0.0010 C.3   308  LEU308      0.0001
    169  N        -34.2230   13.1120    3.8400 N.3   341  PRO341     -0.2102
    170  CA       -34.7210   11.8860    4.4850 C.3   341  PRO341      0.1504
    171  C        -35.7680   11.1550    3.6220 C.2   341  PRO341      0.2576
    172  O        -35.9880    9.9430    3.7860 O.2   341  PRO341     -0.2718
    173  CB       -35.3560   12.4030    5.7810 C.3   341  PRO341      0.0282
    174  CG       -35.7450   13.8150    5.4810 C.3   341  PRO341      0.0208
    175  CD       -34.6180   14.3200    4.6000 C.3   341  PRO341      0.0893
    176  N        -36.3840   11.8840    2.6960 N.am  342  GLN342     -0.1966
    177  CA       -37.4260   11.3220    1.8430 C.3   342  GLN342      0.1733
    178  C        -37.1600   11.7270    0.3910 C.2   342  GLN342      0.2616
    179  O        -38.0910   11.9900   -0.3970 O.2   342  GLN342     -0.2715
    180  CB       -38.7860   11.8110    2.3470 C.3   342  GLN342      0.0408
    181  CG       -39.0440   11.4140    3.8330 C.3   342  GLN342      0.0908
    182  CD       -40.4580   11.7240    4.2750 C.2   342  GLN342      0.2608
    183  OE1      -40.6680   12.2640    5.3570 O.2   342  GLN342     -0.2717
    184  NE2      -41.4410   11.3960    3.4290 N.am  342  GLN342     -0.0878
    185  N        -35.8680   11.7750    0.0510 N.am  343  GLY343     -0.1955
    186  CA       -35.4330   12.1560   -1.2730 C.3   343  GLY343      0.1869
    187  C        -35.0770   13.6260   -1.3910 C.2   343  GLY343      0.2309
    188  O        -35.3810   14.4420   -0.5070 O.2   343  GLY343     -0.2863
    189  N        -38.2220   12.1770   -8.4010 N.3   351  HIS351     -0.1241
    190  CA       -38.9100   11.1550   -7.6140 C.3   351  HIS351      0.1621
    191  C        -39.0440   11.4790   -6.1070 C.2   351  HIS351      0.2264
    192  O        -39.4330   10.6080   -5.3150 O.2   351  HIS351     -0.2867
    193  CB       -38.2120    9.8120   -7.8250 C.3   351  HIS351      0.0745
    194  CG       -38.4340    9.2540   -9.1990 C.ar  351  HIS351      0.0817
    195  ND1      -39.4310    8.3490   -9.4730 N.ar  351  HIS351     -0.2268
    196  CD2      -37.8510    9.5500  -10.3880 C.ar  351  HIS351      0.1154
    197  CE1      -39.4220    8.0650  -10.7660 C.ar  351  HIS351      0.1986
    198  NE2      -38.4670    8.7800  -11.3440 N.ar  351  HIS351     -0.2212
    199  N        -40.1560   12.2120   -2.5610 N.3   353  CYS353     -0.1221
    200  CA       -41.4060   11.8420   -1.8780 C.3   353  CYS353      0.1794
    201  C        -42.4940   12.9150   -1.8350 C.2   353  CYS353      0.2443
    202  O        -42.2690   14.0040   -1.3090 O.2   353  CYS353     -0.2733
    203  CB       -41.0730   11.4670   -0.4510 C.3   353  CYS353      0.0970
    204  SG       -42.4710   10.8510    0.4590 S.3   353  CYS353     -0.0800
    205  N        -43.6900   12.6110   -2.3550 N.am  354  PRO354     -0.2718
    206  CA       -44.7820   13.5840   -2.2830 C.3   354  PRO354      0.1535
    207  C        -45.4720   13.5210   -0.9110 C.2   354  PRO354      0.2599
    208  O        -46.3220   14.3700   -0.6180 O.2   354  PRO354     -0.2715
    209  CB       -45.7540   13.0780   -3.3530 C.3   354  PRO354      0.0310
    210  CG       -45.6030   11.5860   -3.2480 C.3   354  PRO354      0.0237
    211  CD       -44.0930   11.4090   -3.1180 C.3   354  PRO354      0.0939
    212  N        -45.1140   12.5120   -0.1080 N.am  355  GLY355     -0.1955
    213  CA       -45.6470   12.3710    1.2440 C.3   355  GLY355      0.1869
    214  C        -45.1020   13.2730    2.3560 C.2   355  GLY355      0.2309
    215  O        -45.5560   13.1470    3.4980 O.2   355  GLY355     -0.2863
    216  N        -47.5770   15.3470    4.5720 N.3   358  ILE358     -0.1231
    217  CA       -48.3310   14.4600    5.4440 C.3   358  ILE358      0.1692
    218  C        -47.4640   13.9940    6.6120 C.2   358  ILE358      0.2591
    219  O        -47.8880   14.0250    7.7690 O.2   358  ILE358     -0.2718
    220  CB       -48.8840   13.2310    4.6310 C.3   358  ILE358      0.0266
    221  CG1      -50.0300   13.6750    3.7140 C.3   358  ILE358      0.0019
    222  CG2      -49.2670   12.0410    5.5730 C.3   358  ILE358      0.0020
    223  CD1      -50.4500   12.5810    2.6510 C.3   358  ILE358      0.0001
    224  N        -46.2460   13.5520    6.3100 N.am  359  VAL359     -0.1980
    225  CA       -45.3410   13.0880    7.3520 C.3   359  VAL359      0.1595
    226  C        -45.1230   14.1900    8.3990 C.2   359  VAL359      0.2287
    227  O        -45.2010   13.9130    9.6000 O.2   359  VAL359     -0.2864
    228  CB       -43.9620   12.6490    6.7770 C.3   359  VAL359      0.0276
    229  CG1      -42.9540   12.4520    7.8970 C.3   359  VAL359      0.0022
    230  CG2      -44.1030   11.3890    5.9550 C.3   359  VAL359      0.0022
@<TRIPOS>BOND
     1    40    41    1
     2    41    44    1
     3    41    42    1
     4    44    45    1
     5    42    43    2
     6    13    14    1
     7    15    14    1
     8    15    16    2
     9    45    46   ar
    10    45    47   ar
    11    14    17    1
    12    46    48   ar
    13    47    49   ar
    14    17    18    1
    15    50    51    1
    16   198   197   ar
    17   198   196   ar
    18    48    49   ar
    19     4     3    2
    20    18    19    1
    21   197   195   ar
    22    27    26    2
    23     3     2    1
    24   196   194   ar
    25    54    51    1
    26    54    55    1
    27    51    52    1
    28    19    20    1
    29    25    26    1
    30    25    24    1
    31    25    28    1
    32    34    33    2
    33    26    31   am
    34    52    53    2
    35    30    28    1
    36    33    32    1
    37   195   194   ar
    38    20    21    2
    39    28    29    1
    40     2     1    1
    41     2     5    1
    42   194   193    1
    43    55    56    1
    44    31    32    1
    45    32    35    1
    46   189   190    1
    47    21    23    1
    48    21    22    1
    49     5     6    1
    50   193   190    1
    51    56    57    1
    52    59    60    1
    53   190   191    1
    54    68    66   ar
    55    68    69   ar
    56    35    36    1
    57    66    64   ar
    58     7     6   ar
    59     7     9   ar
    60     6     8   ar
    61    58    57    1
    62    38    37    2
    63    69    67   ar
    64    60    63    1
    65    60    61    1
    66     9    11   ar
    67    64    63    1
    68    64    65   ar
    69    36    37    1
    70   191   192    2
    71    37    39   am
    72     8    10   ar
    73    85    83   am
    74    61    62    2
    75    67    65   ar
    76    11    10   ar
    77    11    12    1
    78   159   158    1
    79    83    82    1
    80    83    84    2
    81   156   157    2
    82   156   155    1
    83    82    79    1
    84   158   155    1
    85   158   160    1
    86   209   210    1
    87   209   206    1
    88   210   211    1
    89   155   154    1
    90   211   205    1
    91    78    79    1
    92    79    80    1
    93   199   200    1
    94   205   206    1
    95   205   201   am
    96   206   207    1
    97    92    90    1
    98    70    71    1
    99   200   201    1
   100   200   203    1
   101   201   202    2
   102    80    86   am
   103    80    81    2
   104    75    74    1
   105    75    76    1
   106    86    87    1
   107   187   186    1
   108   187   188    2
   109   186   185    1
   110    74    71    1
   111    71    72    1
   112    77    76    1
   113    90    87    1
   114    90    91    1
   115   207   208    2
   116   207   212   am
   117    72    73    2
   118    87    88    1
   119   203   204    1
   120   179   178    2
   121   153   151   ar
   122   153   152   ar
   123   212   213    1
   124   168   166    1
   125   185   178   am
   126   151   149   ar
   127   178   177    1
   128   152   150   ar
   129    88    89    2
   130   166   167    1
   131   166   165    1
   132    98    99    1
   133    98    97    1
   134   149   148   ar
   135   213   214    1
   136    99    93    1
   137   161   162    1
   138   177   180    1
   139   177   176    1
   140   150   148   ar
   141   148   147    1
   142    97    94    1
   143   180   181    1
   144   214   215    2
   145   165   162    1
   146   162   163    1
   147   223   221    1
   148   176   171   am
   149    93    94    1
   150   147   144    1
   151   184   182   am
   152    94    95    1
   153   171   172    2
   154   171   170    1
   155   221   220    1
   156   181   182    1
   157   169   170    1
   158   169   175    1
   159   163   164    2
   160   105   104    1
   161   145   146    2
   162   145   144    1
   163   182   183    2
   164   144   143    1
   165   100    95   am
   166   100   101    1
   167   170   173    1
   168    95    96    2
   169   216   217    1
   170   175   174    1
   171   220   217    1
   172   220   222    1
   173   104   101    1
   174   104   106    1
   175   217   218    1
   176   174   173    1
   177   101   102    1
   178   143   134   am
   179   230   228    1
   180   224   218   am
   181   224   225    1
   182   111   108    1
   183   218   219    2
   184   135   134    2
   185   228   225    1
   186   228   229    1
   187   134   133    1
   188   102   103    2
   189   225   226    1
   190   140   138   ar
   191   140   142   ar
   192   107   108    1
   193   138   137   ar
   194   119   117    1
   195   108   109    1
   196   131   130    1
   197   142   141   ar
   198   117   116    1
   199   137   136    1
   200   137   139   ar
   201   133   136    1
   202   133   132    1
   203   226   227    2
   204   129   130   ar
   205   129   127   ar
   206   141   139   ar
   207   109   112   am
   208   109   110    2
   209   112   113    1
   210   130   128   ar
   211   127   125   ar
   212   116   113    1
   213   116   118    1
   214   113   114    1
   215   128   126   ar
   216   125   126   ar
   217   125   124    1
   218   114   115    2
   219   124   121    1
   220   120   121    1
   221   121   122    1
   222   122   123    2
