@<TRIPOS>MOLECULE
tmp/3vnqA00.pdb
 199 189 0 0 0
SMALL
GASTEIGER

@<TRIPOS>ATOM
      1  N         43.8990  -20.8240    8.1330 N.3   151  THR151     -0.1203
      2  CA        44.3400  -22.1300    8.6280 C.3   151  THR151      0.1994
      3  C         43.1940  -22.8090    9.3750 C.2   151  THR151      0.2619
      4  O         42.1970  -22.1690    9.7150 O.2   151  THR151     -0.2717
      5  CB        45.5510  -21.9990    9.5690 C.3   151  THR151      0.1784
      6  OG1       45.1260  -21.3890   10.7960 O.3   151  THR151     -0.2211
      7  CG2       46.6510  -21.1450    8.9130 C.3   151  THR151      0.0376
      8  N         43.3320  -24.1040    9.6360 N.am  152  SER152     -0.1937
      9  CA        42.1760  -24.8990   10.0480 C.3   152  SER152      0.2055
     10  C         41.7240  -24.6330   11.4920 C.2   152  SER152      0.2644
     11  O         40.5880  -24.9380   11.8570 O.2   152  SER152     -0.2714
     12  CB        42.4540  -26.3890    9.8270 C.3   152  SER152      0.2130
     13  OG        43.5470  -26.7990   10.6210 O.3   152  SER152     -0.2179
     14  N         42.6070  -24.0450   12.2970 N.am  153  GLY153     -0.1939
     15  CA        42.2940  -23.7440   13.6830 C.3   153  GLY153      0.2014
     16  C         42.6120  -24.9090   14.6140 C.2   153  GLY153      0.2640
     17  O         41.9980  -25.0570   15.6650 O.2   153  GLY153     -0.2714
     18  N         43.5700  -25.7430   14.2160 N.am  154  THR154     -0.1936
     19  CA        44.0290  -26.8600   15.0450 C.3   154  THR154      0.2028
     20  C         44.4440  -26.3960   16.4550 C.2   154  THR154      0.2643
     21  O         43.9780  -26.9420   17.4570 O.2   154  THR154     -0.2714
     22  CB        45.2110  -27.6300   14.3740 C.3   154  THR154      0.1808
     23  OG1       44.7720  -28.2440   13.1540 O.3   154  THR154     -0.2208
     24  CG2       45.7570  -28.7140   15.3100 C.3   154  THR154      0.0379
     25  N         45.3150  -25.3880   16.5280 N.am  155  THR155     -0.1936
     26  CA        45.8710  -24.9390   17.8120 C.3   155  THR155      0.2028
     27  C         45.0580  -23.8380   18.5160 C.2   155  THR155      0.2643
     28  O         44.9890  -23.8070   19.7480 O.2   155  THR155     -0.2714
     29  CB        47.3790  -24.5210   17.6980 C.3   155  THR155      0.1808
     30  OG1       47.5520  -23.5750   16.6400 O.3   155  THR155     -0.2208
     31  CG2       48.2560  -25.7280   17.4030 C.3   155  THR155      0.0379
     32  N         44.4390  -22.9530   17.7360 N.am  156  GLY156     -0.1939
     33  CA        43.6830  -21.8300   18.2760 C.3   156  GLY156      0.2014
     34  C         42.7220  -21.2700   17.2410 C.2   156  GLY156      0.2638
     35  O         42.2870  -22.0060   16.3560 O.2   156  GLY156     -0.2714
     36  N         42.3790  -19.9830   17.3420 N.am  157  ASN157     -0.1972
     37  CA        41.5740  -19.3370   16.3000 C.3   157  ASN157      0.1688
     38  C         42.1820  -19.5770   14.9300 C.2   157  ASN157      0.2292
     39  O         43.4120  -19.6050   14.7980 O.2   157  ASN157     -0.2864
     40  CB        41.4880  -17.8280   16.5250 C.3   157  ASN157      0.1181
     41  CG        40.4490  -17.4540   17.5430 C.2   157  ASN157      0.2629
     42  OD1       39.6060  -18.2720   17.9030 O.2   157  ASN157     -0.2716
     43  ND2       40.4870  -16.2040   18.0030 N.am  157  ASN157     -0.0877
     44  N         44.0040  -18.8500   11.7440 N.3   159  LYS159     -0.1245
     45  CA        44.9200  -17.7700   11.4080 C.3   159  LYS159      0.1561
     46  C         44.7050  -17.3270    9.9460 C.2   159  LYS159      0.2260
     47  O         44.7370  -18.1490    9.0380 O.2   159  LYS159     -0.2867
     48  CB        46.3660  -18.2440   11.5900 C.3   159  LYS159      0.0271
     49  CG        46.6310  -19.0300   12.8780 C.3   159  LYS159      0.0035
     50  CD        47.9820  -19.7600   12.7990 C.3   159  LYS159      0.0206
     51  CE        48.2350  -20.6330   14.0250 C.3   159  LYS159      0.1093
     52  NZ        49.4800  -21.4490   13.8560 N.3   159  LYS159     -0.1314
     53  N         48.4860  -33.6390   -2.0640 N.3   268  GLY268     -0.1210
     54  CA        48.8130  -32.6480   -1.0520 C.3   268  GLY268      0.1956
     55  C         47.9600  -32.8640    0.1850 C.2   268  GLY268      0.2612
     56  O         46.9720  -33.5890    0.1430 O.2   268  GLY268     -0.2717
     57  N         48.3500  -32.2700    1.3020 N.am  269  GLY269     -0.1942
     58  CA        47.4700  -32.2670    2.4610 C.3   269  GLY269      0.2014
     59  C         47.7490  -33.2850    3.5560 C.2   269  GLY269      0.2639
     60  O         47.4590  -33.0010    4.7080 O.2   269  GLY269     -0.2714
     61  N         48.3090  -34.4430    3.1990 N.am  270  GLU270     -0.1963
     62  CA        48.4630  -35.5840    4.1070 C.3   270  GLU270      0.1733
     63  C         49.6650  -36.4210    3.7160 C.2   270  GLU270      0.2616
     64  O         50.1380  -36.3450    2.5680 O.2   270  GLU270     -0.2715
     65  CB        47.2440  -36.5260    4.0470 C.3   270  GLU270      0.0429
     66  CG        45.8760  -35.8840    4.2660 C.3   270  GLU270      0.1163
     67  CD        44.7210  -36.7690    3.7580 C.2   270  GLU270      0.3649
     68  OE1       44.9810  -37.8200    3.1140 O.co2 270  GLU270     -0.2457
     69  OE2       43.5490  -36.3990    3.9840 O.co2 270  GLU270     -0.2457
     70  N         50.1110  -37.2700    4.6480 N.am  271  LYS271     -0.1977
     71  CA        51.1830  -38.2250    4.3600 C.3   271  LYS271      0.1596
     72  C         50.7750  -39.1290    3.2370 C.2   271  LYS271      0.2287
     73  O         49.6230  -39.5580    3.1410 O.2   271  LYS271     -0.2864
     74  CB        51.4990  -39.1250    5.5550 C.3   271  LYS271      0.0298
     75  CG        52.3120  -38.5020    6.6450 C.3   271  LYS271      0.0038
     76  CD        52.6820  -39.5850    7.6640 C.3   271  LYS271      0.0206
     77  CE        53.6840  -39.0470    8.6580 C.3   271  LYS271      0.1093
     78  NZ        54.4020  -40.1550    9.3300 N.3   271  LYS271     -0.1314
     79  N         54.0080  -36.6390   -5.2750 N.3   293  ASN293     -0.1225
     80  CA        53.7220  -36.2340   -3.9120 C.3   293  ASN293      0.1785
     81  C         54.1010  -34.7720   -3.7260 C.2   293  ASN293      0.2598
     82  O         55.1130  -34.3120   -4.2420 O.2   293  ASN293     -0.2718
     83  CB        54.4820  -37.1060   -2.9030 C.3   293  ASN293      0.1169
     84  CG        53.9530  -36.9480   -1.4940 C.2   293  ASN293      0.2627
     85  OD1       52.8350  -36.4590   -1.2880 O.2   293  ASN293     -0.2716
     86  ND2       54.7310  -37.3900   -0.5160 N.am  293  ASN293     -0.0877
     87  N         53.2780  -34.0340   -2.9950 N.am  294  GLY294     -0.1942
     88  CA        53.5510  -32.6270   -2.7740 C.3   294  GLY294      0.2014
     89  C         53.3390  -32.3010   -1.3080 C.2   294  GLY294      0.2639
     90  O         52.4100  -32.8010   -0.6750 O.2   294  GLY294     -0.2714
     91  N         54.2200  -31.4770   -0.7620 N.am  295  TYR295     -0.1959
     92  CA        54.0510  -30.9620    0.5850 C.3   295  TYR295      0.1771
     93  C         54.0450  -29.4470    0.5160 C.2   295  TYR295      0.2620
     94  O         54.8480  -28.8510   -0.1990 O.2   295  TYR295     -0.2715
     95  CB        55.1670  -31.4260    1.5400 C.3   295  TYR295      0.0574
     96  CG        55.2880  -30.5370    2.7820 C.ar  295  TYR295     -0.0198
     97  CD1       54.4820  -30.7340    3.8990 C.ar  295  TYR295     -0.0009
     98  CD2       56.1920  -29.4730    2.8060 C.ar  295  TYR295     -0.0009
     99  CE1       54.5960  -29.9020    5.0290 C.ar  295  TYR295      0.0417
    100  CE2       56.3110  -28.6450    3.9200 C.ar  295  TYR295      0.0417
    101  CZ        55.5260  -28.8600    5.0210 C.ar  295  TYR295      0.1957
    102  OH        55.6740  -28.0210    6.0960 O.3   295  TYR295     -0.2866
    103  N         53.1370  -28.8310    1.2570 N.am  296  GLY296     -0.1940
    104  CA        53.0840  -27.3850    1.3230 C.3   296  GLY296      0.2014
    105  C         52.1380  -26.8910    2.3810 C.2   296  GLY296      0.2639
    106  O         51.4230  -27.6930    2.9840 O.2   296  GLY296     -0.2714
    107  N         52.1300  -25.5700    2.6020 N.am  297  ILE297     -0.1963
    108  CA        51.2770  -24.9570    3.6200 C.3   297  ILE297      0.1727
    109  C         50.7670  -23.5940    3.1420 C.2   297  ILE297      0.2617
    110  O         51.3840  -22.9580    2.2870 O.2   297  ILE297     -0.2715
    111  CB        52.0260  -24.8240    5.0050 C.3   297  ILE297      0.0290
    112  CG1       53.5070  -24.5040    4.8100 C.3   297  ILE297      0.0022
    113  CG2       52.0110  -26.1560    5.7450 C.3   297  ILE297      0.0023
    114  CD1       53.8470  -23.0970    5.0760 C.3   297  ILE297      0.0001
    115  N         49.6470  -23.1290    3.6830 N.am  298  THR298     -0.1937
    116  CA        49.1300  -21.8330    3.2470 C.3   298  THR298      0.2028
    117  C         50.1760  -20.7150    3.3830 C.2   298  THR298      0.2642
    118  O         50.3070  -19.8660    2.4920 O.2   298  THR298     -0.2714
    119  CB        47.8520  -21.4370    4.0070 C.3   298  THR298      0.1808
    120  OG1       46.8990  -22.5020    3.9280 O.3   298  THR298     -0.2208
    121  CG2       47.2550  -20.1490    3.4200 C.3   298  THR298      0.0379
    122  N         50.9280  -20.7310    4.4870 N.am  299  GLU299     -0.1976
    123  CA        51.9080  -19.6710    4.7740 C.3   299  GLU299      0.1602
    124  C         53.0430  -19.5560    3.7680 C.2   299  GLU299      0.2287
    125  O         53.6980  -18.5150    3.6780 O.2   299  GLU299     -0.2864
    126  CB        52.4780  -19.8250    6.1840 C.3   299  GLU299      0.0415
    127  CG        51.4530  -19.5850    7.2680 C.3   299  GLU299      0.1163
    128  CD        50.7020  -20.8400    7.6950 C.2   299  GLU299      0.3649
    129  OE1       50.5710  -21.8040    6.8980 O.co2 299  GLU299     -0.2457
    130  OE2       50.2190  -20.8490    8.8410 O.co2 299  GLU299     -0.2457
    131  N         57.0140  -41.5180    4.2410 N.3   319  SER319     -0.1217
    132  CA        56.4080  -40.5360    3.3510 C.3   319  SER319      0.1889
    133  C         57.4620  -39.5410    2.9020 C.2   319  SER319      0.2288
    134  O         57.9280  -38.7200    3.6920 O.2   319  SER319     -0.2866
    135  CB        55.2400  -39.8130    4.0240 C.3   319  SER319      0.2089
    136  OG        54.6220  -38.9070    3.1150 O.3   319  SER319     -0.2183
    137  N         58.5260  -36.3790    0.8220 N.3   321  ILE321     -0.1245
    138  CA        57.9430  -35.1910    0.2130 C.3   321  ILE321      0.1561
    139  C         58.8670  -34.5440   -0.8410 C.2   321  ILE321      0.2260
    140  O         58.4190  -33.7050   -1.6090 O.2   321  ILE321     -0.2867
    141  CB        57.5080  -34.1700    1.2700 C.3   321  ILE321      0.0252
    142  CG1       58.6920  -33.7540    2.1510 C.3   321  ILE321      0.0019
    143  CG2       56.3720  -34.7440    2.1320 C.3   321  ILE321      0.0019
    144  CD1       58.3540  -32.5920    3.0940 C.3   321  ILE321      0.0001
    145  N         57.4470  -24.1050   10.1690 N.3   379  THR379     -0.1218
    146  CA        56.2850  -24.8780    9.7010 C.3   379  THR379      0.1862
    147  C         55.4810  -25.5730   10.7980 C.2   379  THR379      0.2287
    148  O         54.3110  -25.8850   10.6060 O.2   379  THR379     -0.2866
    149  CB        56.6880  -25.9460    8.6660 C.3   379  THR379      0.1770
    150  OG1       57.5960  -26.8670    9.2690 O.3   379  THR379     -0.2211
    151  CG2       57.3240  -25.3090    7.4350 C.3   379  THR379      0.0375
    152  N         56.2380  -28.5020   11.4430 N.3   381  ASP381     -0.1239
    153  CA        56.3630  -29.8560   10.9020 C.3   381  ASP381      0.1674
    154  C         57.7850  -30.3760   11.0970 C.2   381  ASP381      0.2266
    155  O         58.7640  -29.6660   10.8640 O.2   381  ASP381     -0.2867
    156  CB        56.0190  -29.9030    9.3940 C.3   381  ASP381      0.1410
    157  CG        54.5310  -29.7030    9.1210 C.2   381  ASP381      0.3668
    158  OD1       53.7240  -30.3260    9.8290 O.co2 381  ASP381     -0.2456
    159  OD2       54.1660  -28.9220    8.2000 O.co2 381  ASP381     -0.2456
    160  N         58.8570  -36.6290    5.4220 N.3   393  TYR393     -0.1241
    161  CA        57.9500  -35.9540    6.3480 C.3   393  TYR393      0.1605
    162  C         57.7290  -36.8360    7.5710 C.2   393  TYR393      0.2264
    163  O         57.3000  -37.9760    7.4310 O.2   393  TYR393     -0.2867
    164  CB        56.6020  -35.6530    5.6810 C.3   393  TYR393      0.0534
    165  CG        55.6540  -34.9810    6.6340 C.ar  393  TYR393     -0.0201
    166  CD1       55.5960  -33.6000    6.7180 C.ar  393  TYR393     -0.0009
    167  CD2       54.8480  -35.7270    7.4860 C.ar  393  TYR393     -0.0009
    168  CE1       54.7470  -32.9780    7.6090 C.ar  393  TYR393      0.0417
    169  CE2       54.0010  -35.1100    8.3830 C.ar  393  TYR393      0.0417
    170  CZ        53.9620  -33.7360    8.4450 C.ar  393  TYR393      0.1957
    171  OH        53.1230  -33.1170    9.3510 O.3   393  TYR393     -0.2866
    172  N         53.7760  -33.7320   12.9040 N.3   396  ARG396     -0.1245
    173  CA        53.6900  -32.3990   13.4800 C.3   396  ARG396      0.1563
    174  C         54.6400  -32.2980   14.6680 C.2   396  ARG396      0.2260
    175  O         54.9240  -33.2980   15.3210 O.2   396  ARG396     -0.2867
    176  CB        52.2710  -32.0800   13.9240 C.3   396  ARG396      0.0307
    177  CG        51.2220  -32.0290   12.8160 C.3   396  ARG396      0.0489
    178  CD        49.8190  -31.8480   13.4340 C.3   396  ARG396      0.2205
    179  NE        49.7540  -30.7090   14.3620 N.pl3 396  ARG396     -0.0865
    180  CZ        49.4530  -29.4540   14.0090 C.cat 396  ARG396      0.5346
    181  NH1       49.1860  -29.1520   12.7390 N.pl3 396  ARG396      0.1354
    182  NH2       49.4210  -28.4920   14.9270 N.pl3 396  ARG396      0.1354
    183  N         37.9920  -28.7840    7.0480 N.3   485  ASN485     -0.1240
    184  CA        39.3260  -28.6050    6.4790 C.3   485  ASN485      0.1653
    185  C         40.0800  -29.9260    6.2320 C.2   485  ASN485      0.2266
    186  O         41.2090  -29.9220    5.7400 O.2   485  ASN485     -0.2867
    187  CB        40.1650  -27.6450    7.3310 C.3   485  ASN485      0.1155
    188  CG        40.8790  -26.5840    6.4900 C.2   485  ASN485      0.2627
    189  OD1       40.4720  -26.2880    5.3640 O.2   485  ASN485     -0.2716
    190  ND2       41.9460  -26.0110    7.0360 N.am  485  ASN485     -0.0877
    191  N         41.0450  -32.2280    8.4420 N.3   487  LYS487     -0.1245
    192  CA        42.1340  -32.3770    9.4160 C.3   487  LYS487      0.1561
    193  C         42.0260  -33.5420   10.4230 C.2   487  LYS487      0.2260
    194  O         42.7630  -33.5740   11.4040 O.2   487  LYS487     -0.2867
    195  CB        42.3160  -31.0620   10.1920 C.3   487  LYS487      0.0271
    196  CG        42.8390  -29.9060    9.3560 C.3   487  LYS487      0.0035
    197  CD        44.1550  -30.2880    8.6980 C.3   487  LYS487      0.0206
    198  CE        44.7880  -29.1290    7.9340 C.3   487  LYS487      0.1093
    199  NZ        46.0840  -29.5660    7.3700 N.3   487  LYS487     -0.1314
@<TRIPOS>BOND
     1    79    80    1
     2    82    81    2
     3    80    81    1
     4    80    83    1
     5    81    87   am
     6    87    88    1
     7    83    84    1
     8    88    89    1
     9    53    54    1
    10   140   139    2
    11    84    85    2
    12    84    86   am
    13    89    91   am
    14    89    90    2
    15    54    55    1
    16   139   138    1
    17    91    92    1
    18    94    93    2
    19    56    55    2
    20    55    57   am
    21   138   137    1
    22   138   141    1
    23    93    92    1
    24    93   103   am
    25    92    95    1
    26   103   104    1
    27   141   143    1
    28   141   142    1
    29    57    58    1
    30   104   105    1
    31    95    96    1
    32   142   144    1
    33   110   109    2
    34   105   107   am
    35   105   106    2
    36    58    59    1
    37   118   117    2
    38    64    63    2
    39   107   108    1
    40    96    98   ar
    41    96    97   ar
    42    98   100   ar
    43   133   132    1
    44   133   134    2
    45    68    67   ar
    46   136   135    1
    47    73    72    2
    48   109   108    1
    49   109   115   am
    50    61    59   am
    51    61    62    1
    52    72    71    1
    53   116   117    1
    54   116   115    1
    55   116   119    1
    56   132   135    1
    57   132   131    1
    58   117   122   am
    59   121   119    1
    60    59    60    2
    61   108   111    1
    62   125   124    2
    63    63    62    1
    64    63    70   am
    65    67    69   ar
    66    67    66    1
    67   124   123    1
    68    97    99   ar
    69   100   101   ar
    70   120   119    1
    71    65    62    1
    72    65    66    1
    73    71    70    1
    74    71    74    1
    75   122   123    1
    76   123   126    1
    77   112   111    1
    78   112   114    1
    79   111   113    1
    80   101    99   ar
    81   101   102    1
    82   189   188    2
    83   160   161    1
    84    74    75    1
    85   164   161    1
    86   164   165    1
    87   186   185    2
    88   126   127    1
    89   185   184    1
    90   161   162    1
    91   184   183    1
    92   184   187    1
    93   188   190   am
    94   188   187    1
    95   165   166   ar
    96   165   167   ar
    97    75    76    1
    98   166   168   ar
    99   129   128   ar
   100   127   128    1
   101   199   198    1
   102   163   162    2
   103   151   149    1
   104   167   169   ar
   105   168   170   ar
   106    76    77    1
   107   128   130   ar
   108   198   197    1
   109     1     2    1
   110   159   157   ar
   111   169   170   ar
   112   191   192    1
   113   170   171    1
   114     2     3    1
   115     2     5    1
   116    77    78    1
   117   149   150    1
   118   149   146    1
   119   197   196    1
   120     7     5    1
   121    47    46    2
   122   157   156    1
   123   157   158   ar
   124   196   195    1
   125     3     8   am
   126     3     4    2
   127   156   153    1
   128   192   195    1
   129   192   193    1
   130     5     6    1
   131     8     9    1
   132   146   145    1
   133   146   147    1
   134    12     9    1
   135    12    13    1
   136    46    45    1
   137     9    10    1
   138   193   194    2
   139   148   147    2
   140   155   154    2
   141   153   154    1
   142   153   152    1
   143    45    48    1
   144    45    44    1
   145    10    11    2
   146    10    14   am
   147    48    49    1
   148    14    15    1
   149   181   180    1
   150    50    49    1
   151    50    51    1
   152   177   178    1
   153   177   176    1
   154   172   173    1
   155    23    22    1
   156   178   179    1
   157   173   176    1
   158   173   174    1
   159    15    16    1
   160    52    51    1
   161   180   179    2
   162   180   182    1
   163    18    16   am
   164    18    19    1
   165    22    19    1
   166    22    24    1
   167    16    17    2
   168   174   175    2
   169    39    38    2
   170    38    37    1
   171    19    20    1
   172    37    40    1
   173    37    36    1
   174    35    34    2
   175    20    25   am
   176    20    21    2
   177    40    41    1
   178    25    26    1
   179    30    29    1
   180    34    36   am
   181    34    33    1
   182    31    29    1
   183    41    42    2
   184    41    43   am
   185    29    26    1
   186    32    33    1
   187    32    27   am
   188    26    27    1
   189    27    28    2
