@<TRIPOS>MOLECULE
tmp/3vnrA00.pdb
 188 178 0 0 0
SMALL
GASTEIGER

@<TRIPOS>ATOM
      1  N         20.7070  -43.9650   -8.2550 N.3   151  THR151     -0.1218
      2  CA        22.0240  -44.4480   -8.6500 C.3   151  THR151      0.1862
      3  C         22.2390  -44.2770  -10.1540 C.2   151  THR151      0.2287
      4  O         21.2990  -44.4210  -10.9420 O.2   151  THR151     -0.2866
      5  CB        22.2290  -45.9270   -8.2420 C.3   151  THR151      0.1770
      6  OG1       23.6080  -46.2820   -8.3930 O.3   151  THR151     -0.2211
      7  CG2       21.3570  -46.8640   -9.0780 C.3   151  THR151      0.0375
      8  N         24.1070  -44.1460    0.2920 N.3   191  ASP191     -0.1239
      9  CA        23.5820  -45.0580    1.3090 C.3   191  ASP191      0.1674
     10  C         24.5500  -45.3700    2.4490 C.2   191  ASP191      0.2266
     11  O         24.1660  -45.9250    3.4690 O.2   191  ASP191     -0.2867
     12  CB        22.8670  -46.2850    0.7160 C.3   191  ASP191      0.1410
     13  CG        23.8030  -47.3160    0.1560 C.2   191  ASP191      0.3668
     14  OD1       25.0380  -47.0930    0.1630 O.co2 191  ASP191     -0.2456
     15  OD2       23.2720  -48.3700   -0.2790 O.co2 191  ASP191     -0.2456
     16  N         34.1280  -48.5260    2.2870 N.3   263  GLY263     -0.1210
     17  CA        33.1210  -48.9180    1.2990 C.3   263  GLY263      0.1956
     18  C         33.2380  -48.0820    0.0480 C.2   263  GLY263      0.2612
     19  O         33.8520  -47.0160    0.0570 O.2   263  GLY263     -0.2717
     20  N         32.6590  -48.5800   -1.0450 N.am  264  GLY264     -0.1942
     21  CA        32.4650  -47.7720   -2.2240 C.3   264  GLY264      0.2014
     22  C         33.4730  -47.9370   -3.3690 C.2   264  GLY264      0.2639
     23  O         33.1530  -47.5680   -4.5130 O.2   264  GLY264     -0.2714
     24  N         34.6630  -48.4310   -3.0500 N.am  265  GLU265     -0.1963
     25  CA        35.7960  -48.4540   -4.0010 C.3   265  GLU265      0.1733
     26  C         36.6410  -49.6820   -3.7540 C.2   265  GLU265      0.2616
     27  O         36.6610  -50.2140   -2.6410 O.2   265  GLU265     -0.2715
     28  CB        36.7000  -47.2080   -3.8350 C.3   265  GLU265      0.0429
     29  CG        35.9820  -45.8630   -3.9750 C.3   265  GLU265      0.1163
     30  CD        36.8140  -44.6600   -3.5130 C.2   265  GLU265      0.3649
     31  OE1       37.9400  -44.8660   -3.0270 O.co2 265  GLU265     -0.2457
     32  OE2       36.3180  -43.4850   -3.6010 O.co2 265  GLU265     -0.2457
     33  N         37.3560  -50.1420   -4.7900 N.am  266  LYS266     -0.1963
     34  CA        38.2080  -51.2970   -4.6300 C.3   266  LYS266      0.1728
     35  C         39.3060  -50.9530   -3.6130 C.2   266  LYS266      0.2616
     36  O         39.9400  -49.8920   -3.7020 O.2   266  LYS266     -0.2715
     37  CB        38.8110  -51.6940   -6.0310 C.3   266  LYS266      0.0311
     38  CG        39.9690  -52.6300   -5.9100 C.3   266  LYS266      0.0038
     39  CD        40.5630  -52.9370   -7.2930 C.3   266  LYS266      0.0206
     40  CE        39.7090  -54.0110   -8.0340 C.3   266  LYS266      0.1093
     41  NZ        40.6060  -54.6130   -9.1100 N.3   266  LYS266     -0.1314
     42  N         39.5170  -51.8320   -2.6350 N.am  267  LEU267     -0.1977
     43  CA        40.5500  -51.6200   -1.6140 C.3   267  LEU267      0.1596
     44  C         41.7020  -52.5990   -1.8260 C.2   267  LEU267      0.2287
     45  O         41.4830  -53.8070   -1.8780 O.2   267  LEU267     -0.2864
     46  CB        39.9460  -51.8880   -0.2220 C.3   267  LEU267      0.0297
     47  CG        40.8870  -51.7840    0.9710 C.3   267  LEU267      0.0022
     48  CD1       41.2020  -50.3020    1.2200 C.3   267  LEU267      0.0001
     49  CD2       40.2340  -52.4270    2.2300 C.3   267  LEU267      0.0001
     50  N         36.8430  -54.0990    5.2800 N.3   288  ASN288     -0.1225
     51  CA        36.4270  -53.7070    3.9550 C.3   288  ASN288      0.1785
     52  C         35.0000  -54.1630    3.7450 C.2   288  ASN288      0.2598
     53  O         34.6890  -55.3300    3.9510 O.2   288  ASN288     -0.2718
     54  CB        37.3520  -54.4440    2.9410 C.3   288  ASN288      0.1169
     55  CG        37.1030  -54.0290    1.5210 C.2   288  ASN288      0.2627
     56  OD1       36.5460  -52.9700    1.2710 O.2   288  ASN288     -0.2716
     57  ND2       37.5150  -54.8860    0.5630 N.am  288  ASN288     -0.0877
     58  N         34.1280  -53.2660    3.3220 N.am  289  GLY289     -0.1942
     59  CA        32.7320  -53.6320    3.0870 C.3   289  GLY289      0.2014
     60  C         32.4000  -53.3980    1.6280 C.2   289  GLY289      0.2639
     61  O         32.6670  -52.3440    1.0800 O.2   289  GLY289     -0.2714
     62  N         31.8300  -54.4130    0.9880 N.am  290  TYR290     -0.1959
     63  CA        31.3430  -54.2980   -0.3710 C.3   290  TYR290      0.1771
     64  C         29.8180  -54.3240   -0.3250 C.2   290  TYR290      0.2620
     65  O         29.2400  -55.1100    0.4070 O.2   290  TYR290     -0.2715
     66  CB        31.8580  -55.4810   -1.2060 C.3   290  TYR290      0.0574
     67  CG        31.0360  -55.7630   -2.4440 C.ar  290  TYR290     -0.0198
     68  CD1       31.2560  -55.0880   -3.6310 C.ar  290  TYR290     -0.0009
     69  CD2       29.9670  -56.6680   -2.3800 C.ar  290  TYR290     -0.0009
     70  CE1       30.4750  -55.3330   -4.7740 C.ar  290  TYR290      0.0417
     71  CE2       29.1860  -56.9220   -3.5000 C.ar  290  TYR290      0.0417
     72  CZ        29.4380  -56.2630   -4.6850 C.ar  290  TYR290      0.1957
     73  OH        28.6590  -56.5120   -5.7830 O.3   290  TYR290     -0.2866
     74  N         29.1940  -53.4540   -1.0910 N.am  291  GLY291     -0.1940
     75  CA        27.7480  -53.4620   -1.2040 C.3   291  GLY291      0.2014
     76  C         27.2460  -52.5210   -2.2730 C.2   291  GLY291      0.2639
     77  O         28.0220  -51.8560   -2.9670 O.2   291  GLY291     -0.2714
     78  N         25.9180  -52.4300   -2.3700 N.am  292  ILE292     -0.1963
     79  CA        25.2720  -51.7930   -3.5070 C.3   292  ILE292      0.1727
     80  C         23.9590  -51.2140   -3.0300 C.2   292  ILE292      0.2617
     81  O         23.2990  -51.8070   -2.1670 O.2   292  ILE292     -0.2715
     82  CB        24.9010  -52.8470   -4.5770 C.3   292  ILE292      0.0290
     83  CG1       25.9850  -53.9250   -4.6650 C.3   292  ILE292      0.0022
     84  CG2       24.6410  -52.1600   -5.8820 C.3   292  ILE292      0.0023
     85  CD1       25.5740  -55.1270   -5.5520 C.3   292  ILE292      0.0001
     86  N         23.5760  -50.0780   -3.5820 N.am  293  THR293     -0.1937
     87  CA        22.3050  -49.4320   -3.2020 C.3   293  THR293      0.2028
     88  C         21.1410  -50.4290   -3.3290 C.2   293  THR293      0.2642
     89  O         20.3250  -50.5640   -2.4220 O.2   293  THR293     -0.2714
     90  CB        22.0020  -48.1950   -4.0400 C.3   293  THR293      0.1808
     91  OG1       23.0580  -47.2320   -3.9070 O.3   293  THR293     -0.2208
     92  CG2       20.7080  -47.5170   -3.5420 C.3   293  THR293      0.0379
     93  N         21.1030  -51.1420   -4.4490 N.am  294  GLU294     -0.1976
     94  CA        20.0740  -52.1720   -4.7010 C.3   294  GLU294      0.1602
     95  C         20.0010  -53.3280   -3.7080 C.2   294  GLU294      0.2287
     96  O         18.9890  -54.0380   -3.6670 O.2   294  GLU294     -0.2864
     97  CB        20.2330  -52.7330   -6.1370 C.3   294  GLU294      0.0415
     98  CG        19.9320  -51.6890   -7.2460 C.3   294  GLU294      0.1163
     99  CD        21.1170  -50.8110   -7.6830 C.2   294  GLU294      0.3649
    100  OE1       22.0150  -50.5470   -6.8690 O.co2 294  GLU294     -0.2457
    101  OE2       21.1580  -50.3630   -8.8640 O.co2 294  GLU294     -0.2457
    102  N         22.9960  -51.3680    1.0390 N.3   297  VAL297     -0.1231
    103  CA        24.2540  -50.8160    1.5950 C.3   297  VAL297      0.1692
    104  C         25.4510  -51.7420    1.6260 C.2   297  VAL297      0.2592
    105  O         26.4520  -51.4610    0.9250 O.2   297  VAL297     -0.2718
    106  CB        24.0680  -50.2410    3.0200 C.3   297  VAL297      0.0266
    107  CG1       25.3030  -49.3630    3.3510 C.3   297  VAL297      0.0020
    108  CG2       22.7930  -49.4320    3.0920 C.3   297  VAL297      0.0020
    109  N         25.3720  -52.8230    2.4110 N.am  298  PHE298     -0.1976
    110  CA        26.4780  -53.7840    2.4990 C.3   298  PHE298      0.1639
    111  C         26.0540  -55.2260    2.2550 C.2   298  PHE298      0.2290
    112  O         24.9910  -55.6560    2.7050 O.2   298  PHE298     -0.2864
    113  CB        27.1770  -53.7320    3.8680 C.3   298  PHE298      0.0560
    114  CG        28.0450  -52.5330    4.0360 C.ar  298  PHE298     -0.0200
    115  CD1       29.1420  -52.3470    3.1990 C.ar  298  PHE298     -0.0042
    116  CD2       27.7840  -51.5990    5.0400 C.ar  298  PHE298     -0.0042
    117  CE1       29.9780  -51.2270    3.3490 C.ar  298  PHE298     -0.0003
    118  CE2       28.6070  -50.4740    5.1740 C.ar  298  PHE298     -0.0003
    119  CZ        29.6960  -50.2910    4.3350 C.ar  298  PHE298     -0.0000
    120  N         42.2230  -57.6450   -4.3820 N.3   314  SER314     -0.1217
    121  CA        41.2160  -56.9970   -3.5130 C.3   314  SER314      0.1889
    122  C         40.2570  -58.0780   -3.0140 C.2   314  SER314      0.2288
    123  O         39.6850  -58.8000   -3.8250 O.2   314  SER314     -0.2866
    124  CB        40.4430  -55.9420   -4.2870 C.3   314  SER314      0.2089
    125  OG        39.5890  -55.2080   -3.3900 O.3   314  SER314     -0.2183
    126  N         36.9030  -58.9550   -0.7830 N.3   316  ILE316     -0.1245
    127  CA        35.7250  -58.3210   -0.1920 C.3   316  ILE316      0.1561
    128  C         35.0880  -59.2490    0.8330 C.2   316  ILE316      0.2260
    129  O         34.2170  -58.8410    1.5710 O.2   316  ILE316     -0.2867
    130  CB        34.7210  -57.8380   -1.2290 C.3   316  ILE316      0.0252
    131  CG1       34.3380  -58.9910   -2.1980 C.3   316  ILE316      0.0019
    132  CG2       35.2830  -56.6370   -1.9830 C.3   316  ILE316      0.0019
    133  CD1       33.1390  -58.6230   -3.0740 C.3   316  ILE316      0.0001
    134  N         24.5790  -57.9030  -10.1330 N.3   375  THR375     -0.1218
    135  CA        25.2930  -56.7740   -9.5440 C.3   375  THR375      0.1862
    136  C         25.9900  -55.9390  -10.6120 C.2   375  THR375      0.2287
    137  O         26.2680  -54.7590  -10.4070 O.2   375  THR375     -0.2866
    138  CB        26.3330  -57.2660   -8.5220 C.3   375  THR375      0.1770
    139  OG1       27.3330  -58.0430   -9.1920 O.3   375  THR375     -0.2211
    140  CG2       25.6840  -58.1110   -7.4400 C.3   375  THR375      0.0375
    141  N         28.9480  -56.6210  -11.1930 N.3   377  ASP377     -0.1239
    142  CA        30.3080  -56.7250  -10.6750 C.3   377  ASP377      0.1674
    143  C         30.8830  -58.1120  -10.9570 C.2   377  ASP377      0.2266
    144  O         30.2210  -59.1360  -10.7400 O.2   377  ASP377     -0.2867
    145  CB        30.3650  -56.5250   -9.1410 C.3   377  ASP377      0.1410
    146  CG        30.0720  -55.0900   -8.6970 C.2   377  ASP377      0.3668
    147  OD1       30.7090  -54.1600   -9.2260 O.co2 377  ASP377     -0.2456
    148  OD2       29.2060  -54.9000   -7.7870 O.co2 377  ASP377     -0.2456
    149  N         37.2730  -59.1900   -5.3390 N.3   389  TYR389     -0.1241
    150  CA        36.6000  -58.2650   -6.2230 C.3   389  TYR389      0.1605
    151  C         37.4560  -57.9800   -7.4370 C.2   389  TYR389      0.2264
    152  O         38.5990  -57.5740   -7.2860 O.2   389  TYR389     -0.2867
    153  CB        36.2980  -56.9330   -5.4980 C.3   389  TYR389      0.0534
    154  CG        35.5690  -55.9930   -6.4070 C.ar  389  TYR389     -0.0201
    155  CD1       34.1730  -56.0700   -6.5370 C.ar  389  TYR389     -0.0009
    156  CD2       36.2450  -55.0670   -7.1620 C.ar  389  TYR389     -0.0009
    157  CE1       33.4920  -55.2290   -7.4180 C.ar  389  TYR389      0.0417
    158  CE2       35.5760  -54.2290   -8.0430 C.ar  389  TYR389      0.0417
    159  CZ        34.1980  -54.3220   -8.1570 C.ar  389  TYR389      0.1957
    160  OH        33.5520  -53.4820   -9.0190 O.3   389  TYR389     -0.2866
    161  N         34.1270  -53.9270  -12.6870 N.3   392  ARG392     -0.1245
    162  CA        32.7840  -53.8540  -13.2490 C.3   392  ARG392      0.1563
    163  C         32.7090  -54.7810  -14.4710 C.2   392  ARG392      0.2260
    164  O         33.7350  -55.0640  -15.1140 O.2   392  ARG392     -0.2867
    165  CB        32.4120  -52.4310  -13.6330 C.3   392  ARG392      0.0307
    166  CG        32.2210  -51.5060  -12.4440 C.3   392  ARG392      0.0489
    167  CD        31.0350  -52.0190  -11.6390 C.3   392  ARG392      0.2205
    168  NE        29.7510  -51.7660  -12.2910 N.pl3 392  ARG392     -0.0865
    169  CZ        28.5800  -52.2230  -11.8400 C.cat 392  ARG392      0.5346
    170  NH1       28.5300  -52.9820  -10.7460 N.pl3 392  ARG392      0.1354
    171  NH2       27.4520  -51.9450  -12.5030 N.pl3 392  ARG392      0.1354
    172  N         27.9910  -39.9280   -8.0240 N.3   481  ASN481     -0.1240
    173  CA        27.9070  -41.0890   -7.1470 C.3   481  ASN481      0.1653
    174  C         29.2840  -41.5370   -6.6570 C.2   481  ASN481      0.2266
    175  O         29.4010  -42.5930   -6.0330 O.2   481  ASN481     -0.2867
    176  CB        27.2290  -42.2750   -7.8580 C.3   481  ASN481      0.1155
    177  CG        25.7480  -42.0430   -8.1500 C.2   481  ASN481      0.2627
    178  OD1       25.2190  -42.5780   -9.1300 O.2   481  ASN481     -0.2716
    179  ND2       25.0720  -41.2570   -7.3020 N.am  481  ASN481     -0.0877
    180  N         31.9190  -42.4540   -8.4610 N.3   483  LYS483     -0.1245
    181  CA        32.5920  -43.4030   -9.3530 C.3   483  LYS483      0.1561
    182  C         33.5980  -42.6790  -10.2660 C.2   483  LYS483      0.2260
    183  O         33.5210  -41.4680  -10.4560 O.2   483  LYS483     -0.2867
    184  CB        31.5580  -44.1610  -10.1950 C.3   483  LYS483      0.0271
    185  CG        30.4250  -44.7980   -9.3880 C.3   483  LYS483      0.0035
    186  CD        30.8990  -45.9530   -8.5080 C.3   483  LYS483      0.0206
    187  CE        29.7170  -46.7120   -7.8880 C.3   483  LYS483      0.1093
    188  NZ        28.9470  -45.8720   -6.9370 N.3   483  LYS483     -0.1314
@<TRIPOS>BOND
     1   164   163    2
     2   163   162    1
     3   165   162    1
     4   165   166    1
     5   162   161    1
     6   171   169    1
     7   166   167    1
     8   168   169    2
     9   168   167    1
    10   169   170    1
    11   141   142    1
    12   143   144    2
    13   143   142    1
    14     4     3    2
    15   142   145    1
    16   136   137    2
    17   136   135    1
    18   183   182    2
    19   182   181    1
    20   184   185    1
    21   184   181    1
    22     3     2    1
    23   134   135    1
    24   135   138    1
    25   185   186    1
    26   181   180    1
    27   147   146   ar
    28   139   138    1
    29   145   146    1
    30   178   177    2
    31    41    40    1
    32     7     5    1
    33   160   159    1
    34   101    99   ar
    35   146   148   ar
    36     2     1    1
    37     2     5    1
    38   138   140    1
    39   186   187    1
    40     6     5    1
    41   159   158   ar
    42   159   157   ar
    43   177   176    1
    44   177   179   am
    45   158   156   ar
    46    40    39    1
    47   172   173    1
    48   187   188    1
    49   176   173    1
    50    99    98    1
    51    99   100   ar
    52   151   152    2
    53   151   150    1
    54   157   155   ar
    55    39    38    1
    56    98    97    1
    57   156   154   ar
    58   173   174    1
    59   174   175    2
    60   155   154   ar
    61   154   153    1
    62   150   153    1
    63   150   149    1
    64    97    94    1
    65    37    38    1
    66    37    34    1
    67    84    82    1
    68    73    72    1
    69    85    83    1
    70    33    34    1
    71    33    26   am
    72    70    72   ar
    73    70    68   ar
    74    94    93    1
    75    94    95    1
    76    72    71   ar
    77    83    82    1
    78    34    35    1
    79    82    79    1
    80    23    22    2
    81    93    88   am
    82   120   121    1
    83   124   121    1
    84   124   125    1
    85    90    91    1
    86    90    92    1
    87    90    87    1
    88    25    28    1
    89    25    26    1
    90    25    24    1
    91    29    28    1
    92    29    30    1
    93   123   122    2
    94    26    27    2
    95    95    96    2
    96    36    35    2
    97    68    67   ar
    98    35    42   am
    99    32    30   ar
   100    86    87    1
   101    86    80   am
   102   121   122    1
   103    30    31   ar
   104    79    80    1
   105    79    78    1
   106    71    69   ar
   107    22    24   am
   108    22    21    1
   109    88    87    1
   110    88    89    2
   111   133   131    1
   112    80    81    2
   113    77    76    2
   114    42    43    1
   115    67    69   ar
   116    67    66    1
   117    78    76   am
   118    76    75    1
   119    21    20    1
   120   131   130    1
   121   132   130    1
   122    45    44    2
   123    44    43    1
   124    43    46    1
   125   130   127    1
   126    66    63    1
   127    75    74    1
   128    74    64   am
   129    20    18   am
   130   126   127    1
   131    63    64    1
   132    63    62    1
   133    64    65    2
   134    15    13   ar
   135    46    47    1
   136   127   128    1
   137    18    19    2
   138    18    17    1
   139    13    14   ar
   140    13    12    1
   141     8     9    1
   142    57    55   am
   143    12     9    1
   144   128   129    2
   145   105   104    2
   146    47    48    1
   147    47    49    1
   148    62    60   am
   149   102   103    1
   150    61    60    2
   151    56    55    2
   152    17    16    1
   153     9    10    1
   154    55    54    1
   155   103   104    1
   156   103   106    1
   157   104   109   am
   158    60    59    1
   159   111   110    1
   160   111   112    2
   161   109   110    1
   162    10    11    2
   163   110   113    1
   164    54    51    1
   165   106   108    1
   166   106   107    1
   167    59    58    1
   168   115   117   ar
   169   115   114   ar
   170    58    52   am
   171   117   119   ar
   172    52    53    2
   173    52    51    1
   174   113   114    1
   175    51    50    1
   176   114   116   ar
   177   119   118   ar
   178   116   118   ar
