@<TRIPOS>MOLECULE
tmp/3vnrA01.pdb
 100 98 0 0 0
SMALL
GASTEIGER

@<TRIPOS>ATOM
      1  N         23.9980  -40.6770   -0.2680 N.3   190  PHE190     -0.1227
      2  CA        24.7670  -41.8860   -0.3710 C.3   190  PHE190      0.1736
      3  C         24.2850  -42.8830    0.6660 C.2   190  PHE190      0.2595
      4  O         24.1060  -42.5090    1.8230 O.2   190  PHE190     -0.2718
      5  CB        26.2370  -41.5970   -0.0470 C.3   190  PHE190      0.0547
      6  CG        26.8780  -40.6410   -0.9960 C.ar  190  PHE190     -0.0202
      7  CD1       26.4500  -40.5720   -2.3010 C.ar  190  PHE190     -0.0042
      8  CD2       27.9010  -39.8080   -0.5790 C.ar  190  PHE190     -0.0042
      9  CE1       27.0400  -39.6920   -3.1880 C.ar  190  PHE190     -0.0003
     10  CE2       28.4980  -38.9290   -1.4590 C.ar  190  PHE190     -0.0003
     11  CZ        28.0620  -38.8700   -2.7660 C.ar  190  PHE190     -0.0000
     12  N         24.1070  -44.1460    0.2920 N.am  191  ASP191     -0.1960
     13  CA        23.5820  -45.0580    1.3090 C.3   191  ASP191      0.1840
     14  C         24.5500  -45.3700    2.4490 C.2   191  ASP191      0.2622
     15  O         24.1660  -45.9250    3.4690 O.2   191  ASP191     -0.2715
     16  CB        22.8670  -46.2850    0.7160 C.3   191  ASP191      0.1450
     17  CG        23.8030  -47.3160    0.1560 C.2   191  ASP191      0.3671
     18  OD1       25.0380  -47.0930    0.1630 O.co2 191  ASP191     -0.2456
     19  OD2       23.2720  -48.3700   -0.2790 O.co2 191  ASP191     -0.2456
     20  N         25.8140  -44.9650    2.3120 N.am  192  PHE192     -0.1974
     21  CA        26.7130  -45.0550    3.4660 C.3   192  PHE192      0.1639
     22  C         26.0750  -44.3270    4.6610 C.2   192  PHE192      0.2290
     23  O         26.2610  -44.7070    5.8090 O.2   192  PHE192     -0.2864
     24  CB        28.0430  -44.3680    3.1360 C.3   192  PHE192      0.0560
     25  CG        29.2990  -45.2030    3.4490 C.ar  192  PHE192     -0.0200
     26  CD1       29.3200  -46.1210    4.4850 C.ar  192  PHE192     -0.0042
     27  CD2       30.4560  -45.0240    2.6970 C.ar  192  PHE192     -0.0042
     28  CE1       30.4590  -46.8520    4.7870 C.ar  192  PHE192     -0.0003
     29  CE2       31.6240  -45.7790    3.0020 C.ar  192  PHE192     -0.0003
     30  CZ        31.6080  -46.6800    4.0300 C.ar  192  PHE192     -0.0000
     31  N         35.5890  -43.9760    2.3880 N.3   236  THR236     -0.1218
     32  CA        36.0810  -44.5710    1.1380 C.3   236  THR236      0.1862
     33  C         37.5570  -44.8500    1.3010 C.2   236  THR236      0.2287
     34  O         38.2620  -44.1990    2.1090 O.2   236  THR236     -0.2866
     35  CB        35.9270  -43.6110   -0.0390 C.3   236  THR236      0.1770
     36  OG1       36.6660  -42.3980    0.2260 O.3   236  THR236     -0.2211
     37  CG2       34.4570  -43.3330   -0.2560 C.3   236  THR236      0.0375
     38  N         34.1280  -48.5260    2.2870 N.3   263  GLY263     -0.1210
     39  CA        33.1210  -48.9180    1.2990 C.3   263  GLY263      0.1956
     40  C         33.2380  -48.0820    0.0480 C.2   263  GLY263      0.2612
     41  O         33.8520  -47.0160    0.0570 O.2   263  GLY263     -0.2717
     42  N         32.6590  -48.5800   -1.0450 N.am  264  GLY264     -0.1956
     43  CA        32.4650  -47.7720   -2.2240 C.3   264  GLY264      0.1869
     44  C         33.4730  -47.9370   -3.3690 C.2   264  GLY264      0.2309
     45  O         33.1530  -47.5680   -4.5130 O.2   264  GLY264     -0.2863
     46  N         34.1280  -53.2660    3.3220 N.3   289  GLY289     -0.1210
     47  CA        32.7320  -53.6320    3.0870 C.3   289  GLY289      0.1956
     48  C         32.4000  -53.3980    1.6280 C.2   289  GLY289      0.2612
     49  O         32.6670  -52.3440    1.0800 O.2   289  GLY289     -0.2717
     50  N         31.8300  -54.4130    0.9880 N.am  290  TYR290     -0.1962
     51  CA        31.3430  -54.2980   -0.3710 C.3   290  TYR290      0.1771
     52  C         29.8180  -54.3240   -0.3250 C.2   290  TYR290      0.2620
     53  O         29.2400  -55.1100    0.4070 O.2   290  TYR290     -0.2715
     54  CB        31.8580  -55.4810   -1.2060 C.3   290  TYR290      0.0574
     55  CG        31.0360  -55.7630   -2.4440 C.ar  290  TYR290     -0.0198
     56  CD1       31.2560  -55.0880   -3.6310 C.ar  290  TYR290     -0.0009
     57  CD2       29.9670  -56.6680   -2.3800 C.ar  290  TYR290     -0.0009
     58  CE1       30.4750  -55.3330   -4.7740 C.ar  290  TYR290      0.0417
     59  CE2       29.1860  -56.9220   -3.5000 C.ar  290  TYR290      0.0417
     60  CZ        29.4380  -56.2630   -4.6850 C.ar  290  TYR290      0.1957
     61  OH        28.6590  -56.5120   -5.7830 O.3   290  TYR290     -0.2866
     62  N         29.1940  -53.4540   -1.0910 N.am  291  GLY291     -0.1940
     63  CA        27.7480  -53.4620   -1.2040 C.3   291  GLY291      0.2014
     64  C         27.2460  -52.5210   -2.2730 C.2   291  GLY291      0.2638
     65  O         28.0220  -51.8560   -2.9670 O.2   291  GLY291     -0.2714
     66  N         25.9180  -52.4300   -2.3700 N.am  292  ILE292     -0.1977
     67  CA        25.2720  -51.7930   -3.5070 C.3   292  ILE292      0.1596
     68  C         23.9590  -51.2140   -3.0300 C.2   292  ILE292      0.2287
     69  O         23.2990  -51.8070   -2.1670 O.2   292  ILE292     -0.2864
     70  CB        24.9010  -52.8470   -4.5770 C.3   292  ILE292      0.0276
     71  CG1       25.9850  -53.9250   -4.6650 C.3   292  ILE292      0.0022
     72  CG2       24.6410  -52.1600   -5.8820 C.3   292  ILE292      0.0022
     73  CD1       25.5740  -55.1270   -5.5520 C.3   292  ILE292      0.0001
     74  N         22.9960  -51.3680    1.0390 N.3   297  VAL297     -0.1231
     75  CA        24.2540  -50.8160    1.5950 C.3   297  VAL297      0.1692
     76  C         25.4510  -51.7420    1.6260 C.2   297  VAL297      0.2592
     77  O         26.4520  -51.4610    0.9250 O.2   297  VAL297     -0.2718
     78  CB        24.0680  -50.2410    3.0200 C.3   297  VAL297      0.0266
     79  CG1       25.3030  -49.3630    3.3510 C.3   297  VAL297      0.0020
     80  CG2       22.7930  -49.4320    3.0920 C.3   297  VAL297      0.0020
     81  N         25.3720  -52.8230    2.4110 N.am  298  PHE298     -0.1976
     82  CA        26.4780  -53.7840    2.4990 C.3   298  PHE298      0.1639
     83  C         26.0540  -55.2260    2.2550 C.2   298  PHE298      0.2290
     84  O         24.9910  -55.6560    2.7050 O.2   298  PHE298     -0.2864
     85  CB        27.1770  -53.7320    3.8680 C.3   298  PHE298      0.0560
     86  CG        28.0450  -52.5330    4.0360 C.ar  298  PHE298     -0.0200
     87  CD1       29.1420  -52.3470    3.1990 C.ar  298  PHE298     -0.0042
     88  CD2       27.7840  -51.5990    5.0400 C.ar  298  PHE298     -0.0042
     89  CE1       29.9780  -51.2270    3.3490 C.ar  298  PHE298     -0.0003
     90  CE2       28.6070  -50.4740    5.1740 C.ar  298  PHE298     -0.0003
     91  CZ        29.6960  -50.2910    4.3350 C.ar  298  PHE298     -0.0000
     92  N         31.9190  -42.4540   -8.4610 N.3   483  LYS483     -0.1245
     93  CA        32.5920  -43.4030   -9.3530 C.3   483  LYS483      0.1561
     94  C         33.5980  -42.6790  -10.2660 C.2   483  LYS483      0.2260
     95  O         33.5210  -41.4680  -10.4560 O.2   483  LYS483     -0.2867
     96  CB        31.5580  -44.1610  -10.1950 C.3   483  LYS483      0.0271
     97  CG        30.4250  -44.7980   -9.3880 C.3   483  LYS483      0.0035
     98  CD        30.8990  -45.9530   -8.5080 C.3   483  LYS483      0.0206
     99  CE        29.7170  -46.7120   -7.8880 C.3   483  LYS483      0.1093
    100  NZ        28.9470  -45.8720   -6.9370 N.3   483  LYS483     -0.1314
@<TRIPOS>BOND
     1    95    94    2
     2    94    93    1
     3    96    97    1
     4    96    93    1
     5    97    98    1
     6    93    92    1
     7    98    99    1
     8    99   100    1
     9    72    70    1
    10    61    60    1
    11    73    71    1
    12    58    60   ar
    13    58    56   ar
    14    60    59   ar
    15    71    70    1
    16    70    67    1
    17    45    44    2
    18    56    55   ar
    19    67    68    1
    20    67    66    1
    21    59    57   ar
    22    44    43    1
    23     9    11   ar
    24     9     7   ar
    25    68    69    2
    26    65    64    2
    27    11    10   ar
    28    55    57   ar
    29    55    54    1
    30    66    64   am
    31     7     6   ar
    32    64    63    1
    33    43    42    1
    34    10     8   ar
    35    54    51    1
    36    63    62    1
    37    62    52   am
    38    42    40   am
    39     6     8   ar
    40     6     5    1
    41    51    52    1
    42    51    50    1
    43     2     1    1
    44     2     5    1
    45     2     3    1
    46    52    53    2
    47    19    17   ar
    48    37    35    1
    49    35    36    1
    50    35    32    1
    51    40    41    2
    52    40    39    1
    53    17    18   ar
    54    17    16    1
    55    12     3   am
    56    12    13    1
    57     3     4    2
    58    16    13    1
    59    77    76    2
    60    50    48   am
    61    74    75    1
    62    49    48    2
    63    32    33    1
    64    32    31    1
    65    39    38    1
    66    33    34    2
    67    13    14    1
    68    75    76    1
    69    75    78    1
    70    76    81   am
    71    48    47    1
    72    83    82    1
    73    83    84    2
    74    20    14   am
    75    20    21    1
    76    81    82    1
    77    14    15    2
    78    82    85    1
    79    27    29   ar
    80    27    25   ar
    81    29    30   ar
    82    78    80    1
    83    78    79    1
    84    47    46    1
    85    24    25    1
    86    24    21    1
    87    87    89   ar
    88    87    86   ar
    89    89    91   ar
    90    25    26   ar
    91    21    22    1
    92    85    86    1
    93    30    28   ar
    94    86    88   ar
    95    91    90   ar
    96    26    28   ar
    97    22    23    2
    98    88    90   ar
