@<TRIPOS>MOLECULE
tmp/3vnsA01.pdb
 84 82 0 0 0
SMALL
GASTEIGER

@<TRIPOS>ATOM
      1  N          0.2940   23.8550   40.3450 N.3   195  PHE195     -0.1227
      2  CA         0.4680   24.7270   41.5020 C.3   195  PHE195      0.1736
      3  C         -0.5600   24.2720   42.5340 C.2   195  PHE195      0.2595
      4  O         -1.7240   24.0790   42.1900 O.2   195  PHE195     -0.2718
      5  CB         0.1930   26.1720   41.0720 C.3   195  PHE195      0.0547
      6  CG         0.6580   27.2090   42.0520 C.ar  195  PHE195     -0.0202
      7  CD1        1.5170   26.8790   43.0910 C.ar  195  PHE195     -0.0042
      8  CD2        0.2250   28.5250   41.9360 C.ar  195  PHE195     -0.0042
      9  CE1        1.9420   27.8460   43.9940 C.ar  195  PHE195     -0.0003
     10  CE2        0.6400   29.4950   42.8350 C.ar  195  PHE195     -0.0003
     11  CZ         1.5010   29.1560   43.8660 C.ar  195  PHE195     -0.0000
     12  N         -0.1660   24.0640   43.7890 N.am  196  ASP196     -0.1960
     13  CA        -1.1480   23.4900   44.7100 C.3   196  ASP196      0.1840
     14  C         -2.2880   24.4420   45.0980 C.2   196  ASP196      0.2622
     15  O         -3.2600   24.0260   45.7200 O.2   196  ASP196     -0.2715
     16  CB        -0.5150   22.7620   45.9110 C.3   196  ASP196      0.1450
     17  CG         0.0730   23.6990   46.9360 C.2   196  ASP196      0.3671
     18  OD1       -0.0360   24.9320   46.7760 O.co2 196  ASP196     -0.2456
     19  OD2        0.6320   23.1790   47.9240 O.co2 196  ASP196     -0.2456
     20  N         -2.1910   25.7050   44.6880 N.am  197  PHE197     -0.1974
     21  CA        -3.3080   26.6340   44.8480 C.3   197  PHE197      0.1639
     22  C         -4.5420   26.0420   44.1550 C.2   197  PHE197      0.2290
     23  O         -5.6690   26.2200   44.6110 O.2   197  PHE197     -0.2864
     24  CB        -2.9640   27.9980   44.2310 C.3   197  PHE197      0.0560
     25  CG        -3.3630   29.1870   45.0820 C.ar  197  PHE197     -0.0200
     26  CD1       -4.4070   29.1030   45.9870 C.ar  197  PHE197     -0.0042
     27  CD2       -2.6840   30.3920   44.9660 C.ar  197  PHE197     -0.0042
     28  CE1       -4.7680   30.1970   46.7600 C.ar  197  PHE197     -0.0003
     29  CE2       -3.0400   31.4900   45.7390 C.ar  197  PHE197     -0.0003
     30  CZ        -4.0820   31.3930   46.6330 C.ar  197  PHE197     -0.0000
     31  N         -2.2690   33.8270   48.5450 N.3   268  GLY268     -0.1210
     32  CA        -1.2850   32.8070   48.8630 C.3   268  GLY268      0.1956
     33  C         -0.0250   32.9670   48.0300 C.2   268  GLY268      0.2612
     34  O         -0.0570   33.5780   46.9630 O.2   268  GLY268     -0.2717
     35  N          1.0920   32.4250   48.5100 N.am  269  GLY269     -0.1956
     36  CA         2.2660   32.3080   47.6680 C.3   269  GLY269      0.1869
     37  C          3.3650   33.3360   47.8520 C.2   269  GLY269      0.2309
     38  O          4.5140   33.0560   47.5350 O.2   269  GLY269     -0.2863
     39  N          1.1610   29.0190   53.1840 N.3   296  GLY296     -0.1210
     40  CA         1.2590   27.5720   53.1140 C.3   296  GLY296      0.1956
     41  C          2.3770   27.0730   52.2200 C.2   296  GLY296      0.2612
     42  O          3.0760   27.8610   51.5820 O.2   296  GLY296     -0.2717
     43  N          2.5190   25.7490   52.1610 N.am  297  ILE297     -0.1965
     44  CA         3.6320   25.0970   51.4820 C.3   297  ILE297      0.1727
     45  C          3.1480   23.7940   50.8720 C.2   297  ILE297      0.2616
     46  O          2.2720   23.1420   51.4300 O.2   297  ILE297     -0.2715
     47  CB         4.7390   24.7230   52.4950 C.3   297  ILE297      0.0290
     48  CG1        4.8730   25.8120   53.5580 C.3   297  ILE297      0.0022
     49  CG2        6.0470   24.4850   51.7820 C.3   297  ILE297      0.0023
     50  CD1        5.5910   25.3580   54.8130 C.3   297  ILE297      0.0001
     51  N          3.7240   23.3990   49.7440 N.am  298  THR298     -0.1951
     52  CA         3.3250   22.1460   49.1160 C.3   298  THR298      0.1897
     53  C          3.4190   21.0040   50.1270 C.2   298  THR298      0.2313
     54  O          2.5260   20.1600   50.2070 O.2   298  THR298     -0.2863
     55  CB         4.1760   21.8250   47.8690 C.3   298  THR298      0.1794
     56  OG1        4.1710   22.9470   46.9760 O.3   298  THR298     -0.2208
     57  CG2        3.6190   20.6090   47.1410 C.3   298  THR298      0.0378
     58  N         -0.9270   22.8020   51.0380 N.3   302  VAL302     -0.1231
     59  CA        -1.4940   24.0550   50.5160 C.3   302  VAL302      0.1692
     60  C         -1.4830   25.2430   51.4780 C.2   302  VAL302      0.2592
     61  O         -0.7620   26.2160   51.2480 O.2   302  VAL302     -0.2718
     62  CB        -2.9090   23.8620   49.9240 C.3   302  VAL302      0.0266
     63  CG1       -3.3040   25.1000   49.1000 C.3   302  VAL302      0.0020
     64  CG2       -2.9510   22.6200   49.0540 C.3   302  VAL302      0.0020
     65  N         -2.2810   25.1790   52.5410 N.am  303  PHE303     -0.1976
     66  CA        -2.3460   26.2760   53.5080 C.3   303  PHE303      0.1639
     67  C         -2.0580   25.8190   54.9410 C.2   303  PHE303      0.2290
     68  O         -2.4320   24.7160   55.3370 O.2   303  PHE303     -0.2864
     69  CB        -3.7170   26.9630   53.4700 C.3   303  PHE303      0.0560
     70  CG        -3.9020   27.9120   52.3060 C.ar  303  PHE303     -0.0200
     71  CD1       -3.1470   29.0720   52.2090 C.ar  303  PHE303     -0.0042
     72  CD2       -4.8540   27.6570   51.3310 C.ar  303  PHE303     -0.0042
     73  CE1       -3.3260   29.9540   51.1410 C.ar  303  PHE303     -0.0003
     74  CE2       -5.0370   28.5300   50.2660 C.ar  303  PHE303     -0.0003
     75  CZ        -4.2690   29.6780   50.1740 C.ar  303  PHE303     -0.0000
     76  N          6.0500   33.3580   41.4160 N.3   487  LYS487     -0.1245
     77  CA         7.0310   33.7760   42.4200 C.3   487  LYS487      0.1561
     78  C          8.2150   34.5250   41.7950 C.2   487  LYS487      0.2260
     79  O          8.6260   34.2430   40.6670 O.2   487  LYS487     -0.2867
     80  CB         7.5270   32.5940   43.2730 C.3   487  LYS487      0.0271
     81  CG         6.4550   31.5790   43.6770 C.3   487  LYS487      0.0035
     82  CD         5.7910   31.9190   45.0020 C.3   487  LYS487      0.0206
     83  CE         4.7700   30.8560   45.4030 C.3   487  LYS487      0.1093
     84  NZ         5.2940   29.9000   46.4240 N.3   487  LYS487     -0.1314
@<TRIPOS>BOND
     1     1     2    1
     2    79    78    2
     3     5     2    1
     4     5     6    1
     5    76    77    1
     6     2     3    1
     7    78    77    1
     8     8     6   ar
     9     8    10   ar
    10     6     7   ar
    11     4     3    2
    12    77    80    1
    13     3    12   am
    14    10    11   ar
    15     7     9   ar
    16    80    81    1
    17    81    82    1
    18    12    13    1
    19    11     9   ar
    20    22    23    2
    21    22    21    1
    22    24    21    1
    23    24    25    1
    24    20    21    1
    25    20    14   am
    26    13    14    1
    27    13    16    1
    28    27    25   ar
    29    27    29   ar
    30    82    83    1
    31    25    26   ar
    32    14    15    2
    33    83    84    1
    34    29    30   ar
    35    16    17    1
    36    26    28   ar
    37    30    28   ar
    38    18    17   ar
    39    17    19   ar
    40    34    33    2
    41    56    55    1
    42    57    55    1
    43    38    37    2
    44    36    37    1
    45    36    35    1
    46    55    52    1
    47    33    35   am
    48    33    32    1
    49    31    32    1
    50    64    62    1
    51    63    62    1
    52    52    51    1
    53    52    53    1
    54    51    45   am
    55    62    59    1
    56    53    54    2
    57    75    74   ar
    58    75    73   ar
    59    74    72   ar
    60    59    58    1
    61    59    60    1
    62    45    46    2
    63    45    44    1
    64    73    71   ar
    65    61    60    2
    66    72    70   ar
    67    60    65   am
    68    44    43    1
    69    44    47    1
    70    42    41    2
    71    49    47    1
    72    43    41   am
    73    71    70   ar
    74    41    40    1
    75    70    69    1
    76    47    48    1
    77    65    66    1
    78    40    39    1
    79    69    66    1
    80    66    67    1
    81    48    50    1
    82    67    68    2
