@<TRIPOS>MOLECULE
tmp/3vntA00.pdb
 231 219 0 0 0
SMALL
GASTEIGER

@<TRIPOS>ATOM
      1  N         21.0020  -28.0280   -0.0880 N.3    27  LYS27      -0.1245
      2  CA        20.0160  -28.9560   -0.6370 C.3    27  LYS27       0.1561
      3  C         20.4500  -29.5770   -1.9750 C.2    27  LYS27       0.2260
      4  O         21.1480  -28.9350   -2.7640 O.2    27  LYS27      -0.2867
      5  CB        18.6800  -28.2320   -0.8190 C.3    27  LYS27       0.0271
      6  CG        18.7060  -27.1050   -1.8550 C.3    27  LYS27       0.0035
      7  CD        17.3780  -26.3570   -1.9160 C.3    27  LYS27       0.0206
      8  CE        17.5070  -25.0440   -2.6970 C.3    27  LYS27       0.1093
      9  NZ        16.2270  -24.2500   -2.6460 N.3    27  LYS27      -0.1314
     10  N         20.2660  -30.5100   -5.8060 N.3    29  LEU29      -0.1245
     11  CA        19.7540  -29.8920   -7.0300 C.3    29  LEU29       0.1561
     12  C         19.3580  -30.9550   -8.0470 C.2    29  LEU29       0.2260
     13  O         18.5660  -30.6950   -8.9630 O.2    29  LEU29      -0.2867
     14  CB        20.8180  -28.9770   -7.6440 C.3    29  LEU29       0.0270
     15  CG        21.2080  -27.7450   -6.8230 C.3    29  LEU29       0.0019
     16  CD1       22.4120  -27.0480   -7.4420 C.3    29  LEU29       0.0001
     17  CD2       20.0230  -26.7750   -6.6400 C.3    29  LEU29       0.0001
     18  N         24.0720  -33.6340   -7.5410 N.3    37  VAL37      -0.1245
     19  CA        24.5970  -32.2660   -7.4990 C.3    37  VAL37       0.1561
     20  C         23.9080  -31.5620   -6.3340 C.2    37  VAL37       0.2260
     21  O         22.6690  -31.6320   -6.1770 O.2    37  VAL37      -0.2867
     22  CB        24.3690  -31.5070   -8.8350 C.3    37  VAL37       0.0252
     23  CG1       24.7190  -30.0230   -8.6880 C.3    37  VAL37       0.0019
     24  CG2       25.2050  -32.1310   -9.9520 C.3    37  VAL37       0.0019
     25  N         23.6080  -27.9460   -3.9530 N.3    39  GLU39      -0.1245
     26  CA        23.8670  -26.5140   -3.8010 C.3    39  GLU39       0.1567
     27  C         24.7850  -26.3090   -2.6070 C.2    39  GLU39       0.2260
     28  O         24.6270  -26.9700   -1.5860 O.2    39  GLU39      -0.2867
     29  CB        22.5630  -25.7560   -3.5800 C.3    39  GLU39       0.0388
     30  CG        22.7190  -24.2570   -3.7370 C.3    39  GLU39       0.1160
     31  CD        21.4180  -23.5030   -3.5350 C.2    39  GLU39       0.3649
     32  OE1       20.3730  -23.9670   -4.0370 O.co2  39  GLU39      -0.2457
     33  OE2       21.4420  -22.4370   -2.8770 O.co2  39  GLU39      -0.2457
     34  N         27.5400  -25.0730   -7.3130 N.3    55  ALA55      -0.1245
     35  CA        26.9300  -26.3950   -7.5280 C.3    55  ALA55       0.1562
     36  C         28.0420  -27.4340   -7.4160 C.2    55  ALA55       0.2260
     37  O         29.0590  -27.3020   -8.0580 O.2    55  ALA55      -0.2867
     38  CB        26.2820  -26.4570   -8.9000 C.3    55  ALA55       0.0290
     39  N         29.1260  -31.4200   -7.7030 N.3    57  LYS57      -0.1245
     40  CA        28.8590  -32.7860   -8.1140 C.3    57  LYS57       0.1561
     41  C         29.6720  -33.7570   -7.2540 C.2    57  LYS57       0.2260
     42  O         30.8630  -33.5750   -7.0320 O.2    57  LYS57      -0.2867
     43  CB        29.1720  -33.0190   -9.5900 C.3    57  LYS57       0.0271
     44  CG        28.7330  -34.3980  -10.0670 C.3    57  LYS57       0.0035
     45  CD        29.0400  -34.6140  -11.5430 C.3    57  LYS57       0.0206
     46  CE        28.0230  -33.9350  -12.4500 C.3    57  LYS57       0.1093
     47  NZ        28.4140  -34.1510  -13.8790 N.3    57  LYS57      -0.1314
     48  N         36.1440  -36.5900  -15.1460 N.3    74  GLU74      -0.1245
     49  CA        35.3520  -35.3860  -15.4050 C.3    74  GLU74       0.1567
     50  C         36.0770  -34.1260  -14.9340 C.2    74  GLU74       0.2260
     51  O         36.1850  -33.1370  -15.6810 O.2    74  GLU74      -0.2867
     52  CB        33.9870  -35.4890  -14.7360 C.3    74  GLU74       0.0388
     53  CG        33.1450  -34.2100  -14.8720 C.3    74  GLU74       0.1160
     54  CD        31.6810  -34.4000  -14.4990 C.2    74  GLU74       0.3649
     55  OE1       31.1680  -35.5370  -14.6070 O.co2  74  GLU74      -0.2457
     56  OE2       31.0430  -33.3920  -14.1110 O.co2  74  GLU74      -0.2457
     57  N         38.9410  -33.3100  -17.2930 N.3    77  ILE77      -0.1231
     58  CA        38.5110  -32.7560  -18.5770 C.3    77  ILE77       0.1692
     59  C         38.0610  -31.3030  -18.4130 C.2    77  ILE77       0.2591
     60  O         38.3530  -30.4710  -19.2730 O.2    77  ILE77      -0.2718
     61  CB        37.4870  -33.6670  -19.3320 C.3    77  ILE77       0.0266
     62  CG1       37.5300  -33.4030  -20.8500 C.3    77  ILE77       0.0019
     63  CG2       36.0860  -33.4220  -18.8810 C.3    77  ILE77       0.0020
     64  CD1       38.8820  -33.6790  -21.5230 C.3    77  ILE77       0.0001
     65  N         37.3900  -30.9840  -17.3000 N.am   78  LEU78      -0.1980
     66  CA        36.9490  -29.6030  -17.0510 C.3    78  LEU78       0.1596
     67  C         38.1300  -28.6570  -16.9170 C.2    78  LEU78       0.2287
     68  O         38.0730  -27.5100  -17.3880 O.2    78  LEU78      -0.2864
     69  CB        36.0260  -29.5220  -15.8170 C.3    78  LEU78       0.0297
     70  CG        34.6670  -30.2200  -15.9560 C.3    78  LEU78       0.0022
     71  CD1       33.8540  -30.1640  -14.6420 C.3    78  LEU78       0.0001
     72  CD2       33.8920  -29.5810  -17.0880 C.3    78  LEU78       0.0001
     73  N         39.5540  -28.2160  -20.5490 N.3    81  ILE81      -0.1245
     74  CA        38.6820  -27.4510  -21.4260 C.3    81  ILE81       0.1561
     75  C         38.8840  -25.9480  -21.1960 C.2    81  ILE81       0.2260
     76  O         39.0520  -25.1810  -22.1550 O.2    81  ILE81      -0.2867
     77  CB        37.2060  -27.8950  -21.2670 C.3    81  ILE81       0.0252
     78  CG1       36.9850  -29.2270  -21.9990 C.3    81  ILE81       0.0019
     79  CG2       36.2490  -26.8570  -21.8290 C.3    81  ILE81       0.0019
     80  CD1       35.7450  -30.0120  -21.5680 C.3    81  ILE81       0.0001
     81  N         29.7060  -22.1430  -21.0630 N.3    87  VAL87      -0.1231
     82  CA        29.8280  -23.4820  -20.4590 C.3    87  VAL87       0.1692
     83  C         29.8870  -23.2730  -18.9450 C.2    87  VAL87       0.2591
     84  O         30.4750  -22.2780  -18.4810 O.2    87  VAL87      -0.2718
     85  CB        31.1040  -24.2000  -20.9640 C.3    87  VAL87       0.0266
     86  CG1       31.2140  -25.5800  -20.3960 C.3    87  VAL87       0.0020
     87  CG2       31.1080  -24.2800  -22.4870 C.3    87  VAL87       0.0020
     88  N         29.3000  -24.1840  -18.1660 N.am   88  VAL88      -0.1980
     89  CA        29.4140  -24.0670  -16.7040 C.3    88  VAL88       0.1595
     90  C         30.8850  -24.2190  -16.3430 C.2    88  VAL88       0.2287
     91  O         31.5540  -25.1520  -16.7750 O.2    88  VAL88      -0.2864
     92  CB        28.5200  -25.0390  -15.8870 C.3    88  VAL88       0.0276
     93  CG1       27.0610  -24.8230  -16.2090 C.3    88  VAL88       0.0022
     94  CG2       28.9110  -26.4620  -16.1050 C.3    88  VAL88       0.0022
     95  N         33.3590  -31.9220   -7.1610 N.3   103  VAL103     -0.1245
     96  CA        33.6930  -31.0780   -8.3060 C.3   103  VAL103      0.1561
     97  C         32.7820  -29.8580   -8.2450 C.2   103  VAL103      0.2260
     98  O         31.5680  -29.9810   -8.3490 O.2   103  VAL103     -0.2867
     99  CB        33.5460  -31.8540   -9.6390 C.3   103  VAL103      0.0252
    100  CG1       33.9280  -30.9680  -10.8180 C.3   103  VAL103      0.0019
    101  CG2       34.4350  -33.1140   -9.6090 C.3   103  VAL103      0.0019
    102  N         31.4040  -26.2340   -9.3960 N.3   105  VAL105     -0.1231
    103  CA        31.2250  -25.3720  -10.5600 C.3   105  VAL105      0.1692
    104  C         30.2460  -24.2360  -10.2820 C.2   105  VAL105      0.2592
    105  O         29.5850  -24.2110   -9.2300 O.2   105  VAL105     -0.2718
    106  CB        30.7340  -26.1850  -11.8060 C.3   105  VAL105      0.0266
    107  CG1       31.6610  -27.3710  -12.0900 C.3   105  VAL105      0.0020
    108  CG2       29.2670  -26.6350  -11.6490 C.3   105  VAL105      0.0020
    109  N         30.1490  -23.3070  -11.2340 N.am  106  GLU106     -0.1966
    110  CA        29.2090  -22.1960  -11.1150 C.3   106  GLU106      0.1733
    111  C         27.7610  -22.6830  -10.9230 C.2   106  GLU106      0.2616
    112  O         27.3150  -23.6390  -11.5530 O.2   106  GLU106     -0.2715
    113  CB        29.2890  -21.3070  -12.3610 C.3   106  GLU106      0.0429
    114  CG        30.7030  -20.8820  -12.7460 C.3   106  GLU106      0.1163
    115  CD        30.7690  -20.2280  -14.1200 C.2   106  GLU106      0.3649
    116  OE1       30.1570  -20.7630  -15.0820 O.co2 106  GLU106     -0.2457
    117  OE2       31.4390  -19.1770  -14.2360 O.co2 106  GLU106     -0.2457
    118  N         27.0300  -22.0070  -10.0370 N.am  107  PHE107     -0.1960
    119  CA        25.5930  -22.2440   -9.8740 C.3   107  PHE107      0.1771
    120  C         24.8010  -21.3610  -10.8340 C.2   107  PHE107      0.2620
    121  O         25.0840  -20.1770  -10.9560 O.2   107  PHE107     -0.2715
    122  CB        25.1800  -21.9430   -8.4300 C.3   107  PHE107      0.0574
    123  CG        23.7040  -22.0190   -8.1750 C.ar  107  PHE107     -0.0200
    124  CD1       23.0480  -23.2560   -8.0920 C.ar  107  PHE107     -0.0042
    125  CD2       22.9630  -20.8490   -7.9790 C.ar  107  PHE107     -0.0042
    126  CE1       21.6720  -23.3220   -7.8340 C.ar  107  PHE107     -0.0003
    127  CE2       21.5880  -20.9080   -7.7300 C.ar  107  PHE107     -0.0003
    128  CZ        20.9450  -22.1440   -7.6590 C.ar  107  PHE107     -0.0000
    129  N         23.7940  -21.9390  -11.4940 N.am  108  CYS108     -0.1954
    130  CA        22.9680  -21.2010  -12.4530 C.3   108  CYS108      0.1843
    131  C         21.5580  -21.0280  -11.9030 C.2   108  CYS108      0.2625
    132  O         20.8020  -21.9970  -11.7670 O.2   108  CYS108     -0.2714
    133  CB        22.9520  -21.9220  -13.8060 C.3   108  CYS108      0.0997
    134  SG        24.6070  -22.0880  -14.5340 S.3   108  CYS108     -0.0797
    135  N         21.2150  -19.7760  -11.6040 N.am  109  LYS109     -0.1963
    136  CA        20.0240  -19.4230  -10.8300 C.3   109  LYS109      0.1728
    137  C         18.7330  -20.0920  -11.3090 C.2   109  LYS109      0.2616
    138  O         17.9280  -20.5560  -10.4900 O.2   109  LYS109     -0.2715
    139  CB        19.8610  -17.8910  -10.8210 C.3   109  LYS109      0.0311
    140  CG        18.7290  -17.3600   -9.9530 C.3   109  LYS109      0.0038
    141  CD        18.9780  -15.9030   -9.5670 C.3   109  LYS109      0.0206
    142  CE        17.8480  -15.3250   -8.7220 C.3   109  LYS109      0.1093
    143  NZ        16.6250  -15.0350   -9.5150 N.3   109  LYS109     -0.1314
    144  N         18.5280  -20.1450  -12.6230 N.am  110  PHE110     -0.1960
    145  CA        17.2220  -20.5740  -13.1500 C.3   110  PHE110      0.1771
    146  C         17.1380  -22.0480  -13.5340 C.2   110  PHE110      0.2620
    147  O         16.0540  -22.5670  -13.7930 O.2   110  PHE110     -0.2715
    148  CB        16.7450  -19.6480  -14.2770 C.3   110  PHE110      0.0574
    149  CG        16.5600  -18.2410  -13.8250 C.ar  110  PHE110     -0.0200
    150  CD1       15.3920  -17.8590  -13.1710 C.ar  110  PHE110     -0.0042
    151  CD2       17.5700  -17.3100  -13.9860 C.ar  110  PHE110     -0.0042
    152  CE1       15.2270  -16.5570  -12.7230 C.ar  110  PHE110     -0.0003
    153  CE2       17.4130  -16.0030  -13.5410 C.ar  110  PHE110     -0.0003
    154  CZ        16.2420  -15.6260  -12.9040 C.ar  110  PHE110     -0.0000
    155  N         18.2790  -22.7260  -13.5330 N.am  111  GLY111     -0.1954
    156  CA        18.3000  -24.1570  -13.7660 C.3   111  GLY111      0.1869
    157  C         18.0620  -24.5080  -15.2130 C.2   111  GLY111      0.2309
    158  O         18.3050  -23.6790  -16.1150 O.2   111  GLY111     -0.2863
    159  N         33.7480  -25.7040  -27.2570 N.3   152  LEU152     -0.1245
    160  CA        34.0470  -27.1000  -26.8970 C.3   152  LEU152      0.1561
    161  C         34.7470  -27.8230  -28.0440 C.2   152  LEU152      0.2260
    162  O         35.7520  -28.4900  -27.8320 O.2   152  LEU152     -0.2867
    163  CB        32.7760  -27.8420  -26.4810 C.3   152  LEU152      0.0270
    164  CG        32.2280  -27.3830  -25.1200 C.3   152  LEU152      0.0019
    165  CD1       30.8910  -28.0430  -24.8460 C.3   152  LEU152      0.0001
    166  CD2       33.2190  -27.6700  -23.9820 C.3   152  LEU152      0.0001
    167  N         36.7830  -31.4980  -27.7510 N.3   157  CYS157     -0.1221
    168  CA        35.8540  -32.2390  -26.9200 C.3   157  CYS157      0.1808
    169  C         34.4750  -32.2790  -27.5490 C.2   157  CYS157      0.2601
    170  O         34.0440  -31.3270  -28.2100 O.2   157  CYS157     -0.2717
    171  CB        35.8090  -31.6530  -25.5100 C.3   157  CYS157      0.0970
    172  SG        37.3540  -31.9070  -24.6010 S.3   157  CYS157     -0.0800
    173  N         33.8000  -33.4020  -27.3430 N.am  158  ILE158     -0.1965
    174  CA        32.4730  -33.6330  -27.8840 C.3   158  ILE158      0.1727
    175  C         31.5380  -33.8510  -26.6860 C.2   158  ILE158      0.2616
    176  O         31.9420  -34.4500  -25.6810 O.2   158  ILE158     -0.2715
    177  CB        32.4720  -34.8080  -28.8940 C.3   158  ILE158      0.0290
    178  CG1       31.0590  -35.3790  -29.0810 C.3   158  ILE158      0.0022
    179  CG2       33.4790  -35.8650  -28.4880 C.3   158  ILE158      0.0023
    180  CD1       31.0230  -36.6450  -29.8370 C.3   158  ILE158      0.0001
    181  N         30.3110  -33.3400  -26.7720 N.am  159  HIS159     -0.1973
    182  CA        29.4050  -33.3590  -25.6250 C.3   159  HIS159      0.1656
    183  C         28.7290  -34.7250  -25.4050 C.2   159  HIS159      0.2291
    184  O         28.7810  -35.2720  -24.3000 O.2   159  HIS159     -0.2864
    185  CB        28.3580  -32.2480  -25.7550 C.3   159  HIS159      0.0771
    186  CG        27.5820  -32.0210  -24.5030 C.ar  159  HIS159      0.0820
    187  ND1       26.6840  -32.9440  -24.0080 N.ar  159  HIS159     -0.2267
    188  CD2       27.5590  -30.9720  -23.6470 C.ar  159  HIS159      0.1154
    189  CE1       26.1480  -32.4750  -22.8940 C.ar  159  HIS159      0.1986
    190  NE2       26.6620  -31.2810  -22.6550 N.ar  159  HIS159     -0.2212
    191  N         21.7370  -24.6400  -18.9100 N.3   168  LEU168     -0.1245
    192  CA        21.2830  -23.9810  -17.6940 C.3   168  LEU168      0.1561
    193  C         21.1950  -22.4820  -17.9130 C.2   168  LEU168      0.2260
    194  O         22.0160  -21.8940  -18.6200 O.2   168  LEU168     -0.2867
    195  CB        22.2130  -24.2750  -16.5150 C.3   168  LEU168      0.0270
    196  CG        22.4970  -25.7490  -16.2100 C.3   168  LEU168      0.0019
    197  CD1       23.5100  -25.8470  -15.1060 C.3   168  LEU168      0.0001
    198  CD2       21.2020  -26.4940  -15.8540 C.3   168  LEU168      0.0001
    199  N         26.1840  -24.3990  -21.1530 N.3   177  ILE177     -0.1231
    200  CA        26.1320  -25.8260  -21.4020 C.3   177  ILE177      0.1692
    201  C         26.6500  -26.5630  -20.1870 C.2   177  ILE177      0.2592
    202  O         27.6890  -26.1940  -19.6250 O.2   177  ILE177     -0.2718
    203  CB        26.9800  -26.2030  -22.6520 C.3   177  ILE177      0.0266
    204  CG1       26.4270  -25.5070  -23.9100 C.3   177  ILE177      0.0019
    205  CG2       27.0810  -27.7300  -22.8490 C.3   177  ILE177      0.0020
    206  CD1       27.4510  -25.4270  -25.0060 C.3   177  ILE177      0.0001
    207  N         25.9400  -27.6110  -19.7890 N.am  178  CYS178     -0.1956
    208  CA        26.4560  -28.5040  -18.7460 C.3   178  CYS178      0.1843
    209  C         26.3240  -29.9730  -19.1390 C.2   178  CYS178      0.2625
    210  O         25.8600  -30.2940  -20.2370 O.2   178  CYS178     -0.2714
    211  CB        25.7530  -28.2190  -17.4280 C.3   178  CYS178      0.0997
    212  SG        24.0680  -28.8480  -17.3410 S.3   178  CYS178     -0.0797
    213  N         26.7450  -30.8600  -18.2420 N.am  179  ASP179     -0.1957
    214  CA        26.4700  -32.2860  -18.3780 C.3   179  ASP179      0.1840
    215  C         26.1990  -32.8250  -16.9750 C.2   179  ASP179      0.2622
    216  O         27.1160  -32.9960  -16.1760 O.2   179  ASP179     -0.2715
    217  CB        27.6470  -32.9910  -19.0530 C.3   179  ASP179      0.1450
    218  CG        27.3410  -34.4290  -19.4440 C.2   179  ASP179      0.3671
    219  OD1       26.3190  -34.9870  -19.0100 O.co2 179  ASP179     -0.2456
    220  OD2       28.1520  -35.0130  -20.1960 O.co2 179  ASP179     -0.2456
    221  N         24.9280  -33.0740  -16.6850 N.am  180  PHE180     -0.1974
    222  CA        24.5120  -33.4830  -15.3580 C.3   180  PHE180      0.1639
    223  C         25.0470  -34.8940  -15.1030 C.2   180  PHE180      0.2290
    224  O         25.3860  -35.2410  -13.9750 O.2   180  PHE180     -0.2864
    225  CB        22.9840  -33.4410  -15.2970 C.3   180  PHE180      0.0560
    226  CG        22.4190  -32.9340  -14.0080 C.ar  180  PHE180     -0.0200
    227  CD1       22.8530  -31.7520  -13.4340 C.ar  180  PHE180     -0.0042
    228  CD2       21.3870  -33.6400  -13.3840 C.ar  180  PHE180     -0.0042
    229  CE1       22.2890  -31.2870  -12.2370 C.ar  180  PHE180     -0.0003
    230  CE2       20.8180  -33.1870  -12.1890 C.ar  180  PHE180     -0.0003
    231  CZ        21.2760  -32.0070  -11.6100 C.ar  180  PHE180     -0.0000
@<TRIPOS>BOND
     1   180   178    1
     2   178   177    1
     3   177   179    1
     4   177   174    1
     5   170   169    2
     6   161   162    2
     7   161   160    1
     8   174   173    1
     9   174   175    1
    10   167   168    1
    11   169   173   am
    12   169   168    1
    13   159   160    1
    14   168   171    1
    15   160   163    1
    16   181   175   am
    17   181   182    1
    18   175   176    2
    19   163   164    1
    20   185   182    1
    21   185   186    1
    22   182   183    1
    23   171   172    1
    24   183   184    2
    25   164   165    1
    26   164   166    1
    27   206   204    1
    28   186   187   ar
    29   186   188   ar
    30   187   189   ar
    31   204   203    1
    32   188   190   ar
    33   189   190   ar
    34   205   203    1
    35   203   200    1
    36    87    85    1
    37    76    75    2
    38    78    80    1
    39    78    77    1
    40    79    77    1
    41    64    62    1
    42    74    77    1
    43    74    75    1
    44    74    73    1
    45   200   199    1
    46   200   201    1
    47    81    82    1
    48    85    82    1
    49    85    86    1
    50    62    61    1
    51    82    83    1
    52   210   209    2
    53   220   218   ar
    54   201   207   am
    55   201   202    2
    56   207   208    1
    57   218   217    1
    58   218   219   ar
    59    61    63    1
    60    61    58    1
    61    60    59    2
    62   209   208    1
    63   209   213   am
    64   217   214    1
    65    83    84    2
    66    83    88   am
    67   191   192    1
    68   208   211    1
    69   194   193    2
    70    58    59    1
    71    58    57    1
    72    59    65   am
    73   214   213    1
    74   214   215    1
    75    88    89    1
    76   193   192    1
    77   192   195    1
    78   211   212    1
    79    68    67    2
    80    65    66    1
    81    72    70    1
    82    66    67    1
    83    66    69    1
    84   215   221   am
    85   215   216    2
    86    91    90    2
    87    89    90    1
    88    89    92    1
    89   221   222    1
    90   195   196    1
    91   196   198    1
    92   196   197    1
    93    93    92    1
    94   158   157    2
    95    94    92    1
    96    70    69    1
    97    70    71    1
    98    51    50    2
    99    49    48    1
   100    49    50    1
   101    49    52    1
   102   222   225    1
   103   222   223    1
   104   225   226    1
   105   157   156    1
   106   223   224    2
   107   116   115   ar
   108    53    52    1
   109    53    54    1
   110    55    54   ar
   111   134   133    1
   112    54    56   ar
   113   148   149    1
   114   148   145    1
   115   117   115   ar
   116   115   114    1
   117   226   227   ar
   118   226   228   ar
   119   151   149   ar
   120   151   153   ar
   121    47    46    1
   122   149   150   ar
   123   133   130    1
   124   147   146    2
   125   156   155    1
   126   153   154   ar
   127   146   155   am
   128   146   145    1
   129   227   229   ar
   130   228   230   ar
   131   150   152   ar
   132   145   144    1
   133   154   152   ar
   134   114   113    1
   135   144   137   am
   136   130   131    1
   137   130   129    1
   138    46    45    1
   139   113   110    1
   140   229   231   ar
   141   230   231   ar
   142   107   106    1
   143   131   132    2
   144   131   135   am
   145   106   108    1
   146   106   103    1
   147   135   136    1
   148   112   111    2
   149    45    44    1
   150   129   120   am
   151   137   136    1
   152   137   138    2
   153   109   110    1
   154   109   104   am
   155   110   111    1
   156   121   120    2
   157   111   118   am
   158   120   119    1
   159   136   139    1
   160   139   140    1
   161   100    99    1
   162   103   104    1
   163   103   102    1
   164   104   105    2
   165    44    43    1
   166   118   119    1
   167   140   141    1
   168    24    22    1
   169   119   122    1
   170    99   101    1
   171    99    96    1
   172    43    40    1
   173   141   142    1
   174   143   142    1
   175    13    12    2
   176    38    35    1
   177    22    23    1
   178    22    19    1
   179   122   123    1
   180    98    97    2
   181    96    97    1
   182    96    95    1
   183   123   124   ar
   184   123   125   ar
   185    40    39    1
   186    40    41    1
   187   124   126   ar
   188    37    36    2
   189    12    11    1
   190   125   127   ar
   191   126   128   ar
   192   127   128   ar
   193    14    11    1
   194    14    15    1
   195    18    19    1
   196    35    36    1
   197    35    34    1
   198    19    20    1
   199    16    15    1
   200    41    42    2
   201    11    10    1
   202    15    17    1
   203    20    21    2
   204    32    31   ar
   205    25    26    1
   206    26    29    1
   207    26    27    1
   208    30    29    1
   209    30    31    1
   210    31    33   ar
   211     4     3    2
   212     8     9    1
   213     8     7    1
   214    27    28    2
   215     3     2    1
   216     7     6    1
   217     6     5    1
   218     5     2    1
   219     2     1    1
