@<TRIPOS>MOLECULE
tmp/3vnzA00.pdb
 135 129 0 0 0
SMALL
GASTEIGER

@<TRIPOS>ATOM
      1  N         33.4070   -7.3380   32.9550 N.3    28  GLU28      -0.1245
      2  CA        34.1170   -7.0140   31.7200 C.3    28  GLU28       0.1567
      3  C         33.7200   -7.9820   30.6190 C.2    28  GLU28       0.2260
      4  O         33.6870   -9.2020   30.8460 O.2    28  GLU28      -0.2867
      5  CB        35.6290   -7.1350   31.9360 C.3    28  GLU28       0.0388
      6  CG        36.2890   -6.0390   32.8170 C.3    28  GLU28       0.1160
      7  CD        36.1690   -4.6400   32.2620 C.2    28  GLU28       0.3649
      8  OE1       35.9600   -4.4830   31.0300 O.co2  28  GLU28      -0.2457
      9  OE2       36.2620   -3.6790   33.0940 O.co2  28  GLU28      -0.2457
     10  N         31.9560   -2.6980   29.9820 N.3    62  GLY62      -0.1210
     11  CA        33.1930   -2.1540   30.4960 C.3    62  GLY62       0.1956
     12  C         34.1550   -1.7590   29.3940 C.2    62  GLY62       0.2611
     13  O         33.8460   -1.9050   28.2120 O.2    62  GLY62      -0.2717
     14  N         35.3350   -1.3060   29.7840 N.am   63  ASN63      -0.1974
     15  CA        36.3530   -0.8780   28.8190 C.3    63  ASN63       0.1688
     16  C         36.7000   -1.9950   27.8430 C.2    63  ASN63       0.2292
     17  O         36.9900   -1.7320   26.6700 O.2    63  ASN63      -0.2864
     18  CB        37.6080   -0.4530   29.5420 C.3    63  ASN63       0.1181
     19  CG        37.4480    0.8870   30.2130 C.2    63  ASN63       0.2629
     20  OD1       36.5330    1.6200   29.8880 O.2    63  ASN63      -0.2716
     21  ND2       38.3370    1.2030   31.1550 N.am   63  ASN63      -0.0877
     22  N         38.7980   -3.6980   34.2880 N.3    88  ASP88      -0.1225
     23  CA        39.8620   -2.9890   33.5470 C.3    88  ASP88       0.1805
     24  C         40.3950   -1.8250   34.3830 C.2    88  ASP88       0.2598
     25  O         39.6140   -1.1370   35.0460 O.2    88  ASP88      -0.2718
     26  CB        39.2940   -2.4600   32.2300 C.3    88  ASP88       0.1424
     27  CG        40.3740   -1.8990   31.3170 C.2    88  ASP88       0.3668
     28  OD1       41.1700   -2.7000   30.7680 O.co2  88  ASP88      -0.2456
     29  OD2       40.4350   -0.6560   31.1870 O.co2  88  ASP88      -0.2456
     30  N         41.7060   -1.5910   34.3650 N.am   89  LYS89      -0.1966
     31  CA        42.2640   -0.5550   35.2370 C.3    89  LYS89       0.1728
     32  C         42.3260    0.8120   34.5650 C.2    89  LYS89       0.2616
     33  O         42.7290    1.8020   35.1940 O.2    89  LYS89      -0.2715
     34  CB        43.6330   -0.9610   35.7700 C.3    89  LYS89       0.0311
     35  CG        43.6080   -2.1350   36.7160 C.3    89  LYS89       0.0038
     36  CD        44.9360   -2.2320   37.4390 C.3    89  LYS89       0.0206
     37  CE        44.8950   -3.2820   38.5320 C.3    89  LYS89       0.1093
     38  NZ        44.8230   -4.6610   37.9800 N.3    89  LYS89      -0.1314
     39  N         41.9400    0.8530   33.2900 N.am   90  GLY90      -0.1955
     40  CA        41.7730    2.0870   32.5240 C.3    90  GLY90       0.1869
     41  C         43.0300    2.8830   32.1910 C.2    90  GLY90       0.2309
     42  O         42.9240    4.0520   31.7930 O.2    90  GLY90      -0.2863
     43  N         30.6840    1.2760   25.5090 N.3   155  ASN155     -0.1225
     44  CA        30.7550    1.5360   26.9310 C.3   155  ASN155      0.1785
     45  C         31.3900    2.9070   27.1580 C.2   155  ASN155      0.2597
     46  O         32.4600    3.1960   26.6110 O.2   155  ASN155     -0.2718
     47  CB        31.6410    0.4910   27.5660 C.3   155  ASN155      0.1169
     48  CG        31.9580    0.8020   28.9920 C.2   155  ASN155      0.2627
     49  OD1       31.0910    0.7070   29.8630 O.2   155  ASN155     -0.2716
     50  ND2       33.1990    1.1520   29.2520 N.am  155  ASN155     -0.0877
     51  N         30.7720    3.7180   28.0190 N.am  156  GLU156     -0.1979
     52  CA        31.2880    5.0520   28.3390 C.3   156  GLU156      0.1602
     53  C         31.7930    5.8200   27.1050 C.2   156  GLU156      0.2287
     54  O         32.9650    6.2030   27.0590 O.2   156  GLU156     -0.2864
     55  CB        32.3860    4.9580   29.3880 C.3   156  GLU156      0.0415
     56  CG        31.9230    4.2430   30.6640 C.3   156  GLU156      0.1163
     57  CD        32.9010    4.3280   31.7890 C.2   156  GLU156      0.3649
     58  OE1       34.1140    4.5480   31.5550 O.co2 156  GLU156     -0.2457
     59  OE2       32.4640    4.1520   32.9590 O.co2 156  GLU156     -0.2457
     60  N         33.9640    9.1040   27.0110 N.3   159  LEU159     -0.1245
     61  CA        35.3710    9.1320   27.3170 C.3   159  LEU159      0.1561
     62  C         36.1920    8.7640   26.0970 C.2   159  LEU159      0.2260
     63  O         37.4250    8.7320   26.1710 O.2   159  LEU159     -0.2867
     64  CB        35.7160    8.2140   28.4920 C.3   159  LEU159      0.0270
     65  CG        35.1500    8.5930   29.8600 C.3   159  LEU159      0.0019
     66  CD1       35.7300    7.6790   30.9190 C.3   159  LEU159      0.0001
     67  CD2       35.4440   10.0720   30.1710 C.3   159  LEU159      0.0001
     68  N         31.1480    6.1830   39.7360 N.3   226  TYR226     -0.1241
     69  CA        32.2140    5.7780   40.6200 C.3   226  TYR226      0.1605
     70  C         32.4250    6.8670   41.6680 C.2   226  TYR226      0.2264
     71  O         32.5470    8.0480   41.3240 O.2   226  TYR226     -0.2867
     72  CB        33.5110    5.5080   39.8550 C.3   226  TYR226      0.0534
     73  CG        33.4950    4.1310   39.2390 C.ar  226  TYR226     -0.0201
     74  CD1       32.7720    3.8910   38.0870 C.ar  226  TYR226     -0.0009
     75  CD2       34.1690    3.0660   39.8450 C.ar  226  TYR226     -0.0009
     76  CE1       32.7170    2.6050   37.5330 C.ar  226  TYR226      0.0417
     77  CE2       34.1380    1.7620   39.2800 C.ar  226  TYR226      0.0417
     78  CZ        33.3970    1.5580   38.1410 C.ar  226  TYR226      0.1957
     79  OH        33.3340    0.3110   37.5410 O.3   226  TYR226     -0.2866
     80  N         26.6500    0.5040   35.6710 N.3   270  GLU270     -0.1245
     81  CA        27.9960    0.2350   36.1390 C.3   270  GLU270      0.1567
     82  C         28.3680    1.1990   37.2490 C.2   270  GLU270      0.2260
     83  O         28.3590    2.4140   37.0750 O.2   270  GLU270     -0.2867
     84  CB        29.0420    0.2820   35.0200 C.3   270  GLU270      0.0388
     85  CG        30.3810   -0.3140   35.4340 C.3   270  GLU270      0.1160
     86  CD        31.5040    0.0120   34.4590 C.2   270  GLU270      0.3649
     87  OE1       31.3150   -0.1510   33.2360 O.co2 270  GLU270     -0.2457
     88  OE2       32.5840    0.3920   34.9300 O.co2 270  GLU270     -0.2457
     89  N         37.3770    4.1070   40.8580 N.3   275  TYR275     -0.1227
     90  CA        37.7620    3.6540   39.5140 C.3   275  TYR275      0.1736
     91  C         39.2460    3.2520   39.4020 C.2   275  TYR275      0.2595
     92  O         39.9440    3.1330   40.4080 O.2   275  TYR275     -0.2718
     93  CB        37.3160    4.6450   38.4370 C.3   275  TYR275      0.0548
     94  CG        37.9500    6.0440   38.5200 C.ar  275  TYR275     -0.0200
     95  CD1       39.2780    6.2580   38.1330 C.ar  275  TYR275     -0.0009
     96  CD2       37.2000    7.1410   38.9320 C.ar  275  TYR275     -0.0009
     97  CE1       39.8570    7.5510   38.1920 C.ar  275  TYR275      0.0417
     98  CE2       37.7610    8.4450   38.9790 C.ar  275  TYR275      0.0417
     99  CZ        39.0840    8.6320   38.6070 C.ar  275  TYR275      0.1957
    100  OH        39.6420    9.9010   38.6480 O.3   275  TYR275     -0.2866
    101  N         39.7150    3.0370   38.1650 N.am  276  GLN276     -0.1965
    102  CA        41.0010    2.3750   37.9030 C.3   276  GLN276      0.1733
    103  C         41.1590    1.0910   38.7150 C.2   276  GLN276      0.2616
    104  O         42.2270    0.7630   39.2400 O.2   276  GLN276     -0.2715
    105  CB        42.1810    3.3490   38.0780 C.3   276  GLN276      0.0408
    106  CG        42.1820    4.3740   36.9570 C.3   276  GLN276      0.0908
    107  CD        43.1660    5.5060   37.1800 C.2   276  GLN276      0.2608
    108  OE1       44.1300    5.3810   37.9390 O.2   276  GLN276     -0.2717
    109  NE2       42.9440    6.6010   36.4870 N.am  276  GLN276     -0.0878
    110  N         40.0620    0.3550   38.8160 N.am  277  GLY277     -0.1955
    111  CA        40.1280   -0.9610   39.4230 C.3   277  GLY277      0.1869
    112  C         40.0540   -0.9790   40.9340 C.2   277  GLY277      0.2309
    113  O         40.2940   -2.0210   41.5580 O.2   277  GLY277     -0.2863
    114  N         30.0570   -3.2040   39.3930 N.3   310  HIS310     -0.1241
    115  CA        31.1580   -3.7770   38.6080 C.3   310  HIS310      0.1621
    116  C         32.1050   -4.6690   39.4180 C.2   310  HIS310      0.2264
    117  O         32.3800   -4.4480   40.6160 O.2   310  HIS310     -0.2867
    118  CB        31.9550   -2.6350   37.9300 C.3   310  HIS310      0.0745
    119  CG        32.6800   -3.0490   36.6830 C.ar  310  HIS310      0.0817
    120  ND1       32.0360   -3.5920   35.5910 N.ar  310  HIS310     -0.2268
    121  CD2       33.9870   -2.9620   36.3450 C.ar  310  HIS310      0.1154
    122  CE1       32.9190   -3.8290   34.6380 C.ar  310  HIS310      0.1986
    123  NE2       34.1130   -3.4800   35.0760 N.ar  310  HIS310     -0.2212
    124  N         37.4260   -3.8770   44.2360 N.3   317  TYR317     -0.1241
    125  CA        36.0150   -3.6100   44.5270 C.3   317  TYR317      0.1605
    126  C         35.0160   -4.7120   44.1680 C.2   317  TYR317      0.2264
    127  O         33.8150   -4.5020   44.2420 O.2   317  TYR317     -0.2867
    128  CB        35.5450   -2.2780   43.9320 C.3   317  TYR317      0.0534
    129  CG        35.6870   -2.0660   42.4180 C.ar  317  TYR317     -0.0201
    130  CD1       35.0480   -2.9000   41.4940 C.ar  317  TYR317     -0.0009
    131  CD2       36.4290   -0.9820   41.9240 C.ar  317  TYR317     -0.0009
    132  CE1       35.1550   -2.6840   40.1250 C.ar  317  TYR317      0.0417
    133  CE2       36.5460   -0.7490   40.5500 C.ar  317  TYR317      0.0417
    134  CZ        35.9010   -1.6010   39.6550 C.ar  317  TYR317      0.1957
    135  OH        35.9920   -1.3780   38.3100 O.3   317  TYR317     -0.2866
@<TRIPOS>BOND
     1    43    44    1
     2    62    63    2
     3    62    61    1
     4    46    45    2
     5    17    16    2
     6    44    45    1
     7    44    47    1
     8    60    61    1
     9    54    53    2
    10    53    52    1
    11    45    51   am
    12    61    64    1
    13    47    48    1
    14    16    15    1
    15    51    52    1
    16    13    12    2
    17    52    55    1
    18    64    65    1
    19    15    18    1
    20    15    14    1
    21    48    50   am
    22    48    49    2
    23    55    56    1
    24    12    14   am
    25    12    11    1
    26    18    19    1
    27    65    67    1
    28    65    66    1
    29    20    19    2
    30    10    11    1
    31    19    21   am
    32     3     4    2
    33     3     2    1
    34    56    57    1
    35    28    27   ar
    36     8     7   ar
    37    29    27   ar
    38    27    26    1
    39    58    57   ar
    40     2     5    1
    41     2     1    1
    42    57    59   ar
    43    42    41    2
    44     5     6    1
    45    41    40    1
    46    26    23    1
    47     7     6    1
    48     7     9   ar
    49    40    39    1
    50    87    86   ar
    51    39    32   am
    52    23    22    1
    53    23    24    1
    54    30    24   am
    55    30    31    1
    56    24    25    2
    57    86    88   ar
    58    86    85    1
    59    32    33    2
    60    32    31    1
    61   122   123   ar
    62   122   120   ar
    63    84    85    1
    64    84    81    1
    65   123   121   ar
    66    31    34    1
    67   120   119   ar
    68    80    81    1
    69    34    35    1
    70    81    82    1
    71   121   119   ar
    72   109   107   am
    73   119   118    1
    74    35    36    1
    75   106   107    1
    76   106   105    1
    77    83    82    2
    78   107   108    2
    79    36    37    1
    80    76    74   ar
    81    76    78   ar
    82    79    78    1
    83   102   105    1
    84   102   101    1
    85   102   103    1
    86   118   115    1
    87    38    37    1
    88    74    73   ar
    89    95    97   ar
    90    95    94   ar
    91    78    77   ar
    92   101    91   am
    93    97    99   ar
    94   135   134    1
    95    93    94    1
    96    93    90    1
    97    94    96   ar
    98    99   100    1
    99    99    98   ar
   100   115   114    1
   101   115   116    1
   102   103   110   am
   103   103   104    2
   104   110   111    1
   105    96    98   ar
   106    73    75   ar
   107    73    72    1
   108    77    75   ar
   109    91    90    1
   110    91    92    2
   111   116   117    2
   112   111   112    1
   113    90    89    1
   114   134   132   ar
   115   134   133   ar
   116    68    69    1
   117    72    69    1
   118   132   130   ar
   119   133   131   ar
   120    69    70    1
   121   112   113    2
   122    71    70    2
   123   130   129   ar
   124   131   129   ar
   125   129   128    1
   126   128   125    1
   127   126   127    2
   128   126   125    1
   129   124   125    1
