@<TRIPOS>MOLECULE
tmp/3vo0A02.pdb
 106 102 0 0 0
SMALL
GASTEIGER

@<TRIPOS>ATOM
      1  N         35.3470   -1.3670   29.8190 N.3    63  ASN63      -0.1240
      2  CA        36.4200   -0.9200   28.9340 C.3    63  ASN63       0.1653
      3  C         36.8560   -2.0180   27.9480 C.2    63  ASN63       0.2266
      4  O         37.3020   -1.7050   26.8410 O.2    63  ASN63      -0.2867
      5  CB        37.6390   -0.4610   29.7240 C.3    63  ASN63       0.1155
      6  CG        37.3890    0.8350   30.4880 C.2    63  ASN63       0.2627
      7  OD1       36.4180    1.5330   30.2350 O.2    63  ASN63      -0.2716
      8  ND2       38.2550    1.1350   31.4330 N.am   63  ASN63      -0.0877
      9  N         35.3780   -2.8660   24.0160 N.3    66  GLU66      -0.1231
     10  CA        35.8330   -2.2480   22.7690 C.3    66  GLU66       0.1699
     11  C         36.9250   -3.0910   22.1410 C.2    66  GLU66       0.2592
     12  O         37.3400   -2.8080   21.0200 O.2    66  GLU66      -0.2718
     13  CB        36.3790   -0.7990   22.9550 C.3    66  GLU66       0.0402
     14  CG        35.5630    0.1560   23.8560 C.3    66  GLU66       0.1161
     15  CD        34.0600    0.1780   23.6160 C.2    66  GLU66       0.3649
     16  OE1       33.5620   -0.2590   22.5490 O.co2  66  GLU66      -0.2457
     17  OE2       33.3460    0.6490   24.5300 O.co2  66  GLU66      -0.2457
     18  N         37.3930   -4.0970   22.8760 N.am   67  TYR67      -0.1976
     19  CA        38.5330   -4.8830   22.4710 C.3    67  TYR67       0.1639
     20  C         38.2000   -6.3630   22.3690 C.2    67  TYR67       0.2290
     21  O         39.1090   -7.1820   22.2210 O.2    67  TYR67      -0.2864
     22  CB        39.7300   -4.6580   23.3990 C.3    67  TYR67       0.0560
     23  CG        40.2080   -3.2240   23.3390 C.ar   67  TYR67      -0.0198
     24  CD1       41.1860   -2.8360   22.4210 C.ar   67  TYR67      -0.0009
     25  CD2       39.6370   -2.2410   24.1620 C.ar   67  TYR67      -0.0009
     26  CE1       41.6080   -1.5050   22.3510 C.ar   67  TYR67       0.0417
     27  CE2       40.0570   -0.9160   24.0940 C.ar   67  TYR67       0.0417
     28  CZ        41.0360   -0.5610   23.1940 C.ar   67  TYR67       0.1957
     29  OH        41.4460    0.7510   23.1290 O.3    67  TYR67      -0.2866
     30  N         38.7000   -3.7730   34.4640 N.3    88  ASP88      -0.1239
     31  CA        39.7680   -3.0930   33.6900 C.3    88  ASP88       0.1674
     32  C         40.3580   -1.9250   34.4980 C.2    88  ASP88       0.2266
     33  O         39.6010   -1.1270   35.0740 O.2    88  ASP88      -0.2867
     34  CB        39.2160   -2.5760   32.3630 C.3    88  ASP88       0.1410
     35  CG        40.3110   -1.9970   31.4680 C.2    88  ASP88       0.3668
     36  OD1       41.0620   -2.7960   30.8400 O.co2  88  ASP88      -0.2456
     37  OD2       40.4280   -0.7340   31.4350 O.co2  88  ASP88      -0.2456
     38  N         41.9900    0.6910   33.4500 N.3    90  GLY90      -0.1210
     39  CA        41.8150    1.9810   32.7600 C.3    90  GLY90       0.1956
     40  C         43.0840    2.8250   32.6270 C.2    90  GLY90       0.2612
     41  O         43.0180    4.0510   32.7350 O.2    90  GLY90      -0.2717
     42  N         44.2340    2.1980   32.4020 N.am   91  HIS91      -0.1961
     43  CA        45.4690    2.9460   32.1370 C.3    91  HIS91       0.1787
     44  C         45.8290    2.9670   30.6400 C.2    91  HIS91       0.2620
     45  O         46.3440    3.9590   30.1140 O.2    91  HIS91      -0.2715
     46  CB        46.6160    2.4290   33.0000 C.3    91  HIS91       0.0785
     47  CG        46.3600    2.5620   34.4700 C.ar   91  HIS91       0.0821
     48  ND1       46.1250    3.7820   35.0780 N.ar   91  HIS91      -0.2267
     49  CD2       46.3030    1.6320   35.4570 C.ar   91  HIS91       0.1154
     50  CE1       45.9410    3.5980   36.3720 C.ar   91  HIS91       0.1986
     51  NE2       46.0430    2.3030   36.6290 N.ar   91  HIS91      -0.2212
     52  N         45.5120    1.8840   29.9440 N.am   92  HIS92      -0.1959
     53  CA        45.7600    1.7980   28.5090 C.3    92  HIS92       0.1787
     54  C         44.7440    0.8140   27.9150 C.2    92  HIS92       0.2620
     55  O         44.0970    0.0760   28.6560 O.2    92  HIS92      -0.2715
     56  CB        47.2130    1.3400   28.2740 C.3    92  HIS92       0.0785
     57  CG        47.5860    0.1140   29.0520 C.ar   92  HIS92       0.0821
     58  ND1       47.1970   -1.1510   28.6680 N.ar   92  HIS92      -0.2267
     59  CD2       48.3010   -0.0390   30.1950 C.ar   92  HIS92       0.1154
     60  CE1       47.6690   -2.0350   29.5320 C.ar   92  HIS92       0.1986
     61  NE2       48.3380   -1.3880   30.4710 N.ar   92  HIS92      -0.2212
     62  N         44.5820    0.8370   26.5930 N.am   93  ALA93      -0.1963
     63  CA        43.7800   -0.1610   25.8640 C.3    93  ALA93       0.1728
     64  C         43.9070   -1.5840   26.4420 C.2    93  ALA93       0.2616
     65  O         45.0010   -2.0400   26.7710 O.2    93  ALA93      -0.2715
     66  CB        44.1800   -0.1670   24.3790 C.3    93  ALA93       0.0334
     67  N         42.7760   -2.2670   26.5670 N.am   94  ALA94      -0.1977
     68  CA        42.7430   -3.6640   27.0290 C.3    94  ALA94       0.1597
     69  C         43.2840   -4.5890   25.9220 C.2    94  ALA94       0.2287
     70  O         43.2610   -4.2380   24.7340 O.2    94  ALA94      -0.2864
     71  CB        41.3020   -4.0580   27.3740 C.3    94  ALA94       0.0319
     72  N         30.7570    1.1320   25.5040 N.3   155  ASN155     -0.1240
     73  CA        30.8490    1.4490   26.9140 C.3   155  ASN155      0.1653
     74  C         31.4550    2.8420   27.1190 C.2   155  ASN155      0.2266
     75  O         32.5200    3.1370   26.5590 O.2   155  ASN155     -0.2867
     76  CB        31.7480    0.4170   27.5670 C.3   155  ASN155      0.1155
     77  CG        32.0770    0.7640   28.9630 C.2   155  ASN155      0.2627
     78  OD1       31.2270    0.6550   29.8440 O.2   155  ASN155     -0.2716
     79  ND2       33.3180    1.1710   29.1970 N.am  155  ASN155     -0.0877
     80  N         35.4880    8.4470   24.8700 N.3   160  PHE160     -0.1241
     81  CA        36.1500    8.0470   23.6250 C.3   160  PHE160      0.1605
     82  C         37.1120    9.1540   23.1600 C.2   160  PHE160      0.2264
     83  O         38.2210    8.8730   22.6570 O.2   160  PHE160     -0.2867
     84  CB        35.1250    7.7220   22.5330 C.3   160  PHE160      0.0534
     85  CG        34.4020    6.3940   22.7170 C.ar  160  PHE160     -0.0203
     86  CD1       34.7690    5.4890   23.7260 C.ar  160  PHE160     -0.0042
     87  CD2       33.3610    6.0400   21.8510 C.ar  160  PHE160     -0.0042
     88  CE1       34.0770    4.2800   23.8690 C.ar  160  PHE160     -0.0003
     89  CE2       32.6760    4.8390   21.9840 C.ar  160  PHE160     -0.0003
     90  CZ        33.0330    3.9520   22.9890 C.ar  160  PHE160     -0.0000
     91  N         40.3500    8.8010   25.3500 N.3   163  ASN163     -0.1240
     92  CA        41.0890    7.5330   25.5100 C.3   163  ASN163      0.1653
     93  C         41.6550    6.9200   24.2200 C.2   163  ASN163      0.2266
     94  O         42.3480    5.8970   24.2530 O.2   163  ASN163     -0.2867
     95  CB        40.2770    6.5080   26.3270 C.3   163  ASN163      0.1155
     96  CG        38.9680    6.1080   25.6580 C.2   163  ASN163      0.2627
     97  OD1       38.7710    6.2920   24.4610 O.2   163  ASN163     -0.2716
     98  ND2       38.0590    5.5280   26.4520 N.am  163  ASN163     -0.0877
     99  N         39.8820    5.9370   21.4840 N.3   165  ILE165     -0.1245
    100  CA        38.9120    5.1290   20.7520 C.3   165  ILE165      0.1561
    101  C         38.3300    5.9600   19.6180 C.2   165  ILE165      0.2260
    102  O         37.7750    5.4350   18.6510 O.2   165  ILE165     -0.2867
    103  CB        37.7980    4.5820   21.7060 C.3   165  ILE165      0.0252
    104  CG1       38.3480    3.4740   22.6300 C.3   165  ILE165      0.0019
    105  CG2       36.5700    4.1320   20.9480 C.3   165  ILE165      0.0019
    106  CD1       38.8390    2.1740   21.9230 C.3   165  ILE165      0.0001
@<TRIPOS>BOND
     1   102   101    2
     2   101   100    1
     3   100    99    1
     4   100   103    1
     5   105   103    1
     6    12    11    2
     7   103   104    1
     8    87    89   ar
     9    87    85   ar
    10   106   104    1
    11    89    90   ar
    12    11    10    1
    13    11    18   am
    14    21    20    2
    15    26    24   ar
    16    26    28   ar
    17    20    19    1
    18    24    23   ar
    19    19    18    1
    20    19    22    1
    21    84    85    1
    22    84    81    1
    23    16    15   ar
    24    83    82    2
    25    85    86   ar
    26    10    13    1
    27    10     9    1
    28    13    14    1
    29    90    88   ar
    30    29    28    1
    31    82    81    1
    32    28    27   ar
    33    23    22    1
    34    23    25   ar
    35    15    14    1
    36    15    17   ar
    37    81    80    1
    38    86    88   ar
    39    27    25   ar
    40    93    94    2
    41    93    92    1
    42    66    63    1
    43    97    96    2
    44    70    69    2
    45    91    92    1
    46    72    73    1
    47    92    95    1
    48    96    95    1
    49    96    98   am
    50    63    64    1
    51    63    62    1
    52    69    68    1
    53    64    67   am
    54    64    65    2
    55    75    74    2
    56    67    68    1
    57    62    54   am
    58     4     3    2
    59    73    74    1
    60    73    76    1
    61    68    71    1
    62    76    77    1
    63    54    53    1
    64    54    55    2
    65     3     2    1
    66    56    53    1
    67    56    57    1
    68    53    52    1
    69    58    57   ar
    70    58    60   ar
    71     2     5    1
    72     2     1    1
    73    77    79   am
    74    77    78    2
    75    57    59   ar
    76    60    61   ar
    77     5     6    1
    78    52    44   am
    79    45    44    2
    80    59    61   ar
    81     7     6    2
    82     6     8   am
    83    44    43    1
    84    36    35   ar
    85    37    35   ar
    86    35    34    1
    87    43    42    1
    88    43    46    1
    89    34    31    1
    90    42    40   am
    91    40    41    2
    92    40    39    1
    93    39    38    1
    94    46    47    1
    95    31    30    1
    96    31    32    1
    97    47    48   ar
    98    47    49   ar
    99    32    33    2
   100    48    50   ar
   101    49    51   ar
   102    50    51   ar
