@<TRIPOS>MOLECULE
tmp/3vo0A00.pdb
 134 130 0 0 0
SMALL
GASTEIGER

@<TRIPOS>ATOM
      1  N         33.4830   -7.3540   32.9670 N.3    28  GLU28      -0.1245
      2  CA        34.1650   -7.0830   31.7020 C.3    28  GLU28       0.1567
      3  C         33.7480   -8.0530   30.6120 C.2    28  GLU28       0.2260
      4  O         33.7390   -9.2860   30.8280 O.2    28  GLU28      -0.2867
      5  CB        35.6660   -7.2280   31.9030 C.3    28  GLU28       0.0388
      6  CG        36.3160   -6.1850   32.8050 C.3    28  GLU28       0.1160
      7  CD        36.1710   -4.7790   32.2900 C.2    28  GLU28       0.3649
      8  OE1       35.9940   -4.6030   31.0530 O.co2  28  GLU28      -0.2457
      9  OE2       36.2250   -3.8410   33.1410 O.co2  28  GLU28      -0.2457
     10  N         31.9200   -2.7670   29.8480 N.3    62  GLY62      -0.1210
     11  CA        33.1470   -2.2170   30.3910 C.3    62  GLY62       0.1956
     12  C         34.1770   -1.8150   29.3530 C.2    62  GLY62       0.2611
     13  O         33.9230   -1.9340   28.1520 O.2    62  GLY62      -0.2717
     14  N         35.3470   -1.3670   29.8190 N.am   63  ASN63      -0.1974
     15  CA        36.4200   -0.9200   28.9340 C.3    63  ASN63       0.1688
     16  C         36.8560   -2.0180   27.9480 C.2    63  ASN63       0.2292
     17  O         37.3020   -1.7050   26.8410 O.2    63  ASN63      -0.2864
     18  CB        37.6390   -0.4610   29.7240 C.3    63  ASN63       0.1181
     19  CG        37.3890    0.8350   30.4880 C.2    63  ASN63       0.2629
     20  OD1       36.4180    1.5330   30.2350 O.2    63  ASN63      -0.2716
     21  ND2       38.2550    1.1350   31.4330 N.am   63  ASN63      -0.0877
     22  N         38.1660   -6.2380   36.9510 N.3    87  PRO87      -0.2102
     23  CA        37.7860   -4.9330   36.3920 C.3    87  PRO87       0.1504
     24  C         38.9580   -4.3370   35.6400 C.2    87  PRO87       0.2576
     25  O         40.0860   -4.4320   36.1210 O.2    87  PRO87      -0.2718
     26  CB        37.4580   -4.1150   37.6450 C.3    87  PRO87       0.0282
     27  CG        36.8400   -5.1630   38.5480 C.3    87  PRO87       0.0208
     28  CD        37.7500   -6.3650   38.3600 C.3    87  PRO87       0.0893
     29  N         38.7000   -3.7730   34.4640 N.am   88  ASP88      -0.1960
     30  CA        39.7680   -3.0930   33.6900 C.3    88  ASP88       0.1840
     31  C         40.3580   -1.9250   34.4980 C.2    88  ASP88       0.2622
     32  O         39.6010   -1.1270   35.0740 O.2    88  ASP88      -0.2715
     33  CB        39.2160   -2.5760   32.3630 C.3    88  ASP88       0.1450
     34  CG        40.3110   -1.9970   31.4680 C.2    88  ASP88       0.3671
     35  OD1       41.0620   -2.7960   30.8400 O.co2  88  ASP88      -0.2456
     36  OD2       40.4280   -0.7340   31.4350 O.co2  88  ASP88      -0.2456
     37  N         41.6880   -1.8100   34.5340 N.am   89  LYS89      -0.1963
     38  CA        42.3190   -0.7750   35.3630 C.3    89  LYS89       0.1728
     39  C         42.3680    0.6080   34.7190 C.2    89  LYS89       0.2616
     40  O         42.7450    1.5890   35.3800 O.2    89  LYS89      -0.2715
     41  CB        43.7080   -1.2060   35.8320 C.3    89  LYS89       0.0311
     42  CG        43.6870   -2.4620   36.6730 C.3    89  LYS89       0.0038
     43  CD        45.0910   -2.8840   37.0200 C.3    89  LYS89       0.0206
     44  CE        45.1520   -3.5270   38.3950 C.3    89  LYS89       0.1093
     45  NZ        44.8410   -4.9740   38.3250 N.3    89  LYS89      -0.1314
     46  N         41.9900    0.6910   33.4500 N.am   90  GLY90      -0.1955
     47  CA        41.8150    1.9810   32.7600 C.3    90  GLY90       0.1869
     48  C         43.0840    2.8250   32.6270 C.2    90  GLY90       0.2309
     49  O         43.0180    4.0510   32.7350 O.2    90  GLY90      -0.2863
     50  N         30.7570    1.1320   25.5040 N.3   155  ASN155     -0.1225
     51  CA        30.8490    1.4490   26.9140 C.3   155  ASN155      0.1785
     52  C         31.4550    2.8420   27.1190 C.2   155  ASN155      0.2597
     53  O         32.5200    3.1370   26.5590 O.2   155  ASN155     -0.2718
     54  CB        31.7480    0.4170   27.5670 C.3   155  ASN155      0.1169
     55  CG        32.0770    0.7640   28.9630 C.2   155  ASN155      0.2627
     56  OD1       31.2270    0.6550   29.8440 O.2   155  ASN155     -0.2716
     57  ND2       33.3180    1.1710   29.1970 N.am  155  ASN155     -0.0877
     58  N         30.8210    3.6580   27.9730 N.am  156  GLU156     -0.1979
     59  CA        31.3340    5.0010   28.3290 C.3   156  GLU156      0.1602
     60  C         31.7730    5.7790   27.0570 C.2   156  GLU156      0.2287
     61  O         32.9250    6.2020   26.9430 O.2   156  GLU156     -0.2864
     62  CB        32.4510    4.9170   29.3850 C.3   156  GLU156      0.0415
     63  CG        32.0550    4.1190   30.6620 C.3   156  GLU156      0.1163
     64  CD        32.9970    4.2390   31.8510 C.2   156  GLU156      0.3649
     65  OE1       34.2190    4.4660   31.6890 O.co2 156  GLU156     -0.2457
     66  OE2       32.5090    4.0560   33.0020 O.co2 156  GLU156     -0.2457
     67  N         31.1360    6.2360   39.9380 N.3   226  TYR226     -0.1241
     68  CA        32.1970    5.8540   40.8650 C.3   226  TYR226      0.1605
     69  C         32.3680    6.9350   41.9230 C.2   226  TYR226      0.2264
     70  O         32.5050    8.1060   41.5850 O.2   226  TYR226     -0.2867
     71  CB        33.5450    5.5890   40.1130 C.3   226  TYR226      0.0534
     72  CG        33.5260    4.2100   39.5020 C.ar  226  TYR226     -0.0201
     73  CD1       32.8160    3.9590   38.3240 C.ar  226  TYR226     -0.0009
     74  CD2       34.1150    3.1320   40.1690 C.ar  226  TYR226     -0.0009
     75  CE1       32.7240    2.6580   37.8000 C.ar  226  TYR226      0.0417
     76  CE2       34.0490    1.8170   39.6380 C.ar  226  TYR226      0.0417
     77  CZ        33.3570    1.6020   38.4640 C.ar  226  TYR226      0.1957
     78  OH        33.2590    0.3270   37.9610 O.3   226  TYR226     -0.2866
     79  N         26.9220    0.5620   35.6540 N.3   270  GLU270     -0.1245
     80  CA        28.2630    0.2950   36.1330 C.3   270  GLU270      0.1567
     81  C         28.5890    1.2110   37.2920 C.2   270  GLU270      0.2260
     82  O         28.5840    2.4440   37.1470 O.2   270  GLU270     -0.2867
     83  CB        29.3170    0.4140   35.0340 C.3   270  GLU270      0.0388
     84  CG        30.6870   -0.1330   35.4110 C.3   270  GLU270      0.1160
     85  CD        31.7970    0.4350   34.5200 C.2   270  GLU270      0.3649
     86  OE1       31.5010    0.7270   33.3460 O.co2 270  GLU270     -0.2457
     87  OE2       32.9340    0.5490   35.0060 O.co2 270  GLU270     -0.2457
     88  N         37.3030    4.2060   40.9770 N.3   275  TYR275     -0.1227
     89  CA        37.5690    3.7910   39.5950 C.3   275  TYR275      0.1736
     90  C         38.9930    3.2730   39.3610 C.2   275  TYR275      0.2595
     91  O         39.7750    3.0990   40.3090 O.2   275  TYR275     -0.2718
     92  CB        37.1320    4.8650   38.5840 C.3   275  TYR275      0.0548
     93  CG        37.8240    6.2160   38.6740 C.ar  275  TYR275     -0.0200
     94  CD1       39.1860    6.3540   38.3530 C.ar  275  TYR275     -0.0009
     95  CD2       37.0880    7.3790   38.9930 C.ar  275  TYR275     -0.0009
     96  CE1       39.8280    7.6270   38.4040 C.ar  275  TYR275      0.0417
     97  CE2       37.7150    8.6620   39.0330 C.ar  275  TYR275      0.0417
     98  CZ        39.0800    8.7650   38.7210 C.ar  275  TYR275      0.1957
     99  OH        39.7250    9.9920   38.7640 O.3   275  TYR275     -0.2866
    100  N         39.3190    3.0030   38.0940 N.am  276  GLN276     -0.1965
    101  CA        40.5580    2.3090   37.7200 C.3   276  GLN276      0.1733
    102  C         40.8260    1.0650   38.5760 C.2   276  GLN276      0.2616
    103  O         41.9550    0.7870   38.9970 O.2   276  GLN276     -0.2715
    104  CB        41.7400    3.2660   37.6970 C.3   276  GLN276      0.0408
    105  CG        41.6270    4.2270   36.5540 C.3   276  GLN276      0.0908
    106  CD        42.6410    5.3490   36.6260 C.2   276  GLN276      0.2608
    107  OE1       43.0950    5.7500   37.6960 O.2   276  GLN276     -0.2717
    108  NE2       43.0210    5.8420   35.4710 N.am  276  GLN276     -0.0878
    109  N         39.7670    0.3150   38.8320 N.am  277  GLY277     -0.1955
    110  CA        39.9410   -1.0080   39.4460 C.3   277  GLY277      0.1869
    111  C         39.9010   -1.0120   40.9560 C.2   277  GLY277      0.2309
    112  O         40.1090   -2.0570   41.5820 O.2   277  GLY277     -0.2863
    113  N         30.1980   -3.2660   39.5170 N.3   310  HIS310     -0.1241
    114  CA        31.2410   -3.8470   38.6870 C.3   310  HIS310      0.1621
    115  C         32.1710   -4.7350   39.5130 C.2   310  HIS310      0.2264
    116  O         32.3730   -4.5230   40.7200 O.2   310  HIS310     -0.2867
    117  CB        32.0610   -2.7280   38.0160 C.3   310  HIS310      0.0745
    118  CG        32.8140   -3.1760   36.7920 C.ar  310  HIS310      0.0817
    119  ND1       32.1810   -3.6920   35.6840 N.ar  310  HIS310     -0.2268
    120  CD2       34.1290   -3.1030   36.4730 C.ar  310  HIS310      0.1154
    121  CE1       33.0790   -3.9630   34.7520 C.ar  310  HIS310      0.1986
    122  NE2       34.2640   -3.6000   35.1980 N.ar  310  HIS310     -0.2212
    123  N         37.5150   -3.9450   44.3590 N.3   317  TYR317     -0.1241
    124  CA        36.1120   -3.6520   44.6700 C.3   317  TYR317      0.1605
    125  C         35.1240   -4.7610   44.3250 C.2   317  TYR317      0.2264
    126  O         33.9310   -4.5870   44.4520 O.2   317  TYR317     -0.2867
    127  CB        35.6720   -2.3070   44.1100 C.3   317  TYR317      0.0534
    128  CG        35.7160   -2.1160   42.5870 C.ar  317  TYR317     -0.0201
    129  CD1       35.0950   -3.0080   41.7100 C.ar  317  TYR317     -0.0009
    130  CD2       36.3420   -0.9850   42.0400 C.ar  317  TYR317     -0.0009
    131  CE1       35.1280   -2.8070   40.3140 C.ar  317  TYR317      0.0417
    132  CE2       36.3520   -0.7570   40.6660 C.ar  317  TYR317      0.0417
    133  CZ        35.7510   -1.6640   39.8100 C.ar  317  TYR317      0.1957
    134  OH        35.7840   -1.4280   38.4600 O.3   317  TYR317     -0.2866
@<TRIPOS>BOND
     1    50    51    1
     2    53    52    2
     3    17    16    2
     4    51    52    1
     5    51    54    1
     6    61    60    2
     7    60    59    1
     8    52    58   am
     9    54    55    1
    10    16    15    1
    11    58    59    1
    12    13    12    2
    13    59    62    1
    14    15    18    1
    15    15    14    1
    16    55    57   am
    17    55    56    2
    18    12    14   am
    19    12    11    1
    20    62    63    1
    21    18    19    1
    22    10    11    1
    23    20    19    2
    24    19    21   am
    25     3     4    2
    26     3     2    1
    27    63    64    1
    28    35    34   ar
    29     8     7   ar
    30    36    34   ar
    31    34    33    1
    32    65    64   ar
    33     2     5    1
    34     2     1    1
    35    64    66   ar
    36     5     6    1
    37     7     6    1
    38     7     9   ar
    39    33    30    1
    40    48    49    2
    41    48    47    1
    42    47    46    1
    43    86    85   ar
    44    46    39   am
    45    30    29    1
    46    30    31    1
    47    29    24   am
    48    31    37   am
    49    31    32    2
    50    85    87   ar
    51    85    84    1
    52    37    38    1
    53    39    38    1
    54    39    40    2
    55   121   122   ar
    56   121   119   ar
    57    83    84    1
    58    83    80    1
    59   122   120   ar
    60    38    41    1
    61   108   106   am
    62    24    25    2
    63    24    23    1
    64    79    80    1
    65   119   118   ar
    66    41    42    1
    67    80    81    1
    68    23    22    1
    69    23    26    1
    70   120   118   ar
    71   105   106    1
    72   105   104    1
    73   106   107    2
    74    42    43    1
    75   118   117    1
    76    22    28    1
    77    43    44    1
    78    82    81    2
    79    26    27    1
    80   104   101    1
    81   101   100    1
    82   101   102    1
    83    75    73   ar
    84    75    77   ar
    85    78    77    1
    86   117   114    1
    87   100    90   am
    88    73    72   ar
    89    45    44    1
    90    94    96   ar
    91    94    93   ar
    92    28    27    1
    93    96    98   ar
    94   134   133    1
    95    77    76   ar
    96   102   109   am
    97   102   103    2
    98    92    93    1
    99    92    89    1
   100    93    95   ar
   101   114   115    1
   102   114   113    1
   103    98    99    1
   104    98    97   ar
   105   109   110    1
   106    95    97   ar
   107    90    89    1
   108    90    91    2
   109   110   111    1
   110    72    71    1
   111    72    74   ar
   112   115   116    2
   113    89    88    1
   114    76    74   ar
   115   133   131   ar
   116   133   132   ar
   117    67    68    1
   118    71    68    1
   119   131   129   ar
   120   132   130   ar
   121    68    69    1
   122   111   112    2
   123    70    69    2
   124   129   128   ar
   125   130   128   ar
   126   128   127    1
   127   127   124    1
   128   125   126    2
   129   125   124    1
   130   123   124    1
