@<TRIPOS>MOLECULE
tmp/3vo3A00.pdb
 208 197 0 0 0
SMALL
GASTEIGER

@<TRIPOS>ATOM
      1  N         19.9490  -29.7600   -6.0420 N.3    29  LEU29      -0.1245
      2  CA        19.4270  -29.1610   -7.2580 C.3    29  LEU29       0.1561
      3  C         19.0320  -30.2500   -8.2440 C.2    29  LEU29       0.2260
      4  O         18.2200  -30.0220   -9.1410 O.2    29  LEU29      -0.2867
      5  CB        20.4860  -28.2500   -7.8710 C.3    29  LEU29       0.0270
      6  CG        20.8550  -27.0340   -7.0170 C.3    29  LEU29       0.0019
      7  CD1       22.0160  -26.2810   -7.6350 C.3    29  LEU29       0.0001
      8  CD2       19.6450  -26.1010   -6.8120 C.3    29  LEU29       0.0001
      9  N         23.7760  -32.8520   -7.7200 N.3    37  VAL37      -0.1245
     10  CA        24.2620  -31.4890   -7.6760 C.3    37  VAL37       0.1561
     11  C         23.5580  -30.7960   -6.5190 C.2    37  VAL37       0.2260
     12  O         22.3330  -30.8890   -6.3790 O.2    37  VAL37      -0.2867
     13  CB        24.0120  -30.7470   -9.0060 C.3    37  VAL37       0.0252
     14  CG1       24.3840  -29.2660   -8.8760 C.3    37  VAL37       0.0019
     15  CG2       24.8260  -31.3810  -10.1210 C.3    37  VAL37       0.0019
     16  N         23.2040  -27.1740   -4.1450 N.3    39  GLU39      -0.1245
     17  CA        23.4430  -25.7470   -4.0090 C.3    39  GLU39       0.1567
     18  C         24.3190  -25.5460   -2.7810 C.2    39  GLU39       0.2260
     19  O         24.1210  -26.1990   -1.7640 O.2    39  GLU39      -0.2867
     20  CB        22.1210  -24.9900   -3.8580 C.3    39  GLU39       0.0388
     21  CG        22.2780  -23.4870   -4.0130 C.3    39  GLU39       0.1160
     22  CD        20.9570  -22.7260   -4.0320 C.2    39  GLU39       0.3649
     23  OE1       19.9330  -23.2860   -4.4760 O.co2  39  GLU39      -0.2457
     24  OE2       20.9540  -21.5470   -3.6080 O.co2  39  GLU39      -0.2457
     25  N         27.1510  -24.3260   -7.4590 N.3    55  ALA55      -0.1245
     26  CA        26.5410  -25.6380   -7.6600 C.3    55  ALA55       0.1562
     27  C         27.6600  -26.6550   -7.5230 C.2    55  ALA55       0.2260
     28  O         28.7380  -26.4950   -8.1050 O.2    55  ALA55      -0.2867
     29  CB        25.9070  -25.7230   -9.0420 C.3    55  ALA55       0.0290
     30  N         28.7710  -30.6180   -7.8030 N.3    57  LYS57      -0.1245
     31  CA        28.5070  -31.9920   -8.1880 C.3    57  LYS57       0.1561
     32  C         29.3250  -32.9350   -7.3260 C.2    57  LYS57       0.2260
     33  O         30.5100  -32.7350   -7.1270 O.2    57  LYS57      -0.2867
     34  CB        28.8260  -32.2480   -9.6570 C.3    57  LYS57       0.0271
     35  CG        28.3670  -33.6330  -10.1130 C.3    57  LYS57       0.0035
     36  CD        28.6870  -33.8690  -11.5810 C.3    57  LYS57       0.0206
     37  CE        27.7270  -33.1470  -12.5120 C.3    57  LYS57       0.1093
     38  NZ        28.0440  -33.4570  -13.9330 N.3    57  LYS57      -0.1314
     39  N         35.7480  -35.6510  -15.1210 N.3    74  GLU74      -0.1245
     40  CA        34.9500  -34.4640  -15.3980 C.3    74  GLU74       0.1567
     41  C         35.6580  -33.1980  -14.8870 C.2    74  GLU74       0.2260
     42  O         35.7300  -32.2010  -15.5940 O.2    74  GLU74      -0.2867
     43  CB        33.5610  -34.5900  -14.7780 C.3    74  GLU74       0.0388
     44  CG        32.7670  -33.2720  -14.8480 C.3    74  GLU74       0.1160
     45  CD        31.3320  -33.4020  -14.4070 C.2    74  GLU74       0.3649
     46  OE1       30.8180  -34.5340  -14.4050 O.co2  74  GLU74      -0.2457
     47  OE2       30.7280  -32.3720  -14.0620 O.co2  74  GLU74      -0.2457
     48  N         38.5000  -32.3830  -17.2590 N.3    77  ILE77      -0.1231
     49  CA        38.0950  -31.8430  -18.5490 C.3    77  ILE77       0.1692
     50  C         37.5550  -30.4230  -18.3930 C.2    77  ILE77       0.2591
     51  O         37.7830  -29.5830  -19.2600 O.2    77  ILE77      -0.2718
     52  CB        37.1600  -32.7920  -19.3590 C.3    77  ILE77       0.0266
     53  CG1       37.1820  -32.4190  -20.8580 C.3    77  ILE77       0.0019
     54  CG2       35.7880  -32.7510  -18.8290 C.3    77  ILE77       0.0020
     55  CD1       38.5150  -32.7560  -21.5590 C.3    77  ILE77       0.0001
     56  N         36.8920  -30.1410  -17.2720 N.am   78  LEU78      -0.1980
     57  CA        36.4220  -28.7730  -17.0180 C.3    78  LEU78       0.1596
     58  C         37.5850  -27.7990  -16.9280 C.2    78  LEU78       0.2287
     59  O         37.4950  -26.6550  -17.3750 O.2    78  LEU78      -0.2864
     60  CB        35.5800  -28.6990  -15.7470 C.3    78  LEU78       0.0297
     61  CG        34.1670  -29.2300  -15.9430 C.3    78  LEU78       0.0022
     62  CD1       33.4830  -29.3650  -14.5990 C.3    78  LEU78       0.0001
     63  CD2       33.3540  -28.3120  -16.8530 C.3    78  LEU78       0.0001
     64  N         38.7620  -27.3310  -20.5350 N.3    81  ILE81      -0.1245
     65  CA        37.8430  -26.4900  -21.2830 C.3    81  ILE81       0.1561
     66  C         38.0720  -25.0210  -20.9270 C.2    81  ILE81       0.2260
     67  O         38.1990  -24.1670  -21.8180 O.2    81  ILE81      -0.2867
     68  CB        36.3900  -26.9230  -21.0220 C.3    81  ILE81       0.0252
     69  CG1       36.1300  -28.2700  -21.7150 C.3    81  ILE81       0.0019
     70  CG2       35.3970  -25.8680  -21.4930 C.3    81  ILE81       0.0019
     71  CD1       34.9150  -29.0350  -21.1710 C.3    81  ILE81       0.0001
     72  N         29.2880  -21.4200  -21.0040 N.3    87  VAL87      -0.1231
     73  CA        29.4890  -22.7460  -20.4450 C.3    87  VAL87       0.1692
     74  C         29.4840  -22.6040  -18.9280 C.2    87  VAL87       0.2591
     75  O         29.9120  -21.5850  -18.3930 O.2    87  VAL87      -0.2718
     76  CB        30.7970  -23.4100  -20.9530 C.3    87  VAL87       0.0266
     77  CG1       30.9190  -24.8100  -20.3990 C.3    87  VAL87       0.0020
     78  CG2       30.8080  -23.4520  -22.4680 C.3    87  VAL87       0.0020
     79  N         28.9590  -23.6030  -18.2370 N.am   88  VAL88      -0.1980
     80  CA        29.0580  -23.6280  -16.7960 C.3    88  VAL88       0.1595
     81  C         30.5440  -23.7500  -16.4620 C.2    88  VAL88       0.2287
     82  O         31.2100  -24.6680  -16.9310 O.2    88  VAL88      -0.2864
     83  CB        28.2380  -24.8080  -16.2490 C.3    88  VAL88       0.0276
     84  CG1       28.6480  -25.1600  -14.8630 C.3    88  VAL88       0.0022
     85  CG2       26.7470  -24.4680  -16.3080 C.3    88  VAL88       0.0022
     86  N         32.9320  -31.1190   -7.2620 N.3   103  VAL103     -0.1245
     87  CA        33.2690  -30.2910   -8.4120 C.3   103  VAL103      0.1561
     88  C         32.3720  -29.0640   -8.3400 C.2   103  VAL103      0.2260
     89  O         31.1520  -29.1710   -8.4240 O.2   103  VAL103     -0.2867
     90  CB        33.0870  -31.0830   -9.7330 C.3   103  VAL103      0.0252
     91  CG1       33.3240  -30.1870  -10.9580 C.3   103  VAL103      0.0019
     92  CG2       34.0290  -32.2910   -9.7520 C.3   103  VAL103      0.0019
     93  N         31.0220  -25.4430   -9.4330 N.3   105  VAL105     -0.1231
     94  CA        30.8530  -24.6250  -10.6200 C.3   105  VAL105      0.1692
     95  C         29.8780  -23.4910  -10.3610 C.2   105  VAL105      0.2592
     96  O         29.2220  -23.4390   -9.3230 O.2   105  VAL105     -0.2718
     97  CB        30.3730  -25.4620  -11.8370 C.3   105  VAL105      0.0266
     98  CG1       31.2760  -26.6520  -12.0890 C.3   105  VAL105      0.0020
     99  CG2       28.9370  -25.9360  -11.6390 C.3   105  VAL105      0.0020
    100  N         29.7980  -22.5750  -11.3190 N.am  106  GLU106     -0.1966
    101  CA        28.8410  -21.4810  -11.2600 C.3   106  GLU106      0.1733
    102  C         27.4240  -21.9800  -11.0840 C.2   106  GLU106      0.2616
    103  O         27.0140  -22.9440  -11.7300 O.2   106  GLU106     -0.2715
    104  CB        28.8880  -20.7070  -12.5710 C.3   106  GLU106      0.0429
    105  CG        30.2410  -20.1100  -12.8810 C.3   106  GLU106      0.1163
    106  CD        30.3020  -19.5110  -14.2740 C.2   106  GLU106      0.3649
    107  OE1       29.8330  -20.1580  -15.2500 O.co2 106  GLU106     -0.2457
    108  OE2       30.8280  -18.3810  -14.3870 O.co2 106  GLU106     -0.2457
    109  N         26.6810  -21.3090  -10.2150 N.am  107  PHE107     -0.1960
    110  CA        25.2670  -21.5850  -10.0340 C.3   107  PHE107      0.1771
    111  C         24.4400  -20.7270  -10.9860 C.2   107  PHE107      0.2620
    112  O         24.6920  -19.5360  -11.1150 O.2   107  PHE107     -0.2715
    113  CB        24.8910  -21.2590   -8.5960 C.3   107  PHE107      0.0574
    114  CG        23.4140  -21.3110   -8.3200 C.ar  107  PHE107     -0.0200
    115  CD1       22.7460  -22.5350   -8.2400 C.ar  107  PHE107     -0.0042
    116  CD2       22.6930  -20.1350   -8.1030 C.ar  107  PHE107     -0.0042
    117  CE1       21.3800  -22.5840   -7.9710 C.ar  107  PHE107     -0.0003
    118  CE2       21.3290  -20.1810   -7.8210 C.ar  107  PHE107     -0.0003
    119  CZ        20.6700  -21.4080   -7.7560 C.ar  107  PHE107     -0.0000
    120  N         23.4540  -21.3420  -11.6390 N.am  108  CYS108     -0.1954
    121  CA        22.5770  -20.6430  -12.5720 C.3   108  CYS108      0.1843
    122  C         21.1940  -20.5180  -11.9680 C.2   108  CYS108      0.2625
    123  O         20.4900  -21.5090  -11.8220 O.2   108  CYS108     -0.2714
    124  CB        22.5290  -21.4150  -13.8860 C.3   108  CYS108      0.0997
    125  SG        24.1790  -21.4840  -14.6560 S.3   108  CYS108     -0.0797
    126  N         20.8230  -19.2890  -11.6200 N.am  109  LYS109     -0.1963
    127  CA        19.6170  -19.0110  -10.8270 C.3   109  LYS109      0.1728
    128  C         18.3330  -19.7200  -11.2920 C.2   109  LYS109      0.2616
    129  O         17.5660  -20.2350  -10.4760 O.2   109  LYS109     -0.2715
    130  CB        19.3710  -17.4900  -10.7890 C.3   109  LYS109      0.0311
    131  CG        18.3090  -17.0390   -9.8010 C.3   109  LYS109      0.0038
    132  CD        18.1080  -15.5320   -9.8790 C.3   109  LYS109      0.0206
    133  CE        17.0590  -15.0460   -8.8780 C.3   109  LYS109      0.1093
    134  NZ        15.7300  -15.6710   -9.0920 N.3   109  LYS109     -0.1314
    135  N         18.0970  -19.7270  -12.6000 N.am  110  PHE110     -0.1960
    136  CA        16.8130  -20.1640  -13.1310 C.3   110  PHE110      0.1771
    137  C         16.7860  -21.6110  -13.5760 C.2   110  PHE110      0.2620
    138  O         15.7270  -22.1390  -13.9090 O.2   110  PHE110     -0.2715
    139  CB        16.3580  -19.2310  -14.2550 C.3   110  PHE110      0.0574
    140  CG        16.1080  -17.8370  -13.7850 C.ar  110  PHE110     -0.0200
    141  CD1       14.9220  -17.5130  -13.1240 C.ar  110  PHE110     -0.0042
    142  CD2       17.0840  -16.8540  -13.9550 C.ar  110  PHE110     -0.0042
    143  CE1       14.6950  -16.2110  -12.6720 C.ar  110  PHE110     -0.0003
    144  CE2       16.8710  -15.5580  -13.5010 C.ar  110  PHE110     -0.0003
    145  CZ        15.6770  -15.2380  -12.8530 C.ar  110  PHE110     -0.0000
    146  N         17.9460  -22.2580  -13.5730 N.am  111  GLY111     -0.1954
    147  CA        17.9960  -23.6860  -13.8320 C.3   111  GLY111      0.1869
    148  C         17.7270  -24.0410  -15.2720 C.2   111  GLY111      0.2309
    149  O         17.9520  -23.2350  -16.1900 O.2   111  GLY111     -0.2863
    150  N         33.3520  -24.9100  -26.9410 N.3   154  LEU154     -0.1245
    151  CA        33.6890  -26.2940  -26.5960 C.3   154  LEU154      0.1561
    152  C         34.4270  -26.9710  -27.7420 C.2   154  LEU154      0.2260
    153  O         35.4430  -27.6510  -27.5230 O.2   154  LEU154     -0.2867
    154  CB        32.4360  -27.0980  -26.2260 C.3   154  LEU154      0.0270
    155  CG        31.7970  -26.7670  -24.8740 C.3   154  LEU154      0.0019
    156  CD1       30.5470  -27.6060  -24.6770 C.3   154  LEU154      0.0001
    157  CD2       32.7800  -26.9820  -23.7230 C.3   154  LEU154      0.0001
    158  N         30.0200  -32.4690  -26.7210 N.3   161  HIS161     -0.1241
    159  CA        29.1240  -32.5350  -25.6000 C.3   161  HIS161      0.1621
    160  C         28.5050  -33.9150  -25.3940 C.2   161  HIS161      0.2264
    161  O         28.5910  -34.4760  -24.2900 O.2   161  HIS161     -0.2867
    162  CB        28.0470  -31.4720  -25.7320 C.3   161  HIS161      0.0745
    163  CG        27.2650  -31.2900  -24.4760 C.ar  161  HIS161      0.0817
    164  ND1       26.3380  -32.2110  -24.0370 N.ar  161  HIS161     -0.2268
    165  CD2       27.3280  -30.3320  -23.5230 C.ar  161  HIS161      0.1154
    166  CE1       25.8460  -31.8140  -22.8790 C.ar  161  HIS161      0.1986
    167  NE2       26.4280  -30.6760  -22.5470 N.ar  161  HIS161     -0.2212
    168  N         21.3700  -24.0970  -18.8960 N.3   170  LEU170     -0.1245
    169  CA        20.8850  -23.4670  -17.6700 C.3   170  LEU170      0.1561
    170  C         20.7840  -21.9840  -17.8770 C.2   170  LEU170      0.2260
    171  O         21.6230  -21.3910  -18.5340 O.2   170  LEU170     -0.2867
    172  CB        21.8250  -23.7500  -16.5120 C.3   170  LEU170      0.0270
    173  CG        22.1000  -25.2300  -16.2530 C.3   170  LEU170      0.0019
    174  CD1       23.0550  -25.3260  -15.1070 C.3   170  LEU170      0.0001
    175  CD2       20.8260  -26.0320  -15.9850 C.3   170  LEU170      0.0001
    176  N         25.8770  -23.8070  -21.0950 N.3   179  ILE179     -0.1231
    177  CA        25.8580  -25.2250  -21.3590 C.3   179  ILE179      0.1692
    178  C         26.3630  -25.9760  -20.1550 C.2   179  ILE179      0.2592
    179  O         27.4230  -25.6660  -19.6050 O.2   179  ILE179     -0.2718
    180  CB        26.7500  -25.5530  -22.5670 C.3   179  ILE179      0.0266
    181  CG1       26.1900  -24.8720  -23.8190 C.3   179  ILE179      0.0019
    182  CG2       26.8710  -27.0720  -22.7700 C.3   179  ILE179      0.0020
    183  CD1       27.1980  -24.7920  -24.9280 C.3   179  ILE179      0.0001
    184  N         25.5930  -26.9540  -19.7050 N.am  180  CYS180     -0.1956
    185  CA        26.1000  -27.8240  -18.6580 C.3   180  CYS180      0.1843
    186  C         26.0180  -29.2680  -19.0920 C.2   180  CYS180      0.2625
    187  O         25.5860  -29.5780  -20.2020 O.2   180  CYS180     -0.2714
    188  CB        25.3520  -27.6090  -17.3390 C.3   180  CYS180      0.0997
    189  SG        23.7310  -28.3680  -17.2880 S.3   180  CYS180     -0.0797
    190  N         26.4610  -30.1510  -18.2080 N.am  181  ASP181     -0.1957
    191  CA        26.3130  -31.5800  -18.4080 C.3   181  ASP181      0.1840
    192  C         25.9820  -32.1140  -17.0250 C.2   181  ASP181      0.2622
    193  O         26.8560  -32.2650  -16.1800 O.2   181  ASP181     -0.2715
    194  CB        27.5940  -32.1880  -18.9850 C.3   181  ASP181      0.1450
    195  CG        27.4280  -33.6400  -19.4060 C.2   181  ASP181      0.3671
    196  OD1       26.4440  -34.2890  -19.0140 O.co2 181  ASP181     -0.2456
    197  OD2       28.3170  -34.1410  -20.1320 O.co2 181  ASP181     -0.2456
    198  N         24.7020  -32.3570  -16.7880 N.am  182  PHE182     -0.1974
    199  CA        24.2570  -32.7550  -15.4670 C.3   182  PHE182      0.1639
    200  C         24.7530  -34.1730  -15.1720 C.2   182  PHE182      0.2290
    201  O         25.0880  -34.5030  -14.0270 O.2   182  PHE182     -0.2864
    202  CB        22.7370  -32.6520  -15.4200 C.3   182  PHE182      0.0560
    203  CG        22.1860  -32.2070  -14.1080 C.ar  182  PHE182     -0.0200
    204  CD1       22.5940  -31.0220  -13.5140 C.ar  182  PHE182     -0.0042
    205  CD2       21.2040  -32.9680  -13.4800 C.ar  182  PHE182     -0.0042
    206  CE1       22.0590  -30.6110  -12.2950 C.ar  182  PHE182     -0.0003
    207  CE2       20.6560  -32.5710  -12.2610 C.ar  182  PHE182     -0.0003
    208  CZ        21.0900  -31.3830  -11.6660 C.ar  182  PHE182     -0.0000
@<TRIPOS>BOND
     1   152   153    2
     2   152   151    1
     3   150   151    1
     4   158   159    1
     5   151   154    1
     6   154   155    1
     7   162   159    1
     8   162   163    1
     9   159   160    1
    10   160   161    2
    11   183   181    1
    12   155   156    1
    13   155   157    1
    14   163   164   ar
    15   163   165   ar
    16   164   166   ar
    17   181   180    1
    18   165   167   ar
    19   166   167   ar
    20   182   180    1
    21   180   177    1
    22    78    76    1
    23    67    66    2
    24    69    71    1
    25    69    68    1
    26    55    53    1
    27    70    68    1
    28   177   176    1
    29   177   178    1
    30    65    68    1
    31    65    66    1
    32    65    64    1
    33    72    73    1
    34    76    73    1
    35    76    77    1
    36    53    52    1
    37    73    74    1
    38   187   186    2
    39   178   184   am
    40   178   179    2
    41   197   195   ar
    42   184   185    1
    43   195   196   ar
    44   195   194    1
    45    52    54    1
    46    52    49    1
    47    51    50    2
    48   186   185    1
    49   186   190   am
    50   194   191    1
    51    74    75    2
    52    74    79   am
    53   168   169    1
    54   185   188    1
    55    49    50    1
    56    49    48    1
    57   171   170    2
    58   191   190    1
    59   191   192    1
    60    50    56   am
    61    79    80    1
    62   170   169    1
    63   169   172    1
    64    59    58    2
    65   188   189    1
    66    56    57    1
    67   192   198   am
    68   192   193    2
    69    57    58    1
    70    57    60    1
    71    82    81    2
    72    63    61    1
    73    80    81    1
    74    80    83    1
    75   198   199    1
    76   172   173    1
    77    85    83    1
    78   173   175    1
    79   173   174    1
    80    83    84    1
    81   149   148    2
    82    61    60    1
    83    61    62    1
    84    42    41    2
    85   199   202    1
    86   199   200    1
    87   202   203    1
    88    40    39    1
    89    40    41    1
    90    40    43    1
    91   148   147    1
    92   107   106   ar
    93   200   201    2
    94    44    43    1
    95    44    45    1
    96   125   124    1
    97    45    46   ar
    98    45    47   ar
    99   108   106   ar
   100   106   105    1
   101   139   140    1
   102   139   136    1
   103   203   204   ar
   104   203   205   ar
   105   142   140   ar
   106   142   144   ar
   107    38    37    1
   108   138   137    2
   109   124   121    1
   110   147   146    1
   111   140   141   ar
   112   137   146   am
   113   137   136    1
   114   204   206   ar
   115   144   145   ar
   116   205   207   ar
   117   136   135    1
   118   141   143   ar
   119   105   104    1
   120   145   143   ar
   121   135   128   am
   122   121   122    1
   123   121   120    1
   124   104   101    1
   125    37    36    1
   126   206   208   ar
   127   207   208   ar
   128    98    97    1
   129   122   123    2
   130   122   126   am
   131    97    99    1
   132    97    94    1
   133   103   102    2
   134   120   111   am
   135   126   127    1
   136    36    35    1
   137   100   101    1
   138   100    95   am
   139   128   127    1
   140   128   129    2
   141   101   102    1
   142   112   111    2
   143   102   109   am
   144   111   110    1
   145    91    90    1
   146   127   130    1
   147   130   131    1
   148    94    95    1
   149    94    93    1
   150    95    96    2
   151   109   110    1
   152    15    13    1
   153    35    34    1
   154   110   113    1
   155   132   131    1
   156   132   133    1
   157    92    90    1
   158    90    87    1
   159    34    31    1
   160     4     3    2
   161   134   133    1
   162    29    26    1
   163    13    14    1
   164    13    10    1
   165   113   114    1
   166    89    88    2
   167    87    88    1
   168    87    86    1
   169   114   115   ar
   170   114   116   ar
   171     3     2    1
   172   115   117   ar
   173    31    30    1
   174    31    32    1
   175    28    27    2
   176   116   118   ar
   177   117   119   ar
   178     5     2    1
   179     5     6    1
   180   118   119   ar
   181     9    10    1
   182    10    11    1
   183    26    27    1
   184    26    25    1
   185     7     6    1
   186    32    33    2
   187     2     1    1
   188     6     8    1
   189    11    12    2
   190    23    22   ar
   191    16    17    1
   192    22    21    1
   193    22    24   ar
   194    21    20    1
   195    17    20    1
   196    17    18    1
   197    18    19    2
