@<TRIPOS>MOLECULE
tmp/3vobA01.pdb
 161 148 0 0 0
SMALL
GASTEIGER

@<TRIPOS>ATOM
      1  N         -9.9400    1.4450   25.1150 N.3   178  VAL178     -0.1245
      2  CA        -8.6680    1.0040   24.5930 C.3   178  VAL178      0.1561
      3  C         -8.5050    1.6530   23.2350 C.2   178  VAL178      0.2260
      4  O         -7.5940    2.4640   23.0290 O.2   178  VAL178     -0.2867
      5  CB        -8.6090   -0.5260   24.4720 C.3   178  VAL178      0.0252
      6  CG1       -7.1580   -0.9990   24.2700 C.3   178  VAL178      0.0019
      7  CG2       -9.2150   -1.1640   25.7120 C.3   178  VAL178      0.0019
      8  N         -8.9720    5.8590   23.3260 N.3   181  GLN181     -0.1231
      9  CA        -7.7500    6.5500   23.7240 C.3   181  GLN181      0.1698
     10  C         -6.6310    6.3760   22.6970 C.2   181  GLN181      0.2592
     11  O         -5.8640    7.3070   22.4360 O.2   181  GLN181     -0.2718
     12  CB        -7.2910    6.0710   25.0920 C.3   181  GLN181      0.0381
     13  CG        -7.6240    7.0420   26.1860 C.3   181  GLN181      0.0905
     14  CD        -8.6310    6.4980   27.1650 C.2   181  GLN181      0.2608
     15  OE1       -9.8250    6.7710   27.0500 O.2   181  GLN181     -0.2717
     16  NE2       -8.1570    5.7300   28.1460 N.am  181  GLN181     -0.0878
     17  N         -6.5350    5.1810   22.1330 N.am  182  GLY182     -0.1957
     18  CA        -5.5810    4.9530   21.0820 C.3   182  GLY182      0.1869
     19  C         -5.7670    5.9890   19.9970 C.2   182  GLY182      0.2309
     20  O         -4.8450    6.7310   19.6810 O.2   182  GLY182     -0.2863
     21  N         -5.3550    9.6540   21.1550 N.3   185  GLY185     -0.1210
     22  CA        -3.9630    9.8460   21.4610 C.3   185  GLY185      0.1956
     23  C         -3.1060   10.1260   20.2510 C.2   185  GLY185      0.2611
     24  O         -2.3390   11.0820   20.2140 O.2   185  GLY185     -0.2717
     25  N         -3.2450    9.2710   19.2500 N.am  186  ILE186     -0.1979
     26  CA        -2.5400    9.4330   17.9910 C.3   186  ILE186      0.1595
     27  C         -3.0240   10.7040   17.2740 C.2   186  ILE186      0.2287
     28  O         -2.2900   11.3160   16.4860 O.2   186  ILE186     -0.2864
     29  CB        -2.6890    8.1570   17.1350 C.3   186  ILE186      0.0276
     30  CG1       -1.8230    7.0520   17.7390 C.3   186  ILE186      0.0022
     31  CG2       -2.3100    8.3940   15.6860 C.3   186  ILE186      0.0022
     32  CD1       -2.3420    5.6680   17.5280 C.3   186  ILE186      0.0001
     33  N         -3.8790   13.6950   18.7810 N.3   188  ASP188     -0.1225
     34  CA        -3.2210   14.8590   19.3770 C.3   188  ASP188      0.1805
     35  C         -1.7880   14.9970   18.9080 C.2   188  ASP188      0.2597
     36  O         -1.3670   16.0720   18.4830 O.2   188  ASP188     -0.2718
     37  CB        -3.1810   14.7350   20.8900 C.3   188  ASP188      0.1424
     38  CG        -4.5300   14.8490   21.5150 C.2   188  ASP188      0.3668
     39  OD1       -5.4980   15.2110   20.8070 O.co2 188  ASP188     -0.2456
     40  OD2       -4.6110   14.5890   22.7340 O.co2 188  ASP188     -0.2456
     41  N         -1.0430   13.9040   19.0670 N.am  189  LEU189     -0.1979
     42  CA         0.3260   13.7650   18.5770 C.3   189  LEU189      0.1596
     43  C          0.5160   14.4390   17.2040 C.2   189  LEU189      0.2287
     44  O          1.2960   15.3820   17.0730 O.2   189  LEU189     -0.2864
     45  CB         0.7190   12.2750   18.5750 C.3   189  LEU189      0.0297
     46  CG         2.0790   11.7590   18.0900 C.3   189  LEU189      0.0022
     47  CD1        2.4000   10.4910   18.8450 C.3   189  LEU189      0.0001
     48  CD2        2.1070   11.4750   16.5790 C.3   189  LEU189      0.0001
     49  N         -0.4550   18.4870   17.2850 N.3   192  VAL192     -0.1245
     50  CA         0.3630   19.4590   17.9990 C.3   192  VAL192      0.1561
     51  C          1.8530   19.2620   17.7650 C.2   192  VAL192      0.2260
     52  O          2.3140   18.1320   17.6770 O.2   192  VAL192     -0.2867
     53  CB         0.0530   19.4040   19.5120 C.3   192  VAL192      0.0252
     54  CG1        0.7830   20.5020   20.2590 C.3   192  VAL192      0.0019
     55  CG2       -1.4270   19.5120   19.7600 C.3   192  VAL192      0.0019
     56  N          5.1060   19.2180   19.5760 N.3   194  GLY194     -0.1225
     57  CA         5.6630   19.2290   20.9250 C.3   194  GLY194      0.1811
     58  C          7.0650   19.8380   21.0130 C.2   194  GLY194      0.2280
     59  O          7.7170   20.0660   19.9930 O.2   194  GLY194     -0.2866
     60  N          9.5350   18.2390   22.2800 N.3   196  VAL196     -0.1231
     61  CA        10.2750   17.1510   21.6470 C.3   196  VAL196      0.1692
     62  C          9.2560   16.3750   20.8190 C.2   196  VAL196      0.2592
     63  O          8.4760   15.5540   21.3250 O.2   196  VAL196     -0.2718
     64  CB        11.0270   16.2270   22.6340 C.3   196  VAL196      0.0266
     65  CG1       11.7860   15.1640   21.8940 C.3   196  VAL196      0.0020
     66  CG2       11.9840   17.0470   23.4770 C.3   196  VAL196      0.0020
     67  N          9.2730   16.6520   19.5270 N.am  197  ASN197     -0.1960
     68  CA         8.1720   16.2810   18.6740 C.3   197  ASN197      0.1819
     69  C          8.1830   14.8720   18.0310 C.2   197  ASN197      0.2621
     70  O          9.1750   14.3930   17.4420 O.2   197  ASN197     -0.2715
     71  CB         7.9710   17.3560   17.6140 C.3   197  ASN197      0.1195
     72  CG         6.7150   17.1610   16.8570 C.2   197  ASN197      0.2630
     73  OD1        5.6150   17.4790   17.3470 O.2   197  ASN197     -0.2716
     74  ND2        6.8470   16.6200   15.6490 N.am  197  ASN197     -0.0877
     75  N          7.0270   14.2360   18.1690 N.am  198  LEU198     -0.1977
     76  CA         6.6990   13.0010   17.4920 C.3   198  LEU198      0.1596
     77  C          5.6520   13.3040   16.4040 C.2   198  LEU198      0.2287
     78  O          4.7670   14.1370   16.6090 O.2   198  LEU198     -0.2864
     79  CB         6.1620   11.9860   18.5090 C.3   198  LEU198      0.0297
     80  CG         7.0150   11.7080   19.7370 C.3   198  LEU198      0.0022
     81  CD1        6.2580   10.9430   20.7900 C.3   198  LEU198      0.0001
     82  CD2        8.2330   10.9240   19.3500 C.3   198  LEU198      0.0001
     83  N         -1.4060   -0.3540   23.4830 N.3   215  MET215     -0.1230
     84  CA        -1.6630    1.0730   23.5190 C.3   215  MET215      0.1702
     85  C         -2.2160    1.4970   24.8770 C.2   215  MET215      0.2593
     86  O         -3.1760    0.9150   25.3770 O.2   215  MET215     -0.2718
     87  CB        -2.5940    1.4790   22.3930 C.3   215  MET215      0.0401
     88  CG        -1.8800    1.8510   21.1170 C.3   215  MET215      0.0596
     89  SD        -3.0100    1.9380   19.7240 S.3   215  MET215     -0.1393
     90  CE        -4.5680    1.7060   20.5690 C.3   215  MET215      0.0692
     91  N         -1.5870    2.4990   25.4820 N.am  216  GLY216     -0.1942
     92  CA        -1.9270    2.8850   26.8340 C.3   216  GLY216      0.2014
     93  C         -1.6630    4.3320   27.1810 C.2   216  GLY216      0.2638
     94  O         -0.8910    5.0250   26.5260 O.2   216  GLY216     -0.2714
     95  N         -2.3220    4.7800   28.2390 N.am  217  ILE217     -0.1977
     96  CA        -2.1990    6.1400   28.7230 C.3   217  ILE217      0.1596
     97  C         -2.3740    6.1170   30.2420 C.2   217  ILE217      0.2287
     98  O         -3.0970    5.2810   30.7710 O.2   217  ILE217     -0.2864
     99  CB        -3.2340    7.0470   28.0340 C.3   217  ILE217      0.0276
    100  CG1       -3.1440    8.4880   28.5340 C.3   217  ILE217      0.0022
    101  CG2       -4.6270    6.4830   28.2040 C.3   217  ILE217      0.0022
    102  CD1       -3.9250    9.4690   27.6990 C.3   217  ILE217      0.0001
    103  N          7.0150    3.8380   21.3470 N.3   250  LEU250     -0.1245
    104  CA         6.8200    5.2630   21.1530 C.3   250  LEU250      0.1561
    105  C          6.2100    5.7690   22.4570 C.2   250  LEU250      0.2260
    106  O          5.1830    5.2620   22.9200 O.2   250  LEU250     -0.2867
    107  CB         5.8840    5.5390   19.9770 C.3   250  LEU250      0.0270
    108  CG         5.6630    6.9990   19.5680 C.3   250  LEU250      0.0019
    109  CD1        5.2260    7.0700   18.1330 C.3   250  LEU250      0.0001
    110  CD2        4.6380    7.7210   20.4340 C.3   250  LEU250      0.0001
    111  N          5.2640    9.2620   25.0370 N.3   252  ASN252     -0.1240
    112  CA         5.1410   10.6980   25.2020 C.3   252  ASN252      0.1653
    113  C          4.6700   11.1720   26.5750 C.2   252  ASN252      0.2266
    114  O          3.7810   10.5940   27.1860 O.2   252  ASN252     -0.2867
    115  CB         4.2570   11.2740   24.1160 C.3   252  ASN252      0.1155
    116  CG         4.0360   12.7440   24.2880 C.2   252  ASN252      0.2627
    117  OD1        4.9130   13.5560   23.9790 O.2   252  ASN252     -0.2716
    118  ND2        2.8530   13.1100   24.7890 N.am  252  ASN252     -0.0877
    119  N          3.1230   14.4290   28.5590 N.3   254  THR254     -0.1218
    120  CA         2.5890   15.7670   28.5720 C.3   254  THR254      0.1862
    121  C          2.4530   16.2020   30.0180 C.2   254  THR254      0.2287
    122  O          1.9570   15.4580   30.8580 O.2   254  THR254     -0.2866
    123  CB         1.2380   15.8620   27.8450 C.3   254  THR254      0.1770
    124  OG1        1.3210   15.2010   26.5740 O.3   254  THR254     -0.2211
    125  CG2        0.8700   17.3170   27.6170 C.3   254  THR254      0.0375
    126  N          8.0450   14.8520   24.1570 N.3   285  THR285     -0.1203
    127  CA         7.5390   15.5980   25.2930 C.3   285  THR285      0.1994
    128  C          6.6380   16.6940   24.7790 C.2   285  THR285      0.2617
    129  O          6.8820   17.2450   23.7040 O.2   285  THR285     -0.2717
    130  CB         8.6760   16.2430   26.1100 C.3   285  THR285      0.1784
    131  OG1        9.4480   15.2290   26.7450 O.3   285  THR285     -0.2211
    132  CG2        8.1330   17.1300   27.1910 C.3   285  THR285      0.0376
    133  N          5.5870   16.9890   25.5430 N.am  286  VAL286     -0.1979
    134  CA         4.7590   18.1670   25.3170 C.3   286  VAL286      0.1595
    135  C          4.6300   18.9800   26.5870 C.2   286  VAL286      0.2287
    136  O          4.4550   18.4370   27.6740 O.2   286  VAL286     -0.2864
    137  CB         3.3350   17.8040   24.9150 C.3   286  VAL286      0.0276
    138  CG1        2.7540   18.8950   24.0440 C.3   286  VAL286      0.0022
    139  CG2        3.3050   16.4620   24.2060 C.3   286  VAL286      0.0022
    140  N          1.9060    8.5040   27.6890 N.3   298  THR298     -0.1203
    141  CA         1.2740    7.6390   26.7030 C.3   298  THR298      0.1994
    142  C          2.2620    6.6800   26.0430 C.2   298  THR298      0.2618
    143  O          3.3990    7.0460   25.7500 O.2   298  THR298     -0.2717
    144  CB         0.5170    8.4540   25.6330 C.3   298  THR298      0.1784
    145  OG1        1.4390    9.2210   24.8530 O.3   298  THR298     -0.2211
    146  CG2       -0.4810    9.4060   26.2840 C.3   298  THR298      0.0376
    147  N          1.8200    5.4460   25.8210 N.am  299  VAL299     -0.1965
    148  CA         2.6810    4.4230   25.2500 C.3   299  VAL299      0.1727
    149  C          2.0520    3.7220   24.0520 C.2   299  VAL299      0.2616
    150  O          0.8670    3.3830   24.0540 O.2   299  VAL299     -0.2715
    151  CB         3.0530    3.3560   26.2950 C.3   299  VAL299      0.0290
    152  CG1        3.9480    2.2980   25.6870 C.3   299  VAL299      0.0023
    153  CG2        3.7500    3.9960   27.4760 C.3   299  VAL299      0.0023
    154  N          2.8580    3.5270   23.0140 N.am  300  ILE300     -0.1977
    155  CA         2.5610    2.5320   22.0080 C.3   300  ILE300      0.1596
    156  C          3.7550    1.6130   21.9540 C.2   300  ILE300      0.2287
    157  O          4.8170    2.0170   21.5080 O.2   300  ILE300     -0.2864
    158  CB         2.3580    3.1560   20.6270 C.3   300  ILE300      0.0276
    159  CG1        1.3070    4.2580   20.6950 C.3   300  ILE300      0.0022
    160  CG2        1.9660    2.0850   19.6140 C.3   300  ILE300      0.0022
    161  CD1        0.9990    4.8610   19.3680 C.3   300  ILE300      0.0001
@<TRIPOS>BOND
     1    74    72   am
     2    31    29    1
     3    77    78    2
     4    77    76    1
     5    28    27    2
     6    48    46    1
     7    72    73    2
     8    72    71    1
     9    44    43    2
    10    29    30    1
    11    29    26    1
    12    43    42    1
    13    27    26    1
    14    49    50    1
    15    70    69    2
    16    76    75    1
    17    76    79    1
    18    32    30    1
    19    71    68    1
    20    52    51    2
    21    51    50    1
    22    26    25    1
    23    50    53    1
    24    69    75   am
    25    69    68    1
    26    46    45    1
    27    46    47    1
    28   109   108    1
    29    36    35    2
    30    79    80    1
    31    45    42    1
    32    42    41    1
    33    68    67    1
    34    33    34    1
    35    35    41   am
    36    35    34    1
    37    25    23   am
    38    82    80    1
    39   161   159    1
    40    34    37    1
    41    53    55    1
    42    53    54    1
    43    67    62   am
    44   108   107    1
    45   108   110    1
    46    56    57    1
    47   160   158    1
    48    20    19    2
    49    89    90    1
    50    89    88    1
    51    80    81    1
    52   107   104    1
    53    59    58    2
    54    19    18    1
    55    24    23    2
    56    23    22    1
    57   158   159    1
    58   158   155    1
    59    39    38   ar
    60    62    63    2
    61    62    61    1
    62    37    38    1
    63    57    58    1
    64    18    17    1
    65    88    87    1
    66   104   103    1
    67   104   105    1
    68    21    22    1
    69   157   156    2
    70    38    40   ar
    71    61    60    1
    72    61    64    1
    73    65    64    1
    74   156   155    1
    75   155   154    1
    76    17    10   am
    77    87    84    1
    78    11    10    2
    79   105   106    2
    80    64    66    1
    81    10     9    1
    82   154   149   am
    83     4     3    2
    84     3     2    1
    85     8     9    1
    86    83    84    1
    87    84    85    1
    88   129   128    2
    89     9    12    1
    90   117   116    2
    91   138   137    1
    92   149   150    2
    93   149   148    1
    94   115   116    1
    95   115   112    1
    96   126   127    1
    97   139   137    1
    98     6     5    1
    99   116   118   am
   100     5     2    1
   101     5     7    1
   102     2     1    1
   103   128   127    1
   104   128   133   am
   105   145   144    1
   106    85    86    2
   107    85    91   am
   108   137   134    1
   109   111   112    1
   110    12    13    1
   111   112   113    1
   112   148   147    1
   113   148   151    1
   114   127   130    1
   115   134   133    1
   116   134   135    1
   117    91    92    1
   118   144   146    1
   119   144   141    1
   120   152   151    1
   121   143   142    2
   122   147   142   am
   123   142   141    1
   124   130   131    1
   125   130   132    1
   126    13    14    1
   127   151   153    1
   128    94    93    2
   129   124   123    1
   130   113   114    2
   131   135   136    2
   132   141   140    1
   133    92    93    1
   134    15    14    2
   135    14    16   am
   136    93    95   am
   137   125   123    1
   138   102   100    1
   139   123   120    1
   140    99   101    1
   141    99   100    1
   142    99    96    1
   143    95    96    1
   144   119   120    1
   145   120   121    1
   146    96    97    1
   147   121   122    2
   148    97    98    2
