@<TRIPOS>MOLECULE
tmp/3vocA01.pdb
 87 83 0 0 0
SMALL
GASTEIGER

@<TRIPOS>ATOM
      1  N         18.1010   -1.5910   33.6270 N.3    13  PRO13      -0.2116
      2  CA        19.2080   -1.9700   32.7570 C.3    13  PRO13       0.1372
      3  C         18.8770   -1.7540   31.2800 C.2    13  PRO13       0.2244
      4  O         17.6940   -1.6900   30.8950 O.2    13  PRO13      -0.2868
      5  CB        19.4210   -3.4650   33.0620 C.3    13  PRO13       0.0268
      6  CG        18.1860   -3.9470   33.6860 C.3    13  PRO13       0.0207
      7  CD        17.3600   -2.7510   34.1570 C.3    13  PRO13       0.0892
      8  N         20.0910   -3.7860   28.5550 N.3    15  ALA15      -0.1231
      9  CA        19.8380   -5.1280   28.0060 C.3    15  ALA15       0.1694
     10  C         18.5350   -5.7450   28.5130 C.2    15  ALA15       0.2592
     11  O         18.1820   -5.5910   29.6820 O.2    15  ALA15      -0.2718
     12  CB        21.0300   -6.0700   28.3310 C.3    15  ALA15       0.0304
     13  N         17.8190   -6.4350   27.6250 N.am   16  LYS16      -0.1966
     14  CA        16.5850   -7.1190   27.9980 C.3    16  LYS16       0.1728
     15  C         16.8650   -8.0370   29.1780 C.2    16  LYS16       0.2616
     16  O         17.9210   -8.6770   29.2300 O.2    16  LYS16      -0.2715
     17  CB        16.0520   -7.9310   26.8210 C.3    16  LYS16       0.0311
     18  CG        14.6840   -8.5340   27.0630 C.3    16  LYS16       0.0038
     19  CD        14.3360   -9.4910   25.9350 C.3    16  LYS16       0.0206
     20  CE        13.1660  -10.3890   26.2950 C.3    16  LYS16       0.1093
     21  NZ        13.0260  -11.4900   25.2900 N.3    16  LYS16      -0.1314
     22  N         15.9490   -8.0680   30.1390 N.am   17  ILE17      -0.1963
     23  CA        16.1340   -8.9000   31.3140 C.3    17  ILE17       0.1727
     24  C         15.9970  -10.3630   30.9100 C.2    17  ILE17       0.2616
     25  O         14.9480  -10.7730   30.4320 O.2    17  ILE17      -0.2715
     26  CB        15.0840   -8.6180   32.4230 C.3    17  ILE17       0.0290
     27  CG1       15.0020   -7.1160   32.7630 C.3    17  ILE17       0.0022
     28  CG2       15.3710   -9.4920   33.6620 C.3    17  ILE17       0.0023
     29  CD1       16.2460   -6.5570   33.3690 C.3    17  ILE17       0.0001
     30  N         17.0560  -11.1340   31.1120 N.am   18  ASN18      -0.1958
     31  CA        17.0030  -12.5700   30.8650 C.3    18  ASN18       0.1819
     32  C         17.2340  -13.4060   32.1300 C.2    18  ASN18       0.2621
     33  O         17.1480  -14.6270   32.0910 O.2    18  ASN18      -0.2715
     34  CB        17.9940  -12.9680   29.7560 C.3    18  ASN18       0.1195
     35  CG        19.4490  -12.8290   30.1910 C.2    18  ASN18       0.2630
     36  OD1       19.7850  -12.0080   31.0590 O.2    18  ASN18      -0.2716
     37  ND2       20.3240  -13.6420   29.5980 N.am   18  ASN18      -0.0877
     38  N         17.5380  -12.7480   33.2420 N.am   19  ASP19      -0.1971
     39  CA        17.6630  -13.4140   34.5290 C.3    19  ASP19       0.1709
     40  C         16.8120  -12.6370   35.5240 C.2    19  ASP19       0.2293
     41  O         17.2740  -11.6580   36.1180 O.2    19  ASP19      -0.2864
     42  CB        19.1320  -13.4380   34.9530 C.3    19  ASP19       0.1436
     43  CG        19.3620  -14.1350   36.2920 C.2    19  ASP19       0.3671
     44  OD1       18.3950  -14.4080   37.0350 O.co2  19  ASP19      -0.2456
     45  OD2       20.5410  -14.3790   36.6070 O.co2  19  ASP19      -0.2456
     46  N         17.9740  -12.3750   39.3030 N.3    22  SER22      -0.1202
     47  CA        19.0290  -11.3570   39.4780 C.3    22  SER22       0.2020
     48  C         18.4530   -9.9440   39.5640 C.2    22  SER22       0.2618
     49  O         18.7900   -9.1640   40.4640 O.2    22  SER22      -0.2717
     50  CB        20.0270  -11.4330   38.3190 C.3    22  SER22       0.2103
     51  OG        20.8970  -10.3120   38.3010 O.3    22  SER22      -0.2182
     52  N         17.5820   -9.6190   38.6210 N.am   23  PHE23      -0.1975
     53  CA        16.9580   -8.3030   38.5770 C.3    23  PHE23       0.1639
     54  C         16.1400   -8.0630   39.8400 C.2    23  PHE23       0.2290
     55  O         16.1910   -6.9700   40.4100 O.2    23  PHE23      -0.2864
     56  CB        16.0870   -8.1910   37.3180 C.3    23  PHE23       0.0560
     57  CG        15.4490   -6.8560   37.1310 C.ar   23  PHE23      -0.0200
     58  CD1       16.1910   -5.6800   37.2630 C.ar   23  PHE23      -0.0042
     59  CD2       14.0930   -6.7670   36.8020 C.ar   23  PHE23      -0.0042
     60  CE1       15.5940   -4.4320   37.0720 C.ar   23  PHE23      -0.0003
     61  CE2       13.4800   -5.5110   36.6040 C.ar   23  PHE23      -0.0003
     62  CZ        14.2350   -4.3520   36.7380 C.ar   23  PHE23      -0.0000
     63  N         18.3940   -7.0470   42.6560 N.3    26  GLN26      -0.1245
     64  CA        18.7640   -5.6400   42.4790 C.3    26  GLN26       0.1566
     65  C         17.6430   -4.7190   42.9410 C.2    26  GLN26       0.2260
     66  O         17.9000   -3.7130   43.6160 O.2    26  GLN26      -0.2867
     67  CB        19.1040   -5.3250   41.0290 C.3    26  GLN26       0.0367
     68  CG        20.4070   -5.9200   40.5150 C.3    26  GLN26       0.0905
     69  CD        20.6070   -5.5900   39.0430 C.2    26  GLN26       0.2608
     70  OE1       19.7200   -5.8300   38.2330 O.2    26  GLN26      -0.2717
     71  NE2       21.7460   -5.0020   38.7030 N.am   26  GLN26      -0.0878
     72  N         22.9410   -0.9270   37.4100 N.3   390  ASN390     -0.1240
     73  CA        24.1670   -1.7090   37.6530 C.3   390  ASN390      0.1653
     74  C         25.3310   -0.8550   38.1860 C.2   390  ASN390      0.2266
     75  O         26.3140   -1.3870   38.7020 O.2   390  ASN390     -0.2867
     76  CB        24.5600   -2.5290   36.4170 C.3   390  ASN390      0.1155
     77  CG        23.7770   -3.8300   36.3100 C.2   390  ASN390      0.2627
     78  OD1       22.5580   -3.8420   36.0630 O.2   390  ASN390     -0.2716
     79  ND2       24.4730   -4.9410   36.5210 N.am  390  ASN390     -0.0877
     80  N         24.7640   -7.5960   39.7780 N.3   395  ASN395     -0.1240
     81  CA        23.7820   -8.6150   39.3900 C.3   395  ASN395      0.1653
     82  C         23.3140   -9.5140   40.5300 C.2   395  ASN395      0.2266
     83  O         22.1900   -9.9960   40.5160 O.2   395  ASN395     -0.2867
     84  CB        24.3410   -9.5200   38.2930 C.3   395  ASN395      0.1155
     85  CG        24.5810   -8.7950   36.9930 C.2   395  ASN395      0.2627
     86  OD1       25.4530   -9.1900   36.2100 O.2   395  ASN395     -0.2716
     87  ND2       23.8180   -7.7390   36.7450 N.am  395  ASN395     -0.0877
@<TRIPOS>BOND
     1    21    20    1
     2    19    20    1
     3    19    18    1
     4    17    18    1
     5    17    14    1
     6    13    14    1
     7    13    10   am
     8    14    15    1
     9     9    12    1
    10     9    10    1
    11     9     8    1
    12    10    11    2
    13    15    16    2
    14    15    22   am
    15    37    35   am
    16    34    35    1
    17    34    31    1
    18    22    23    1
    19    35    36    2
    20    25    24    2
    21    31    30    1
    22    31    32    1
    23     4     3    2
    24    24    30   am
    25    24    23    1
    26     3     2    1
    27    23    26    1
    28    33    32    2
    29    32    38   am
    30    26    27    1
    31    26    28    1
    32     2     5    1
    33     2     1    1
    34    27    29    1
    35     5     6    1
    36    38    39    1
    37     1     7    1
    38     6     7    1
    39    39    42    1
    40    39    40    1
    41    42    43    1
    42    40    41    2
    43    78    77    2
    44    86    85    2
    45    43    45   ar
    46    43    44   ar
    47    77    76    1
    48    77    79   am
    49    76    73    1
    50    61    62   ar
    51    61    59   ar
    52    62    60   ar
    53    87    85   am
    54    59    57   ar
    55    85    84    1
    56    60    58   ar
    57    57    58   ar
    58    57    56    1
    59    56    53    1
    60    72    73    1
    61    73    74    1
    62    74    75    2
    63    70    69    2
    64    84    81    1
    65    51    50    1
    66    50    47    1
    67    53    52    1
    68    53    54    1
    69    52    48   am
    70    71    69   am
    71    69    68    1
    72    46    47    1
    73    81    80    1
    74    81    82    1
    75    47    48    1
    76    48    49    2
    77    54    55    2
    78    68    67    1
    79    83    82    2
    80    67    64    1
    81    64    63    1
    82    64    65    1
    83    65    66    2
