@<TRIPOS>MOLECULE
tmp/3vogA00.pdb
 143 143 0 0 0
SMALL
GASTEIGER

@<TRIPOS>ATOM
      1  N          7.2230   38.6310   11.5670 N.3    50  TRP50      -0.1241
      2  CA         7.2840   37.2730   12.0970 C.3    50  TRP50       0.1605
      3  C          5.9330   36.6100   12.1690 C.2    50  TRP50       0.2264
      4  O          4.9570   37.1880   12.6520 O.2    50  TRP50      -0.2867
      5  CB         7.8890   37.2790   13.5030 C.3    50  TRP50       0.0550
      6  CG         9.3620   37.6140   13.5210 C.ar   50  TRP50       0.0003
      7  CD1        9.9620   38.7680   13.0740 C.ar   50  TRP50       0.0946
      8  CD2       10.4140   36.7550   13.9660 C.ar   50  TRP50       0.0152
      9  NE1       11.3390   38.6860   13.2520 N.ar   50  TRP50      -0.2442
     10  CE2       11.6290   37.4590   13.8050 C.ar   50  TRP50       0.0810
     11  CE3       10.4450   35.4640   14.5310 C.ar   50  TRP50       0.0012
     12  CZ2       12.8630   36.8980   14.1770 C.ar   50  TRP50       0.0191
     13  CZ3       11.6690   34.9020   14.8920 C.ar   50  TRP50       0.0001
     14  CH2       12.8650   35.6280   14.7170 C.ar   50  TRP50       0.0015
     15  N          8.1230   30.6460   11.7450 N.3    85  TYR85      -0.1241
     16  CA         8.6770   30.2730   13.0700 C.3    85  TYR85       0.1605
     17  C          7.6260   29.6130   13.9460 C.2    85  TYR85       0.2264
     18  O          7.1520   30.2150   14.9030 O.2    85  TYR85      -0.2867
     19  CB         9.2480   31.5200   13.7600 C.3    85  TYR85       0.0534
     20  CG         9.9390   31.2950   15.0930 C.ar   85  TYR85      -0.0201
     21  CD1       10.8640   30.2510   15.2880 C.ar   85  TYR85      -0.0009
     22  CD2        9.7060   32.1620   16.1610 C.ar   85  TYR85      -0.0009
     23  CE1       11.5080   30.0700   16.5360 C.ar   85  TYR85       0.0417
     24  CE2       10.3530   31.9910   17.3910 C.ar   85  TYR85       0.0417
     25  CZ        11.2450   30.9560   17.5600 C.ar   85  TYR85       0.1957
     26  OH        11.8570   30.8070   18.7750 O.3    85  TYR85      -0.2866
     27  N         12.2020   25.2050   19.5460 N.3    91  ASP91      -0.1239
     28  CA        13.2430   25.6560   20.4740 C.3    91  ASP91       0.1674
     29  C         13.6320   24.5250   21.4170 C.2    91  ASP91       0.2266
     30  O         13.6710   24.6870   22.6430 O.2    91  ASP91      -0.2867
     31  CB        12.7630   26.8920   21.2620 C.3    91  ASP91       0.1410
     32  CG        12.1390   27.9330   20.3670 C.2    91  ASP91       0.3668
     33  OD1       12.8770   28.5380   19.5570 O.co2  91  ASP91      -0.2456
     34  OD2       10.9140   28.1860   20.5070 O.co2  91  ASP91      -0.2456
     35  N         14.0440   29.9370   12.5820 N.3   136  PRO136     -0.2102
     36  CA        15.1260   30.2020   13.5260 C.3   136  PRO136      0.1504
     37  C         15.1790   29.1580   14.6460 C.2   136  PRO136      0.2575
     38  O         14.1380   28.6430   15.0860 O.2   136  PRO136     -0.2718
     39  CB        14.7310   31.5540   14.1290 C.3   136  PRO136      0.0282
     40  CG        13.9530   32.2120   13.0290 C.3   136  PRO136      0.0208
     41  CD        13.1330   31.0910   12.4550 C.3   136  PRO136      0.0893
     42  N         16.3920   28.8510   15.1140 N.am  137  ASP137     -0.1974
     43  CA        16.5600   28.0130   16.3160 C.3   137  ASP137      0.1708
     44  C         15.9370   26.6250   16.0880 C.2   137  ASP137      0.2293
     45  O         15.3210   26.0630   16.9990 O.2   137  ASP137     -0.2864
     46  CB        15.9280   28.7200   17.5330 C.3   137  ASP137      0.1436
     47  CG        16.2280   28.0390   18.8530 C.2   137  ASP137      0.3671
     48  OD1       17.2960   27.4250   18.9320 O.co2 137  ASP137     -0.2456
     49  OD2       15.4200   28.1580   19.8230 O.co2 137  ASP137     -0.2456
     50  N         24.5730   31.0520   14.1410 N.3   182  HIS182     -0.1241
     51  CA        25.4490   32.2250   14.1650 C.3   182  HIS182      0.1621
     52  C         26.8530   31.7350   14.5040 C.2   182  HIS182      0.2264
     53  O         27.0350   30.5640   14.8120 O.2   182  HIS182     -0.2867
     54  CB        24.9670   33.3000   15.1680 C.3   182  HIS182      0.0745
     55  CG        24.9460   32.8390   16.5990 C.ar  182  HIS182      0.0817
     56  ND1       26.0170   33.0090   17.4570 N.ar  182  HIS182     -0.2268
     57  CD2       23.9760   32.2130   17.3130 C.ar  182  HIS182      0.1154
     58  CE1       25.6950   32.5090   18.6410 C.ar  182  HIS182      0.1986
     59  NE2       24.4660   32.0210   18.5810 N.ar  182  HIS182     -0.2212
     60  N         27.4730   29.6110   17.5550 N.3   185  TRP185     -0.1241
     61  CA        26.7290   28.3640   17.6100 C.3   185  TRP185      0.1605
     62  C         27.3710   27.3780   16.6360 C.2   185  TRP185      0.2264
     63  O         28.0160   26.4250   17.0490 O.2   185  TRP185     -0.2867
     64  CB        25.2630   28.6160   17.2430 C.3   185  TRP185      0.0550
     65  CG        24.3360   27.4800   17.5710 C.ar  185  TRP185      0.0003
     66  CD1       24.6810   26.1900   17.8670 C.ar  185  TRP185      0.0946
     67  CD2       22.9040   27.5280   17.5970 C.ar  185  TRP185      0.0152
     68  NE1       23.5560   25.4400   18.1040 N.ar  185  TRP185     -0.2442
     69  CE2       22.4500   26.2300   17.9300 C.ar  185  TRP185      0.0810
     70  CE3       21.9590   28.5360   17.3480 C.ar  185  TRP185      0.0012
     71  CZ2       21.0950   25.9130   18.0590 C.ar  185  TRP185      0.0191
     72  CZ3       20.6130   28.2150   17.4780 C.ar  185  TRP185      0.0001
     73  CH2       20.1960   26.9130   17.8440 C.ar  185  TRP185      0.0015
     74  N         20.2550   35.4690   13.5160 N.3   219  VAL219     -0.1231
     75  CA        18.8550   35.8720   13.7190 C.3   219  VAL219      0.1692
     76  C         18.5770   36.1080   15.1870 C.2   219  VAL219      0.2593
     77  O         18.8030   35.2310   16.0180 O.2   219  VAL219     -0.2718
     78  CB        17.8730   34.8260   13.1890 C.3   219  VAL219      0.0266
     79  CG1       16.4490   35.2490   13.4900 C.3   219  VAL219      0.0020
     80  CG2       18.0650   34.6400   11.7030 C.3   219  VAL219      0.0020
     81  N         18.0780   37.2980   15.5050 N.am  220  SER220     -0.1938
     82  CA        17.7620   37.6890   16.8950 C.3   220  SER220      0.2055
     83  C         19.0030   37.7210   17.7870 C.2   220  SER220      0.2643
     84  O         18.8790   37.7360   19.0200 O.2   220  SER220     -0.2714
     85  CB        16.7130   36.7780   17.5460 C.3   220  SER220      0.2130
     86  OG        15.6120   36.6710   16.6720 O.3   220  SER220     -0.2179
     87  N         20.1830   37.7400   17.1810 N.am  221  ASN221     -0.1971
     88  CA        21.4190   37.7330   17.9640 C.3   221  ASN221      0.1688
     89  C         22.1010   39.1000   17.8920 C.2   221  ASN221      0.2292
     90  O         21.4810   40.0800   17.4780 O.2   221  ASN221     -0.2864
     91  CB        22.3270   36.5650   17.5430 C.3   221  ASN221      0.1181
     92  CG        23.1530   36.0230   18.6990 C.2   221  ASN221      0.2629
     93  OD1       24.0750   36.6940   19.1920 O.2   221  ASN221     -0.2716
     94  ND2       22.8400   34.8320   19.1420 N.am  221  ASN221     -0.0877
     95  N         28.5650   33.7760   25.6340 N.3   278  TRP278     -0.1227
     96  CA        28.1490   33.9230   24.2460 C.3   278  TRP278      0.1737
     97  C         26.7250   33.4100   24.0450 C.2   278  TRP278      0.2596
     98  O         25.9780   33.9520   23.2290 O.2   278  TRP278     -0.2718
     99  CB        29.1160   33.2140   23.3170 C.3   278  TRP278      0.0564
    100  CG        29.1640   33.7840   21.9280 C.ar  278  TRP278      0.0003
    101  CD1       28.2960   34.6810   21.3450 C.ar  278  TRP278      0.0946
    102  CD2       30.1550   33.4780   20.9390 C.ar  278  TRP278      0.0152
    103  NE1       28.7100   34.9490   20.0510 N.ar  278  TRP278     -0.2442
    104  CE2       29.8340   34.2200   19.7740 C.ar  278  TRP278      0.0810
    105  CE3       31.2840   32.6400   20.9190 C.ar  278  TRP278      0.0012
    106  CZ2       30.6090   34.1520   18.5990 C.ar  278  TRP278      0.0191
    107  CZ3       32.0480   32.5630   19.7650 C.ar  278  TRP278      0.0001
    108  CH2       31.7120   33.3260   18.6170 C.ar  278  TRP278      0.0015
    109  N         26.3190   32.4050   24.8170 N.am  279  GLY279     -0.1957
    110  CA        24.9570   31.8730   24.7060 C.3   279  GLY279      0.1869
    111  C         23.8590   32.7120   25.3420 C.2   279  GLY279      0.2309
    112  O         22.6950   32.3000   25.3740 O.2   279  GLY279     -0.2863
    113  N         21.2350   35.3680   25.1980 N.3   281  TRP281     -0.1241
    114  CA        20.4870   35.9170   24.0650 C.3   281  TRP281      0.1605
    115  C         19.2890   36.7700   24.4490 C.2   281  TRP281      0.2264
    116  O         18.6840   37.4220   23.5930 O.2   281  TRP281     -0.2867
    117  CB        19.9980   34.7650   23.1800 C.3   281  TRP281      0.0550
    118  CG        19.2080   33.6920   23.9210 C.ar  281  TRP281      0.0003
    119  CD1       19.6980   32.5110   24.3750 C.ar  281  TRP281      0.0946
    120  CD2       17.8020   33.6930   24.2570 C.ar  281  TRP281      0.0152
    121  NE1       18.7050   31.7770   24.9960 N.ar  281  TRP281     -0.2442
    122  CE2       17.5360   32.4810   24.9390 C.ar  281  TRP281      0.0810
    123  CE3       16.7500   34.6030   24.0660 C.ar  281  TRP281      0.0012
    124  CZ2       16.2590   32.1470   25.4190 C.ar  281  TRP281      0.0191
    125  CZ3       15.4770   34.2730   24.5630 C.ar  281  TRP281      0.0001
    126  CH2       15.2470   33.0500   25.2180 C.ar  281  TRP281      0.0015
    127  N         15.1450   40.1500   13.5890 N.3   309  LYS309     -0.1245
    128  CA        14.4750   40.4270   14.8620 C.3   309  LYS309      0.1561
    129  C         14.1750   41.9280   14.9730 C.2   309  LYS309      0.2260
    130  O         15.0850   42.7480   14.7850 O.2   309  LYS309     -0.2867
    131  CB        15.3940   39.9720   16.0050 C.3   309  LYS309      0.0271
    132  CG        14.9990   40.4820   17.3780 C.3   309  LYS309      0.0035
    133  CD        13.7810   39.7650   17.9460 C.3   309  LYS309      0.0206
    134  CE        13.3860   40.3970   19.2750 C.3   309  LYS309      0.1093
    135  NZ        12.3010   39.6140   19.9400 N.3   309  LYS309     -0.1314
    136  N         12.4550   39.5360   24.1650 N.3   315  ASP315     -0.1239
    137  CA        12.8350   38.1600   23.8630 C.3   315  ASP315      0.1674
    138  C         12.1860   37.1810   24.8250 C.2   315  ASP315      0.2266
    139  O         12.2000   35.9730   24.5860 O.2   315  ASP315     -0.2867
    140  CB        14.3550   37.9590   23.9260 C.3   315  ASP315      0.1410
    141  CG        15.0900   38.7700   22.8960 C.2   315  ASP315      0.3668
    142  OD1       14.6990   38.7470   21.7180 O.co2 315  ASP315     -0.2456
    143  OD2       16.0480   39.4540   23.2670 O.co2 315  ASP315     -0.2456
@<TRIPOS>BOND
     1     1     2    1
     2    80    78    1
     3    15    16    1
     4     2     3    1
     5     2     5    1
     6     3     4    2
     7    41    35    1
     8    41    40    1
     9    35    36    1
    10    40    39    1
    11    16    19    1
    12    16    17    1
    13     7     9   ar
    14     7     6   ar
    15    78    79    1
    16    78    75    1
    17     9    10   ar
    18     5     6    1
    19    74    75    1
    20     6     8   ar
    21    36    39    1
    22    36    37    1
    23   127   128    1
    24    75    76    1
    25    19    20    1
    26    10     8   ar
    27    10    12   ar
    28    17    18    2
    29     8    11   ar
    30    50    51    1
    31    51    52    1
    32    51    54    1
    33    12    14   ar
    34    52    53    2
    35    11    13   ar
    36    37    38    2
    37    37    42   am
    38    14    13   ar
    39   130   129    2
    40   128   129    1
    41   128   131    1
    42    20    21   ar
    43    20    22   ar
    44    42    43    1
    45    54    55    1
    46    76    81   am
    47    76    77    2
    48    21    23   ar
    49    81    82    1
    50   131   132    1
    51    44    43    1
    52    44    45    2
    53    22    24   ar
    54    43    46    1
    55    23    25   ar
    56    55    57   ar
    57    55    56   ar
    58    62    63    2
    59    62    61    1
    60    86    85    1
    61    82    85    1
    62    82    83    1
    63    87    83   am
    64    87    88    1
    65    64    65    1
    66    64    61    1
    67    57    59   ar
    68    70    72   ar
    69    70    67   ar
    70   132   133    1
    71    24    25   ar
    72    56    58   ar
    73    90    89    2
    74    72    73   ar
    75    46    47    1
    76    91    88    1
    77    91    92    1
    78    60    61    1
    79    25    26    1
    80    65    67   ar
    81    65    66   ar
    82    67    69   ar
    83    83    84    2
    84    73    71   ar
    85    66    68   ar
    86    89    88    1
    87    69    71   ar
    88    69    68   ar
    89   133   134    1
    90    59    58   ar
    91   106   108   ar
    92   106   104   ar
    93   108   107   ar
    94    92    94   am
    95    92    93    2
    96    47    48   ar
    97    47    49   ar
    98   134   135    1
    99    27    28    1
   100    33    32   ar
   101   107   105   ar
   102   104   103   ar
   103   104   102   ar
   104   103   101   ar
   105    32    34   ar
   106    32    31    1
   107    28    31    1
   108    28    29    1
   109   105   102   ar
   110   102   100   ar
   111   101   100   ar
   112    29    30    2
   113   142   141   ar
   114   100    99    1
   115   141   143   ar
   116   141   140    1
   117   117   118    1
   118   117   114    1
   119    98    97    2
   120    99    96    1
   121   116   115    2
   122   137   140    1
   123   137   136    1
   124   137   138    1
   125   118   120   ar
   126   118   119   ar
   127    97    96    1
   128    97   109   am
   129   114   115    1
   130   114   113    1
   131   123   120   ar
   132   123   125   ar
   133    96    95    1
   134   120   122   ar
   135   119   121   ar
   136   125   126   ar
   137   139   138    2
   138   110   109    1
   139   110   111    1
   140   122   121   ar
   141   122   124   ar
   142   126   124   ar
   143   111   112    2
