@<TRIPOS>MOLECULE
tmp/3vohA00.pdb
 156 148 0 0 0
SMALL
GASTEIGER

@<TRIPOS>ATOM
      1  N         20.0450    9.8760  -11.7320 N.3    18  TYR18      -0.1241
      2  CA        20.0930    9.5000  -13.1460 C.3    18  TYR18       0.1605
      3  C         18.9750   10.2040  -13.9320 C.2    18  TYR18       0.2264
      4  O         19.2250   10.7590  -15.0090 O.2    18  TYR18      -0.2867
      5  CB        20.0440    7.9800  -13.3490 C.3    18  TYR18       0.0534
      6  CG        20.4340    7.6140  -14.7630 C.ar   18  TYR18      -0.0201
      7  CD1       21.7470    7.8010  -15.2080 C.ar   18  TYR18      -0.0009
      8  CD2       19.4880    7.1500  -15.6790 C.ar   18  TYR18      -0.0009
      9  CE1       22.1190    7.5140  -16.5180 C.ar   18  TYR18       0.0417
     10  CE2       19.8540    6.8460  -17.0000 C.ar   18  TYR18       0.0417
     11  CZ        21.1740    7.0320  -17.4090 C.ar   18  TYR18       0.1957
     12  OH        21.5490    6.7420  -18.7040 O.3    18  TYR18      -0.2866
     13  N         15.8680    2.2650  -11.5780 N.3    50  TRP50      -0.1241
     14  CA        15.8730    0.9390  -12.1570 C.3    50  TRP50       0.1605
     15  C         17.2670    0.3360  -12.2330 C.2    50  TRP50       0.2264
     16  O         18.2110    0.9850  -12.6950 O.2    50  TRP50      -0.2867
     17  CB        15.2740    0.9870  -13.5490 C.3    50  TRP50       0.0550
     18  CG        13.7970    1.2020  -13.5610 C.ar   50  TRP50       0.0003
     19  CD1       13.1230    2.3060  -13.1300 C.ar   50  TRP50       0.0946
     20  CD2       12.8100    0.2910  -14.0430 C.ar   50  TRP50       0.0152
     21  NE1       11.7650    2.1380  -13.3140 N.ar   50  TRP50      -0.2442
     22  CE2       11.5500    0.9050  -13.8700 C.ar   50  TRP50       0.0810
     23  CE3       12.8640   -0.9910  -14.6040 C.ar   50  TRP50       0.0012
     24  CZ2       10.3630    0.2850  -14.2520 C.ar   50  TRP50       0.0191
     25  CZ3       11.6840   -1.5970  -14.9790 C.ar   50  TRP50       0.0001
     26  CH2       10.4520   -0.9610  -14.8060 C.ar   50  TRP50       0.0015
     27  N         18.2400   -2.4180  -14.1560 N.3    52  ASP52      -0.1225
     28  CA        17.9300   -3.3090  -15.2750 C.3    52  ASP52       0.1805
     29  C         19.1470   -4.0370  -15.8600 C.2    52  ASP52       0.2597
     30  O         18.9900   -4.9860  -16.6350 O.2    52  ASP52      -0.2718
     31  CB        17.2420   -2.5210  -16.3800 C.3    52  ASP52       0.1424
     32  CG        18.0460   -1.3250  -16.8220 C.2    52  ASP52       0.3668
     33  OD1       18.2870   -0.4280  -15.9780 O.co2  52  ASP52      -0.2456
     34  OD2       18.4500   -1.2920  -18.0070 O.co2  52  ASP52      -0.2456
     35  N         20.3520   -3.5890  -15.5130 N.am   53  VAL53      -0.1980
     36  CA        21.5810   -4.2870  -15.9010 C.3    53  VAL53       0.1595
     37  C         22.4880   -4.4430  -14.6760 C.2    53  VAL53       0.2287
     38  O         22.5100   -3.5800  -13.7960 O.2    53  VAL53      -0.2864
     39  CB        22.3120   -3.5710  -17.0640 C.3    53  VAL53       0.0276
     40  CG1       21.5920   -3.8220  -18.3900 C.3    53  VAL53       0.0022
     41  CG2       22.4410   -2.0830  -16.7970 C.3    53  VAL53       0.0022
     42  N         25.6030   -4.1800  -14.3600 N.3    55  ARG55      -0.1231
     43  CA        26.6210   -3.1080  -14.3200 C.3    55  ARG55       0.1694
     44  C         26.1990   -1.8770  -13.5220 C.2    55  ARG55       0.2591
     45  O         27.0220   -0.9990  -13.2720 O.2    55  ARG55      -0.2718
     46  CB        26.9970   -2.6610  -15.7350 C.3    55  ARG55       0.0321
     47  CG        25.8690   -1.9750  -16.5090 C.3    55  ARG55       0.0489
     48  CD        26.4020   -1.1490  -17.6620 C.3    55  ARG55       0.2205
     49  NE        25.3370   -0.6280  -18.5280 N.pl3  55  ARG55      -0.0865
     50  CZ        24.6660    0.5150  -18.3330 C.cat  55  ARG55       0.5346
     51  NH1       24.9090    1.3000  -17.2790 N.pl3  55  ARG55       0.1354
     52  NH2       23.7250    0.8740  -19.2010 N.pl3  55  ARG55       0.1354
     53  N         24.9200   -1.8040  -13.1560 N.am   56  LYS56      -0.1980
     54  CA        24.4000   -0.6980  -12.3490 C.3    56  LYS56       0.1596
     55  C         24.4110   -0.9790  -10.8650 C.2    56  LYS56       0.2287
     56  O         24.2140   -0.0590  -10.0730 O.2    56  LYS56      -0.2864
     57  CB        22.9660   -0.3700  -12.7400 C.3    56  LYS56       0.0298
     58  CG        22.8530    0.3210  -14.0590 C.3    56  LYS56       0.0038
     59  CD        21.4930    0.9010  -14.2240 C.3    56  LYS56       0.0206
     60  CE        21.4550    1.7660  -15.4520 C.3    56  LYS56       0.1093
     61  NZ        20.3060    2.6800  -15.3680 N.3    56  LYS56      -0.1314
     62  N         14.9780   -5.6780  -11.7080 N.3    85  TYR85      -0.1241
     63  CA        14.4880   -5.9880  -13.0580 C.3    85  TYR85       0.1605
     64  C         15.5820   -6.6000  -13.9340 C.2    85  TYR85       0.2264
     65  O         16.1500   -5.9310  -14.8110 O.2    85  TYR85      -0.2867
     66  CB        13.9450   -4.7150  -13.7270 C.3    85  TYR85       0.0534
     67  CG        13.2640   -4.9420  -15.0650 C.ar   85  TYR85      -0.0201
     68  CD1       12.2080   -5.8370  -15.1790 C.ar   85  TYR85      -0.0009
     69  CD2       13.6520   -4.2480  -16.2060 C.ar   85  TYR85      -0.0009
     70  CE1       11.5620   -6.0510  -16.3910 C.ar   85  TYR85       0.0417
     71  CE2       12.9930   -4.4510  -17.4270 C.ar   85  TYR85       0.0417
     72  CZ        11.9480   -5.3610  -17.5040 C.ar   85  TYR85       0.1957
     73  OH        11.2850   -5.5930  -18.6910 O.3    85  TYR85      -0.2866
     74  N         14.0230  -12.4530  -19.5720 N.3    90  ARG90      -0.1245
     75  CA        13.1440  -11.3790  -19.1070 C.3    90  ARG90       0.1563
     76  C         12.0870  -11.0710  -20.1500 C.2    90  ARG90       0.2260
     77  O         12.3270  -11.2590  -21.3340 O.2    90  ARG90      -0.2867
     78  CB        13.9790  -10.1160  -18.8480 C.3    90  ARG90       0.0307
     79  CG        13.3900   -9.1080  -17.8830 C.3    90  ARG90       0.0489
     80  CD        14.4200   -8.0360  -17.5560 C.3    90  ARG90       0.2205
     81  NE        14.7990   -7.3120  -18.7550 N.pl3  90  ARG90      -0.0865
     82  CZ        15.7580   -6.3990  -18.8420 C.cat  90  ARG90       0.5346
     83  NH1       16.4800   -6.0320  -17.7830 N.pl3  90  ARG90       0.1354
     84  NH2       15.9840   -5.8350  -20.0190 N.pl3  90  ARG90       0.1354
     85  N         12.0710   -5.2500  -24.2330 N.3    97  SER97      -0.1217
     86  CA        12.9980   -5.3540  -23.1050 C.3    97  SER97       0.1889
     87  C         13.3580   -6.8310  -23.0840 C.2    97  SER97       0.2288
     88  O         12.4740   -7.6600  -22.9480 O.2    97  SER97      -0.2866
     89  CB        12.3160   -4.9530  -21.7920 C.3    97  SER97       0.2089
     90  OG        11.9010   -3.5960  -21.8070 O.3    97  SER97      -0.2183
     91  N          4.8950    1.0230  -15.7630 N.3   220  SER220     -0.1217
     92  CA         5.1330    1.2190  -17.2020 C.3   220  SER220      0.1889
     93  C          3.8520    1.2670  -18.0180 C.2   220  SER220      0.2288
     94  O          3.8870    1.1690  -19.2460 O.2   220  SER220     -0.2866
     95  CB         6.0900    0.1610  -17.7750 C.3   220  SER220      0.2089
     96  OG         7.3960    0.3680  -17.2980 O.3   220  SER220     -0.2183
     97  N          7.8570    3.8540  -13.4080 N.3   309  LYS309     -0.1231
     98  CA         8.4590    4.0580  -14.7330 C.3   309  LYS309      0.1678
     99  C          8.7560    5.5450  -14.9220 C.2   309  LYS309      0.2434
    100  O          7.8370    6.3560  -14.7890 O.2   309  LYS309     -0.2733
    101  CB         7.5150    3.5730  -15.8420 C.3   309  LYS309      0.0284
    102  CG         7.8820    4.0400  -17.2760 C.3   309  LYS309      0.0035
    103  CD         9.1320    3.3720  -17.8080 C.3   309  LYS309      0.0206
    104  CE         9.4820    3.9050  -19.1770 C.3   309  LYS309      0.1093
    105  NZ        10.3540    2.9790  -19.9620 N.3   309  LYS309     -0.1314
    106  N         10.0310    5.9070  -15.2160 N.am  310  PRO310     -0.2729
    107  CA        10.4070    7.3070  -15.4030 C.3   310  PRO310      0.1401
    108  C         10.0990    7.7970  -16.8090 C.2   310  PRO310      0.2269
    109  O         10.7350    7.3650  -17.7610 O.2   310  PRO310     -0.2865
    110  CB        11.9210    7.3120  -15.1400 C.3   310  PRO310      0.0296
    111  CG        12.2780    5.8960  -14.7170 C.3   310  PRO310      0.0237
    112  CD        11.2150    5.0420  -15.3020 C.3   310  PRO310      0.0939
    113  N         11.9840    7.8920  -20.7460 N.3   313  GLU313     -0.1245
    114  CA        12.7930    6.7180  -21.0830 C.3   313  GLU313      0.1567
    115  C         11.9240    5.7580  -21.8980 C.2   313  GLU313      0.2260
    116  O         10.8360    5.3780  -21.4660 O.2   313  GLU313     -0.2867
    117  CB        13.3430    6.0210  -19.8290 C.3   313  GLU313      0.0388
    118  CG        14.2160    6.9040  -18.9280 C.3   313  GLU313      0.1160
    119  CD        14.7080    6.2020  -17.6530 C.2   313  GLU313      0.3649
    120  OE1       14.3450    5.0390  -17.4230 O.co2 313  GLU313     -0.2457
    121  OE2       15.4800    6.8050  -16.8730 O.co2 313  GLU313     -0.2457
    122  N         10.0820    2.6850  -24.0800 N.3   315  ASP315     -0.1239
    123  CA         9.6010    1.3340  -23.7820 C.3   315  ASP315      0.1674
    124  C         10.1220    0.2980  -24.7920 C.2   315  ASP315      0.2266
    125  O         10.0620   -0.8980  -24.5380 O.2   315  ASP315     -0.2867
    126  CB         8.0660    1.2850  -23.8160 C.3   315  ASP315      0.1410
    127  CG         7.4150    2.1840  -22.7770 C.2   315  ASP315      0.3668
    128  OD1        7.8420    2.1580  -21.5960 O.co2 315  ASP315     -0.2456
    129  OD2        6.4490    2.9070  -23.1370 O.co2 315  ASP315     -0.2456
    130  N         15.6620   -6.3480  -31.0000 N.3   324  ARG324     -0.1245
    131  CA        14.6490   -6.2940  -29.9480 C.3   324  ARG324      0.1563
    132  C         13.3330   -5.6580  -30.4050 C.2   324  ARG324      0.2260
    133  O         12.5450   -5.2350  -29.5700 O.2   324  ARG324     -0.2867
    134  CB        15.1950   -5.5300  -28.7320 C.3   324  ARG324      0.0307
    135  CG        16.3870   -6.2050  -28.0450 C.3   324  ARG324      0.0489
    136  CD        17.2130   -5.1980  -27.2500 C.3   324  ARG324      0.2205
    137  NE        16.8980   -5.2020  -25.8200 N.pl3 324  ARG324     -0.0865
    138  CZ        16.7270   -4.1200  -25.0540 C.cat 324  ARG324      0.5346
    139  NH1       16.7950   -2.8900  -25.5520 N.pl3 324  ARG324      0.1354
    140  NH2       16.4550   -4.2750  -23.7670 N.pl3 324  ARG324      0.1354
    141  N         14.5010    0.5360  -25.7490 N.3   341  ALA341     -0.1231
    142  CA        13.9260    0.5840  -24.3890 C.3   341  ALA341      0.1694
    143  C         14.9700    1.0440  -23.3600 C.2   341  ALA341      0.2593
    144  O         16.1040    0.5810  -23.3770 O.2   341  ALA341     -0.2718
    145  CB        13.3570   -0.7710  -23.9960 C.3   341  ALA341      0.0304
    146  N         14.5870    1.9790  -22.4900 N.am  342  GLY342     -0.1942
    147  CA        15.4890    2.4930  -21.4590 C.3   342  GLY342      0.2014
    148  C         16.1690    3.7830  -21.8500 C.2   342  GLY342      0.2639
    149  O         16.4470    4.6160  -20.9940 O.2   342  GLY342     -0.2714
    150  N         16.4100    3.9700  -23.1440 N.am  343  THR343     -0.1950
    151  CA        17.1240    5.1520  -23.6280 C.3   343  THR343      0.1897
    152  C         16.1970    6.3530  -23.7750 C.2   343  THR343      0.2313
    153  O         14.9710    6.2090  -23.8890 O.2   343  THR343     -0.2863
    154  CB        17.8000    4.8800  -24.9720 C.3   343  THR343      0.1794
    155  OG1       16.8030    4.7480  -25.9900 O.3   343  THR343     -0.2208
    156  CG2       18.6360    3.5990  -24.8960 C.3   343  THR343      0.0378
@<TRIPOS>BOND
     1   130   131    1
     2   132   131    1
     3   132   133    2
     4   131   134    1
     5   134   135    1
     6   135   136    1
     7   136   137    1
     8   155   154    1
     9   137   138    2
    10   141   142    1
    11   139   138    1
    12   138   140    1
    13   154   156    1
    14   154   151    1
    15   124   125    2
    16   124   123    1
    17   142   145    1
    18   142   143    1
    19    85    86    1
    20   122   123    1
    21   153   152    2
    22   126   123    1
    23   126   127    1
    24   152   151    1
    25   151   150    1
    26   144   143    2
    27   143   146   am
    28   150   148   am
    29   129   127   ar
    30    86    87    1
    31    86    89    1
    32    87    88    2
    33   127   128   ar
    34   146   147    1
    35   115   116    2
    36   115   114    1
    37   148   147    1
    38   148   149    2
    39    90    89    1
    40    77    76    2
    41   114   113    1
    42   114   117    1
    43    76    75    1
    44    84    82    1
    45   105   104    1
    46   117   118    1
    47    74    75    1
    48    94    93    2
    49    52    50    1
    50   104   103    1
    51    75    78    1
    52   118   119    1
    53    78    79    1
    54    82    81    2
    55    82    83    1
    56    81    80    1
    57    12    11    1
    58    73    72    1
    59    49    50    2
    60    49    48    1
    61    40    39    1
    62    50    51    1
    63    93    92    1
    64    34    32   ar
    65    79    80    1
    66   103   102    1
    67    95    96    1
    68    95    92    1
    69   109   108    2
    70    48    47    1
    71   119   120   ar
    72   119   121   ar
    73    72    71   ar
    74    72    70   ar
    75    71    69   ar
    76    11    10   ar
    77    11     9   ar
    78   102   101    1
    79    92    91    1
    80    39    41    1
    81    39    36    1
    82    10     8   ar
    83    32    31    1
    84    32    33   ar
    85   108   107    1
    86    30    29    2
    87     9     7   ar
    88    47    46    1
    89    70    68   ar
    90    31    28    1
    91    69    67   ar
    92    36    35    1
    93    36    37    1
    94    29    35   am
    95    29    28    1
    96   101    98    1
    97    46    43    1
    98     8     6   ar
    99    60    61    1
   100    60    59    1
   101   107   106    1
   102   107   110    1
   103   112   106    1
   104   112   111    1
   105    28    27    1
   106   106    99   am
   107     7     6   ar
   108    68    67   ar
   109   110   111    1
   110    67    66    1
   111     4     3    2
   112    25    26   ar
   113    25    23   ar
   114    99   100    2
   115    99    98    1
   116    65    64    2
   117    26    24   ar
   118     6     5    1
   119    98    97    1
   120    37    38    2
   121    23    20   ar
   122    42    43    1
   123    43    44    1
   124    24    22   ar
   125    59    58    1
   126    58    57    1
   127    20    22   ar
   128    20    18   ar
   129    64    63    1
   130     3     2    1
   131    22    21   ar
   132    66    63    1
   133    18    17    1
   134    18    19   ar
   135    17    14    1
   136    44    45    2
   137    44    53   am
   138     5     2    1
   139    21    19   ar
   140    53    54    1
   141     2     1    1
   142    63    62    1
   143    57    54    1
   144    16    15    2
   145    54    55    1
   146    15    14    1
   147    14    13    1
   148    55    56    2
