@<TRIPOS>MOLECULE
tmp/3vohA01.pdb
 158 154 0 0 0
SMALL
GASTEIGER

@<TRIPOS>ATOM
      1  N         10.9260  -10.5780  -19.7200 N.3    91  ASP91      -0.1239
      2  CA         9.9270  -10.0830  -20.6670 C.3    91  ASP91       0.1674
      3  C          9.6260  -11.2000  -21.6770 C.2    91  ASP91       0.2266
      4  O          9.8230  -11.0490  -22.8810 O.2    91  ASP91      -0.2867
      5  CB        10.4680   -8.8210  -21.3710 C.3    91  ASP91       0.1410
      6  CG         9.3770   -8.0050  -22.0700 C.2    91  ASP91       0.3668
      7  OD1        8.1880   -8.1440  -21.7010 O.co2  91  ASP91      -0.2456
      8  OD2        9.7030   -7.2140  -22.9890 O.co2  91  ASP91      -0.2456
      9  N          6.9620  -12.5690  -22.8690 N.3    93  ALA93      -0.1231
     10  CA         5.8540  -12.4320  -23.8320 C.3    93  ALA93       0.1694
     11  C          6.0960  -11.3450  -24.8790 C.2    93  ALA93       0.2591
     12  O          5.1860  -10.9950  -25.6150 O.2    93  ALA93      -0.2718
     13  CB         4.5520  -12.1430  -23.0910 C.3    93  ALA93       0.0304
     14  N          7.3050  -10.8020  -24.9360 N.am   94  ALA94      -0.1980
     15  CA         7.6260   -9.6590  -25.7960 C.3    94  ALA94       0.1597
     16  C          9.1070   -9.6810  -26.1710 C.2    94  ALA94       0.2287
     17  O          9.8340  -10.5880  -25.7800 O.2    94  ALA94      -0.2864
     18  CB         7.2870   -8.3560  -25.0860 C.3    94  ALA94       0.0319
     19  N         12.0710   -5.2500  -24.2330 N.3    97  SER97      -0.1217
     20  CA        12.9980   -5.3540  -23.1050 C.3    97  SER97       0.1889
     21  C         13.3580   -6.8310  -23.0840 C.2    97  SER97       0.2288
     22  O         12.4740   -7.6600  -22.9480 O.2    97  SER97      -0.2866
     23  CB        12.3160   -4.9530  -21.7920 C.3    97  SER97       0.2089
     24  OG        11.9010   -3.5960  -21.8070 O.3    97  SER97      -0.2183
     25  N          6.3550   -7.2860  -14.7400 N.3   137  ASP137     -0.1239
     26  CA         5.8370   -8.1750  -15.7870 C.3   137  ASP137      0.1674
     27  C          6.0130   -9.6740  -15.5320 C.2   137  ASP137      0.2266
     28  O          5.2770  -10.4710  -16.1110 O.2   137  ASP137     -0.2867
     29  CB         6.4010   -7.8120  -17.1660 C.3   137  ASP137      0.1410
     30  CG         6.2890   -6.3140  -17.4760 C.2   137  ASP137      0.3668
     31  OD1        5.5270   -5.5980  -16.7820 O.co2 137  ASP137     -0.2456
     32  OD2        6.9710   -5.8570  -18.4160 O.co2 137  ASP137     -0.2456
     33  N          2.8500  -12.3930  -16.3250 N.3   141  ASN141     -0.1240
     34  CA         2.9820  -13.2850  -17.4740 C.3   141  ASN141      0.1653
     35  C          2.7170  -14.7550  -17.1150 C.2   141  ASN141      0.2266
     36  O          2.2410  -15.5270  -17.9510 O.2   141  ASN141     -0.2867
     37  CB         4.3880  -13.1580  -18.0980 C.3   141  ASN141      0.1155
     38  CG         4.5390  -11.9500  -19.0180 C.2   141  ASN141      0.2627
     39  OD1        5.5580  -11.2630  -18.9910 O.2   141  ASN141     -0.2716
     40  ND2        3.5550  -11.7110  -19.8530 N.am  141  ASN141     -0.0877
     41  N         -1.2290  -15.2060  -17.1960 N.3   144  THR144     -0.1203
     42  CA        -1.9690  -15.0530  -18.4450 C.3   144  THR144      0.1994
     43  C         -1.2560  -15.5340  -19.7150 C.2   144  THR144      0.2617
     44  O         -1.8950  -15.6570  -20.7690 O.2   144  THR144     -0.2717
     45  CB        -2.3080  -13.5660  -18.6640 C.3   144  THR144      0.1784
     46  OG1       -1.1070  -12.8420  -18.9840 O.3   144  THR144     -0.2211
     47  CG2       -2.9490  -12.9790  -17.4150 C.3   144  THR144      0.0376
     48  N          0.0480  -15.7790  -19.6370 N.am  145  ASN145     -0.1974
     49  CA         0.8250  -16.0950  -20.8290 C.3   145  ASN145      0.1688
     50  C          1.5500  -17.4350  -20.7340 C.2   145  ASN145      0.2292
     51  O          2.6510  -17.6020  -21.2770 O.2   145  ASN145     -0.2864
     52  CB         1.8090  -14.9600  -21.1230 C.3   145  ASN145      0.1181
     53  CG         1.1750  -13.8170  -21.8700 C.2   145  ASN145      0.2629
     54  OD1        0.5530  -14.0130  -22.9150 O.2   145  ASN145     -0.2716
     55  ND2        1.3430  -12.6150  -21.3590 N.am  145  ASN145     -0.0877
     56  N         -1.5290   -4.9300  -14.0900 N.3   182  HIS182     -0.1241
     57  CA        -2.4480   -3.7900  -14.0420 C.3   182  HIS182      0.1621
     58  C         -3.9020   -4.1880  -14.3280 C.2   182  HIS182      0.2264
     59  O         -4.1920   -5.3370  -14.6720 O.2   182  HIS182     -0.2867
     60  CB        -1.9850   -2.6510  -14.9770 C.3   182  HIS182      0.0745
     61  CG        -2.0090   -2.9920  -16.4360 C.ar  182  HIS182      0.0817
     62  ND1       -3.1130   -2.7840  -17.2320 N.ar  182  HIS182     -0.2268
     63  CD2       -1.0470   -3.4830  -17.2510 C.ar  182  HIS182      0.1154
     64  CE1       -2.8440   -3.1640  -18.4680 C.ar  182  HIS182      0.1986
     65  NE2       -1.5920   -3.5850  -18.5080 N.ar  182  HIS182     -0.2212
     66  N         -5.9640   -3.7070  -16.6440 N.3   184  GLY184     -0.1210
     67  CA        -6.1690   -4.2860  -17.9700 C.3   184  GLY184      0.1956
     68  C         -5.3890   -5.5510  -18.2750 C.2   184  GLY184      0.2611
     69  O         -5.4270   -6.0470  -19.3980 O.2   184  GLY184     -0.2717
     70  N         -4.6790   -6.0820  -17.2820 N.am  185  TRP185     -0.1976
     71  CA        -3.9490   -7.3380  -17.4470 C.3   185  TRP185      0.1640
     72  C         -4.5450   -8.4070  -16.5420 C.2   185  TRP185      0.2290
     73  O         -5.0330   -9.4310  -17.0310 O.2   185  TRP185     -0.2864
     74  CB        -2.4750   -7.1170  -17.1330 C.3   185  TRP185      0.0576
     75  CG        -1.5600   -8.1890  -17.5900 C.ar  185  TRP185      0.0006
     76  CD1       -1.8850   -9.4590  -17.9560 C.ar  185  TRP185      0.0946
     77  CD2       -0.1400   -8.0910  -17.6880 C.ar  185  TRP185      0.0152
     78  NE1       -0.7520  -10.1560  -18.3030 N.ar  185  TRP185     -0.2442
     79  CE2        0.3350   -9.3370  -18.1470 C.ar  185  TRP185      0.0810
     80  CE3        0.7800   -7.0640  -17.4450 C.ar  185  TRP185      0.0012
     81  CZ2        1.6890   -9.5900  -18.3550 C.ar  185  TRP185      0.0191
     82  CZ3        2.1240   -7.3160  -17.6630 C.ar  185  TRP185      0.0001
     83  CH2        2.5660   -8.5670  -18.1090 C.ar  185  TRP185      0.0015
     84  N         -9.1660   -8.3750  -15.3890 N.3   188  TRP188     -0.1241
     85  CA       -10.1010   -9.2390  -16.0900 C.3   188  TRP188      0.1605
     86  C        -10.5020  -10.3250  -15.1030 C.2   188  TRP188      0.2264
     87  O         -9.6500  -10.8960  -14.4120 O.2   188  TRP188     -0.2867
     88  CB        -9.4590   -9.8510  -17.3500 C.3   188  TRP188      0.0550
     89  CG        -9.1600   -8.8230  -18.4250 C.ar  188  TRP188      0.0003
     90  CD1       -8.0250   -8.0690  -18.5490 C.ar  188  TRP188      0.0946
     91  CD2      -10.0110   -8.4430  -19.5160 C.ar  188  TRP188      0.0152
     92  NE1       -8.1210   -7.2410  -19.6430 N.ar  188  TRP188     -0.2442
     93  CE2       -9.3280   -7.4520  -20.2550 C.ar  188  TRP188      0.0810
     94  CE3      -11.2820   -8.8490  -19.9440 C.ar  188  TRP188      0.0012
     95  CZ2       -9.8750   -6.8560  -21.4000 C.ar  188  TRP188      0.0191
     96  CZ3      -11.8260   -8.2520  -21.0870 C.ar  188  TRP188      0.0001
     97  CH2      -11.1200   -7.2670  -21.7990 C.ar  188  TRP188      0.0015
     98  N         -8.6910  -13.6890  -14.5350 N.3   191  ASN191     -0.1240
     99  CA        -7.3160  -13.6520  -14.0390 C.3   191  ASN191      0.1653
    100  C         -7.1970  -13.2400  -12.5700 C.2   191  ASN191      0.2266
    101  O         -6.1010  -13.2790  -12.0180 O.2   191  ASN191     -0.2867
    102  CB        -6.4720  -12.7100  -14.8950 C.3   191  ASN191      0.1155
    103  CG        -6.5120  -13.0710  -16.3580 C.2   191  ASN191      0.2627
    104  OD1       -6.8730  -14.1870  -16.7110 O.2   191  ASN191     -0.2716
    105  ND2       -6.1530  -12.1300  -17.2210 N.am  191  ASN191     -0.0877
    106  N          2.7250   -0.3960  -13.3980 N.3   219  VAL219     -0.1231
    107  CA         4.1240   -0.0920  -13.7230 C.3   219  VAL219      0.1692
    108  C          4.3180   -0.0600  -15.2450 C.2   219  VAL219      0.2593
    109  O          3.9370   -0.9960  -15.9260 O.2   219  VAL219     -0.2718
    110  CB         5.1210   -1.1490  -13.1060 C.3   219  VAL219      0.0266
    111  CG1        6.5650   -0.8540  -13.5380 C.3   219  VAL219      0.0020
    112  CG2        5.0160   -1.1980  -11.5670 C.3   219  VAL219      0.0020
    113  N          4.8950    1.0230  -15.7630 N.am  220  SER220     -0.1938
    114  CA         5.1330    1.2190  -17.2020 C.3   220  SER220      0.2055
    115  C          3.8520    1.2670  -18.0180 C.2   220  SER220      0.2643
    116  O          3.8870    1.1690  -19.2460 O.2   220  SER220     -0.2714
    117  CB         6.0900    0.1610  -17.7750 C.3   220  SER220      0.2130
    118  OG         7.3960    0.3680  -17.2980 O.3   220  SER220     -0.2179
    119  N          2.7260    1.4350  -17.3380 N.am  221  ASN221     -0.1971
    120  CA         1.4530    1.5720  -18.0090 C.3   221  ASN221      0.1688
    121  C          0.8200    2.9450  -17.7250 C.2   221  ASN221      0.2292
    122  O          1.4800    3.8340  -17.1640 O.2   221  ASN221     -0.2864
    123  CB         0.5340    0.3970  -17.6390 C.3   221  ASN221      0.1181
    124  CG        -0.3910   -0.0030  -18.7810 C.2   221  ASN221      0.2629
    125  OD1       -1.3730    0.6860  -19.0560 O.2   221  ASN221     -0.2716
    126  ND2       -0.0780   -1.1060  -19.4480 N.am  221  ASN221     -0.0877
    127  N         -6.5300   -2.0840  -25.4260 N.3   278  TRP278     -0.1227
    128  CA        -6.0040   -1.9980  -24.0620 C.3   278  TRP278      0.1737
    129  C         -4.6460   -2.6860  -23.8680 C.2   278  TRP278      0.2596
    130  O         -3.8860   -2.3300  -22.9630 O.2   278  TRP278     -0.2718
    131  CB        -6.9860   -2.5750  -23.0570 C.3   278  TRP278      0.0564
    132  CG        -6.8430   -1.9730  -21.6980 C.ar  278  TRP278      0.0003
    133  CD1       -5.8730   -1.1080  -21.2670 C.ar  278  TRP278      0.0946
    134  CD2       -7.7020   -2.1920  -20.5860 C.ar  278  TRP278      0.0152
    135  NE1       -6.0860   -0.7720  -19.9550 N.ar  278  TRP278     -0.2442
    136  CE2       -7.2030   -1.4230  -19.5110 C.ar  278  TRP278      0.0810
    137  CE3       -8.8450   -2.9630  -20.3900 C.ar  278  TRP278      0.0012
    138  CZ2       -7.8070   -1.4070  -18.2610 C.ar  278  TRP278      0.0191
    139  CZ3       -9.4420   -2.9510  -19.1440 C.ar  278  TRP278      0.0001
    140  CH2       -8.9210   -2.1790  -18.0940 C.ar  278  TRP278      0.0015
    141  N         -4.3380   -3.6640  -24.7120 N.am  279  GLY279     -0.1957
    142  CA        -3.0460   -4.3440  -24.6510 C.3   279  GLY279      0.1869
    143  C         -1.9050   -3.5840  -25.2950 C.2   279  GLY279      0.2309
    144  O         -0.8100   -4.1110  -25.3980 O.2   279  GLY279     -0.2863
    145  N          0.9370   -1.0320  -25.1010 N.3   281  TRP281     -0.1241
    146  CA         1.7700   -0.5740  -23.9810 C.3   281  TRP281      0.1605
    147  C          3.0020    0.2300  -24.4020 C.2   281  TRP281      0.2264
    148  O          3.6260    0.9020  -23.5620 O.2   281  TRP281     -0.2867
    149  CB         2.2440   -1.7870  -23.1610 C.3   281  TRP281      0.0550
    150  CG         2.8480   -2.8680  -24.0160 C.ar  281  TRP281      0.0003
    151  CD1        2.2160   -3.9800  -24.5040 C.ar  281  TRP281      0.0946
    152  CD2        4.1850   -2.9130  -24.5230 C.ar  281  TRP281      0.0152
    153  NE1        3.0830   -4.7260  -25.2620 N.ar  281  TRP281     -0.2442
    154  CE2        4.2980   -4.0940  -25.2970 C.ar  281  TRP281      0.0810
    155  CE3        5.3070   -2.0890  -24.3760 C.ar  281  TRP281      0.0012
    156  CZ2        5.4750   -4.4560  -25.9370 C.ar  281  TRP281      0.0191
    157  CZ3        6.4780   -2.4470  -25.0150 C.ar  281  TRP281      0.0001
    158  CH2        6.5520   -3.6240  -25.7900 C.ar  281  TRP281      0.0015
@<TRIPOS>BOND
     1    16    15    1
     2    16    17    2
     3   156   158   ar
     4   156   154   ar
     5    15    18    1
     6    15    14    1
     7   158   157   ar
     8    12    11    2
     9   127   128    1
    10   144   143    2
    11   154   153   ar
    12   154   152   ar
    13   143   142    1
    14   153   151   ar
    15   145   146    1
    16   157   155   ar
    17    14    11   am
    18    11    10    1
    19   141   142    1
    20   141   129   am
    21   152   155   ar
    22   152   150   ar
    23   151   150   ar
    24   147   146    1
    25   147   148    2
    26    19    20    1
    27   128   129    1
    28   128   131    1
    29   150   149    1
    30   146   149    1
    31   129   130    2
    32    10    13    1
    33    10     9    1
    34    20    21    1
    35    20    23    1
    36    21    22    2
    37   131   132    1
    38     8     6   ar
    39    54    53    2
    40     4     3    2
    41     6     7   ar
    42     6     5    1
    43    53    55   am
    44    53    52    1
    45    24    23    1
    46    97    95   ar
    47    97    96   ar
    48   132   133   ar
    49   132   134   ar
    50     3     2    1
    51    95    93   ar
    52     5     2    1
    53    51    50    2
    54   133   135   ar
    55    52    49    1
    56    96    94   ar
    57    49    50    1
    58    49    48    1
    59    44    43    2
    60     2     1    1
    61   134   137   ar
    62   134   136   ar
    63   137   139   ar
    64    93    92   ar
    65    93    91   ar
    66   135   136   ar
    67    94    91   ar
    68    40    38   am
    69    43    48   am
    70    43    42    1
    71    92    90   ar
    72    91    89   ar
    73   136   138   ar
    74   126   124   am
    75    69    68    2
    76   116   115    2
    77   139   140   ar
    78   125   124    2
    79    38    39    2
    80    38    37    1
    81    46    45    1
    82   124   123    1
    83    45    42    1
    84    45    47    1
    85    90    89   ar
    86    65    64   ar
    87    65    63   ar
    88    64    62   ar
    89    42    41    1
    90    89    88    1
    91    32    30   ar
    92    81    79   ar
    93    81    83   ar
    94    78    79   ar
    95    78    76   ar
    96    68    67    1
    97    68    70   am
    98   138   140   ar
    99    79    77   ar
   100    83    82   ar
   101    37    34    1
   102   115   119   am
   103   115   114    1
   104   120   121    1
   105   120   123    1
   106   120   119    1
   107    67    66    1
   108    76    75   ar
   109    36    35    2
   110   117   118    1
   111   117   114    1
   112   121   122    2
   113    77    75   ar
   114    77    80   ar
   115    82    80   ar
   116    75    74    1
   117    30    29    1
   118    30    31   ar
   119    34    35    1
   120    34    33    1
   121    71    70    1
   122    71    74    1
   123    71    72    1
   124    88    85    1
   125    63    61   ar
   126    62    61   ar
   127   105   103   am
   128   114   113    1
   129    29    26    1
   130    73    72    2
   131   104   103    2
   132    61    60    1
   133   103   102    1
   134    28    27    2
   135    85    84    1
   136    85    86    1
   137   109   108    2
   138    26    27    1
   139    26    25    1
   140   113   108   am
   141   108   107    1
   142    86    87    2
   143    60    57    1
   144   102    99    1
   145    59    58    2
   146    98    99    1
   147    58    57    1
   148    56    57    1
   149    99   100    1
   150   107   106    1
   151   107   110    1
   152   111   110    1
   153   110   112    1
   154   100   101    2
