@<TRIPOS>MOLECULE
tmp/3voiA00.pdb
 183 179 0 0 0
SMALL
GASTEIGER

@<TRIPOS>ATOM
      1  N          6.9170   30.2580   11.4250 N.3    83  TYR83      -0.1241
      2  CA         7.3720   29.9300   12.7750 C.3    83  TYR83       0.1605
      3  C          6.2430   29.3280   13.6130 C.2    83  TYR83       0.2264
      4  O          5.6200   30.0060   14.4620 O.2    83  TYR83      -0.2867
      5  CB         7.9640   31.1810   13.4380 C.3    83  TYR83       0.0534
      6  CG         8.5990   30.9520   14.7890 C.ar   83  TYR83      -0.0201
      7  CD1        9.7090   30.1110   14.9340 C.ar   83  TYR83      -0.0009
      8  CD2        8.1080   31.6000   15.9220 C.ar   83  TYR83      -0.0009
      9  CE1       10.2910   29.9140   16.1700 C.ar   83  TYR83       0.0417
     10  CE2        8.6930   31.4120   17.1610 C.ar   83  TYR83       0.0417
     11  CZ         9.7810   30.5640   17.2780 C.ar   83  TYR83       0.1957
     12  OH        10.3500   30.3690   18.5160 O.3    83  TYR83      -0.2866
     13  N         10.4400   25.4810   19.5190 N.3    89  ASP89      -0.1239
     14  CA        11.3650   26.0400   20.5100 C.3    89  ASP89       0.1674
     15  C         11.7170   24.9970   21.5730 C.2    89  ASP89       0.2266
     16  O         11.5780   25.2380   22.7850 O.2    89  ASP89      -0.2867
     17  CB        10.7260   27.2850   21.1460 C.3    89  ASP89       0.1410
     18  CG        11.7330   28.1850   21.8260 C.2    89  ASP89       0.3668
     19  OD1       12.9200   28.2350   21.3980 O.co2  89  ASP89      -0.2456
     20  OD2       11.3170   28.8580   22.7900 O.co2  89  ASP89      -0.2456
     21  N         14.2070   23.4870   22.9700 N.3    91  ALA91      -0.1231
     22  CA        15.2360   23.6010   24.0000 C.3    91  ALA91       0.1694
     23  C         14.8930   24.6920   25.0100 C.2    91  ALA91       0.2591
     24  O         15.6520   24.9430   25.9390 O.2    91  ALA91      -0.2718
     25  CB        16.5940   23.8720   23.3630 C.3    91  ALA91       0.0304
     26  N         13.7470   25.3370   24.8270 N.am   92  ALA92      -0.1980
     27  CA        13.3690   26.4720   25.6650 C.3    92  ALA92       0.1597
     28  C         11.8980   26.4380   26.0550 C.2    92  ALA92       0.2287
     29  O         11.1100   25.6910   25.4810 O.2    92  ALA92      -0.2864
     30  CB        13.7030   27.7950   24.9650 C.3    92  ALA92       0.0319
     31  N         15.4540   28.5420   14.6960 N.3   135  ASP135     -0.1239
     32  CA        15.8940   27.6040   15.7460 C.3   135  ASP135      0.1674
     33  C         15.7040   26.1290   15.4450 C.2   135  ASP135      0.2266
     34  O         16.4190   25.3090   15.9940 O.2   135  ASP135     -0.2867
     35  CB        15.2650   27.9440   17.1040 C.3   135  ASP135      0.1410
     36  CG        15.4620   29.3860   17.4760 C.2   135  ASP135      0.3668
     37  OD1       16.4850   29.9690   17.0290 O.co2 135  ASP135     -0.2456
     38  OD2       14.5930   29.9350   18.2010 O.co2 135  ASP135     -0.2456
     39  N         18.5660   23.3540   16.6410 N.3   139  ASN139     -0.1240
     40  CA        18.2930   22.4240   17.7440 C.3   139  ASN139      0.1653
     41  C         18.5080   20.9620   17.3610 C.2   139  ASN139      0.2266
     42  O         18.9340   20.1520   18.1800 O.2   139  ASN139     -0.2867
     43  CB        16.8670   22.6150   18.2750 C.3   139  ASN139      0.1155
     44  CG        16.7620   23.7550   19.2620 C.2   139  ASN139      0.2627
     45  OD1       15.7960   24.5310   19.2410 O.2   139  ASN139     -0.2716
     46  ND2       17.7580   23.8740   20.1320 N.am  139  ASN139     -0.0877
     47  N         22.2290   20.2900   17.6980 N.3   142  THR142     -0.1203
     48  CA        22.9130   20.5390   18.9590 C.3   142  THR142      0.1994
     49  C         22.2460   19.9770   20.2060 C.2   142  THR142      0.2617
     50  O         22.9350   19.7430   21.2070 O.2   142  THR142     -0.2717
     51  CB        23.1200   22.0580   19.1730 C.3   142  THR142      0.1784
     52  OG1       21.8440   22.7180   19.1810 O.3   142  THR142     -0.2211
     53  CG2       23.9940   22.6320   18.0540 C.3   142  THR142      0.0376
     54  N         20.9340   19.7490   20.1500 N.am  143  ASN143     -0.1974
     55  CA        20.1520   19.4730   21.3650 C.3   143  ASN143      0.1688
     56  C         19.3320   18.1750   21.4130 C.2   143  ASN143      0.2292
     57  O         18.3040   18.1200   22.0840 O.2   143  ASN143     -0.2864
     58  CB        19.2330   20.6570   21.6670 C.3   143  ASN143      0.1181
     59  CG        19.9530   21.7960   22.3620 C.2   143  ASN143      0.2629
     60  OD1       20.7060   21.5870   23.3090 O.2   143  ASN143     -0.2716
     61  ND2       19.7090   23.0130   21.8990 N.am  143  ASN143     -0.0877
     62  N         23.2550   30.7990   14.4440 N.3   180  HIS180     -0.1241
     63  CA        24.1660   31.9580   14.4340 C.3   180  HIS180      0.1621
     64  C         25.5810   31.5030   14.7410 C.2   180  HIS180      0.2264
     65  O         25.8030   30.3240   15.0210 O.2   180  HIS180     -0.2867
     66  CB        23.7020   33.0770   15.3990 C.3   180  HIS180      0.0745
     67  CG        23.6440   32.6720   16.8450 C.ar  180  HIS180      0.0817
     68  ND1       24.6970   32.8580   17.7140 N.ar  180  HIS180     -0.2268
     69  CD2       22.6480   32.1160   17.5790 C.ar  180  HIS180      0.1154
     70  CE1       24.3650   32.4150   18.9140 C.ar  180  HIS180      0.1986
     71  NE2       23.1270   31.9520   18.8580 N.ar  180  HIS180     -0.2212
     72  N         27.5570   31.8560   17.2900 N.3   182  GLY182     -0.1210
     73  CA        27.7430   31.2480   18.6170 C.3   182  GLY182      0.1956
     74  C         26.8970   30.0100   18.8640 C.2   182  GLY182      0.2611
     75  O         26.8700   29.4870   19.9810 O.2   182  GLY182     -0.2717
     76  N         26.2160   29.5340   17.8280 N.am  183  TRP183     -0.1976
     77  CA        25.4260   28.2960   17.9460 C.3   183  TRP183      0.1640
     78  C         26.0390   27.2320   17.0460 C.2   183  TRP183      0.2290
     79  O         26.5880   26.2360   17.5280 O.2   183  TRP183     -0.2864
     80  CB        23.9610   28.5460   17.5810 C.3   183  TRP183      0.0576
     81  CG        22.9740   27.4720   18.0500 C.ar  183  TRP183      0.0006
     82  CD1       23.2670   26.1960   18.4730 C.ar  183  TRP183      0.0946
     83  CD2       21.5410   27.5820   18.0880 C.ar  183  TRP183      0.0152
     84  NE1       22.1060   25.5220   18.7910 N.ar  183  TRP183     -0.2442
     85  CE2       21.0360   26.3490   18.5620 C.ar  183  TRP183      0.0810
     86  CE3       20.6350   28.6050   17.7650 C.ar  183  TRP183      0.0012
     87  CZ2       19.6670   26.1150   18.7230 C.ar  183  TRP183      0.0191
     88  CZ3       19.2770   28.3710   17.9300 C.ar  183  TRP183      0.0001
     89  CH2       18.8080   27.1360   18.4120 C.ar  183  TRP183      0.0015
     90  N         30.6290   27.0080   15.9820 N.3   186  TRP186     -0.1241
     91  CA        31.5980   26.1480   16.6570 C.3   186  TRP186      0.1605
     92  C         32.0010   24.9770   15.7670 C.2   186  TRP186      0.2264
     93  O         31.1630   24.3900   15.1150 O.2   186  TRP186     -0.2867
     94  CB        30.9790   25.5970   17.9410 C.3   186  TRP186      0.0550
     95  CG        30.7280   26.6430   18.9650 C.ar  186  TRP186      0.0003
     96  CD1       29.5420   27.2610   19.2370 C.ar  186  TRP186      0.0946
     97  CD2       31.6950   27.2180   19.8450 C.ar  186  TRP186      0.0152
     98  NE1       29.7080   28.1750   20.2510 N.ar  186  TRP186     -0.2442
     99  CE2       31.0220   28.1670   20.6430 C.ar  186  TRP186      0.0810
    100  CE3       33.0690   27.0160   20.0430 C.ar  186  TRP186      0.0012
    101  CZ2       31.6730   28.9160   21.6320 C.ar  186  TRP186      0.0191
    102  CZ3       33.7160   27.7530   21.0330 C.ar  186  TRP186      0.0001
    103  CH2       33.0210   28.6960   21.8100 C.ar  186  TRP186      0.0015
    104  N         32.6290   21.9990   16.5870 N.3   188  ALA188     -0.1231
    105  CA        31.7600   20.8840   16.9540 C.3   188  ALA188      0.1694
    106  C         30.5280   20.7590   16.0340 C.2   188  ALA188      0.2592
    107  O         30.0770   19.6390   15.7550 O.2   188  ALA188     -0.2718
    108  CB        31.3160   21.0070   18.4330 C.3   188  ALA188      0.0304
    109  N         30.0090   21.8960   15.5510 N.am  189  ASN189     -0.1974
    110  CA        28.6920   21.9350   14.8970 C.3   189  ASN189      0.1688
    111  C         28.6550   22.2480   13.4040 C.2   189  ASN189      0.2292
    112  O         27.6510   21.9740   12.7490 O.2   189  ASN189     -0.2864
    113  CB        27.7430   22.8770   15.6550 C.3   189  ASN189      0.1181
    114  CG        27.5100   22.4280   17.0920 C.2   189  ASN189      0.2629
    115  OD1       27.5570   21.2330   17.3920 O.2   189  ASN189     -0.2716
    116  ND2       27.2880   23.3850   17.9900 N.am  189  ASN189     -0.0877
    117  N         18.9690   35.2840   13.6220 N.3   217  VAL217     -0.1231
    118  CA        17.5630   35.5710   13.8990 C.3   217  VAL217      0.1692
    119  C         17.3230   35.6670   15.4080 C.2   217  VAL217      0.2593
    120  O         17.6810   34.7510   16.1620 O.2   217  VAL217     -0.2718
    121  CB        16.5980   34.5450   13.2500 C.3   217  VAL217      0.0266
    122  CG1       15.1410   34.9270   13.5400 C.3   217  VAL217      0.0020
    123  CG2       16.8280   34.4800   11.7280 C.3   217  VAL217      0.0020
    124  N         16.7490   36.8040   15.8240 N.am  218  SER218     -0.1938
    125  CA        16.4920   37.1420   17.2400 C.3   218  SER218      0.2055
    126  C         17.7360   37.1370   18.1120 C.2   218  SER218      0.2643
    127  O         17.6440   37.0170   19.3290 O.2   218  SER218     -0.2714
    128  CB        15.4160   36.2400   17.8590 C.3   218  SER218      0.2130
    129  OG        14.2890   36.1810   17.0140 O.3   218  SER218     -0.2179
    130  N         18.9010   37.2570   17.4950 N.am  219  ASN219     -0.1971
    131  CA        20.1270   37.2970   18.2650 C.3   219  ASN219      0.1688
    132  C         20.8420   38.6350   18.0940 C.2   219  ASN219      0.2292
    133  O         20.2610   39.5790   17.5670 O.2   219  ASN219     -0.2864
    134  CB        21.0150   36.0750   17.9830 C.3   219  ASN219      0.1181
    135  CG        21.8730   35.6930   19.1820 C.2   219  ASN219      0.2629
    136  OD1       22.9060   36.3250   19.4510 O.2   219  ASN219     -0.2716
    137  ND2       21.4540   34.6600   19.9120 N.am  219  ASN219     -0.0877
    138  N         37.2680   31.2350   22.1500 N.3   234  GLY234     -0.1225
    139  CA        37.3150   29.8260   21.7980 C.3   234  GLY234      0.1811
    140  C         36.6930   29.5190   20.4500 C.2   234  GLY234      0.2280
    141  O         36.9200   28.4450   19.9010 O.2   234  GLY234     -0.2866
    142  N         27.5980   33.6750   25.8280 N.3   276  TRP276     -0.1227
    143  CA        27.1710   33.7970   24.4420 C.3   276  TRP276      0.1737
    144  C         25.7850   33.1680   24.2640 C.2   276  TRP276      0.2596
    145  O         24.9650   33.6770   23.5210 O.2   276  TRP276     -0.2718
    146  CB        28.1970   33.1560   23.5060 C.3   276  TRP276      0.0564
    147  CG        28.1530   33.6950   22.0990 C.ar  276  TRP276      0.0003
    148  CD1       27.2100   34.5330   21.5680 C.ar  276  TRP276      0.0946
    149  CD2       29.0870   33.4290   21.0460 C.ar  276  TRP276      0.0152
    150  NE1       27.5070   34.8190   20.2620 N.ar  276  TRP276     -0.2442
    151  CE2       28.6490   34.1470   19.9100 C.ar  276  TRP276      0.0810
    152  CE3       30.2540   32.6590   20.9500 C.ar  276  TRP276      0.0012
    153  CZ2       29.3300   34.1090   18.6900 C.ar  276  TRP276      0.0191
    154  CZ3       30.9280   32.6210   19.7260 C.ar  276  TRP276      0.0001
    155  CH2       30.4660   33.3420   18.6220 C.ar  276  TRP276      0.0015
    156  N         25.5210   32.0900   24.9960 N.am  277  GLY277     -0.1957
    157  CA        24.2230   31.3920   24.9470 C.3   277  GLY277      0.1869
    158  C         23.0430   32.0900   25.6200 C.2   277  GLY277      0.2309
    159  O         21.9580   31.5030   25.7140 O.2   277  GLY277     -0.2863
    160  N         20.1980   34.7240   25.4250 N.3   279  TRP279     -0.1241
    161  CA        19.4900   35.2140   24.2430 C.3   279  TRP279      0.1605
    162  C         18.2250   36.0060   24.5710 C.2   279  TRP279      0.2264
    163  O         17.6240   36.6300   23.6890 O.2   279  TRP279     -0.2867
    164  CB        19.1060   34.0320   23.3440 C.3   279  TRP279      0.0550
    165  CG        18.4190   32.9350   24.1210 C.ar  279  TRP279      0.0003
    166  CD1       19.0110   31.8380   24.6840 C.ar  279  TRP279      0.0946
    167  CD2       17.0250   32.8510   24.4600 C.ar  279  TRP279      0.0152
    168  NE1       18.0770   31.0740   25.3340 N.ar  279  TRP279     -0.2442
    169  CE2       16.8480   31.6630   25.2030 C.ar  279  TRP279      0.0810
    170  CE3       15.9050   33.6460   24.1790 C.ar  279  TRP279      0.0012
    171  CZ2       15.6000   31.2650   25.6990 C.ar  279  TRP279      0.0191
    172  CZ3       14.6660   33.2560   24.6780 C.ar  279  TRP279      0.0001
    173  CH2       14.5250   32.0780   25.4330 C.ar  279  TRP279      0.0015
    174  N         16.6580   31.5110   31.1690 N.3   326  HIS326     -0.1241
    175  CA        17.4960   32.4330   30.4080 C.3   326  HIS326      0.1621
    176  C         16.9430   33.8430   30.4860 C.2   326  HIS326      0.2264
    177  O         17.6910   34.8250   30.4130 O.2   326  HIS326     -0.2867
    178  CB        17.6130   32.0020   28.9380 C.3   326  HIS326      0.0745
    179  CG        18.4660   30.7930   28.7320 C.ar  326  HIS326      0.0817
    180  ND1       17.9490   29.5160   28.7020 N.ar  326  HIS326     -0.2268
    181  CD2       19.8030   30.6640   28.5520 C.ar  326  HIS326      0.1154
    182  CE1       18.9310   28.6490   28.5160 C.ar  326  HIS326      0.1986
    183  NE2       20.0670   29.3210   28.4200 N.ar  326  HIS326     -0.2212
@<TRIPOS>BOND
     1     1     2    1
     2   123   121    1
     3   112   111    2
     4     2     5    1
     5     2     3    1
     6   121   122    1
     7   121   118    1
     8   111   110    1
     9     5     6    1
    10     3     4    2
    11   117   118    1
    12   118   119    1
    13    63    62    1
    14    63    64    1
    15    63    66    1
    16    31    32    1
    17    64    65    2
    18     6     7   ar
    19     6     8   ar
    20   110   109    1
    21   110   113    1
    22     7     9   ar
    23    93    92    2
    24    66    67    1
    25   119   124   am
    26   119   120    2
    27    33    32    1
    28    33    34    2
    29   109   106   am
    30   113   114    1
    31    32    35    1
    32   107   106    2
    33    92    91    1
    34   124   125    1
    35     8    10   ar
    36    90    91    1
    37   106   105    1
    38     9    11   ar
    39   104   105    1
    40    39    40    1
    41    91    94    1
    42    67    69   ar
    43    67    68   ar
    44   105   108    1
    45   129   128    1
    46    37    36   ar
    47    78    79    2
    48    78    77    1
    49   114   115    2
    50   114   116   am
    51    35    36    1
    52    10    11   ar
    53   125   128    1
    54   125   126    1
    55    11    12    1
    56    72    73    1
    57    41    40    1
    58    41    42    2
    59    36    38   ar
    60   130   126   am
    61   130   131    1
    62   133   132    2
    63    69    71   ar
    64    80    77    1
    65    80    81    1
    66    47    48    1
    67    68    70   ar
    68    40    43    1
    69    86    88   ar
    70    86    83   ar
    71    76    77    1
    72    76    74   am
    73    88    89   ar
    74    94    95    1
    75   134   131    1
    76   134   135    1
    77    81    83   ar
    78    81    82   ar
    79    53    51    1
    80    83    85   ar
    81   132   131    1
    82   126   127    2
    83    43    44    1
    84    89    87   ar
    85    82    84   ar
    86    85    87   ar
    87    85    84   ar
    88    73    74    1
    89   155   153   ar
    90   155   154   ar
    91   153   151   ar
    92    71    70   ar
    93    74    75    2
    94    48    51    1
    95    48    49    1
    96    95    96   ar
    97    95    97   ar
    98    51    52    1
    99   135   136    2
   100   135   137   am
   101    96    98   ar
   102    45    44    2
   103    44    46   am
   104    13    14    1
   105   154   152   ar
   106    97   100   ar
   107    97    99   ar
   108   141   140    2
   109   151   150   ar
   110   151   149   ar
   111   100   102   ar
   112    54    49   am
   113    54    55    1
   114    49    50    2
   115    98    99   ar
   116   150   148   ar
   117   140   139    1
   118    14    17    1
   119    14    15    1
   120    99   101   ar
   121   152   149   ar
   122   102   103   ar
   123   149   147   ar
   124    17    18    1
   125    55    56    1
   126    55    58    1
   127    19    18   ar
   128    56    57    2
   129   148   147   ar
   130    15    16    2
   131   101   103   ar
   132    58    59    1
   133   139   138    1
   134    18    20   ar
   135    61    59   am
   136   147   146    1
   137    59    60    2
   138    21    22    1
   139   164   165    1
   140   164   161    1
   141    25    22    1
   142   146   143    1
   143   145   144    2
   144   163   162    2
   145    22    23    1
   146   165   167   ar
   147   165   166   ar
   148   170   167   ar
   149   170   172   ar
   150   161   162    1
   151   161   160    1
   152   144   143    1
   153   144   156   am
   154   143   142    1
   155   167   169   ar
   156   172   173   ar
   157   166   168   ar
   158    26    23   am
   159    26    27    1
   160   157   156    1
   161   157   158    1
   162    30    27    1
   163    23    24    2
   164   169   168   ar
   165   169   171   ar
   166   173   171   ar
   167    29    28    2
   168   158   159    2
   169    27    28    1
   170   183   182   ar
   171   183   181   ar
   172   182   180   ar
   173   181   179   ar
   174   180   179   ar
   175   179   178    1
   176   178   175    1
   177   175   176    1
   178   175   174    1
   179   177   176    2
