@<TRIPOS>MOLECULE
tmp/3vomA00.pdb
 121 112 0 0 0
SMALL
GASTEIGER

@<TRIPOS>ATOM
      1  N         63.7300   33.5150   11.1440 N.3    17  GLY17      -0.1225
      2  CA        63.2040   34.7850   10.6500 C.3    17  GLY17       0.1811
      3  C         61.6980   34.7140   10.4660 C.2    17  GLY17       0.2280
      4  O         61.2410   34.0460    9.5410 O.2    17  GLY17      -0.2866
      5  N         59.1900   47.2400    2.7870 N.3    74  GLY74      -0.1210
      6  CA        58.8920   46.0610    1.9960 C.3    74  GLY74       0.1956
      7  C         59.5120   44.7580    2.4270 C.2    74  GLY74       0.2612
      8  O         58.9160   43.7040    2.2300 O.2    74  GLY74      -0.2717
      9  N         60.7110   44.8220    2.9660 N.am   75  GLY75      -0.1942
     10  CA        61.4440   43.6200    3.3280 C.3    75  GLY75       0.2014
     11  C         62.3320   43.2390    2.1610 C.2    75  GLY75       0.2639
     12  O         62.3070   43.9170    1.1250 O.2    75  GLY75      -0.2714
     13  N         63.0990   42.1540    2.2960 N.am   76  ALA76      -0.1963
     14  CA        64.0730   41.7500    1.2730 C.3    76  ALA76       0.1728
     15  C         63.4360   41.3630   -0.0680 C.2    76  ALA76       0.2616
     16  O         64.0340   41.6410   -1.1030 O.2    76  ALA76      -0.2715
     17  CB        64.9400   40.6080    1.7840 C.3    76  ALA76       0.0334
     18  N         62.2240   40.7740   -0.0480 N.am   77  THR77      -0.1951
     19  CA        61.4670   40.3930   -1.2510 C.3    77  THR77       0.1897
     20  C         61.1760   41.6230   -2.1080 C.2    77  THR77       0.2313
     21  O         61.2630   41.5410   -3.3340 O.2    77  THR77      -0.2863
     22  CB        60.1770   39.6610   -0.8460 C.3    77  THR77       0.1794
     23  OG1       60.5720   38.5200   -0.0990 O.3    77  THR77      -0.2208
     24  CG2       59.3560   39.2070   -2.0390 C.3    77  THR77       0.0378
     25  N         64.3680   42.6600   -4.0380 N.3    80  TRP80      -0.1241
     26  CA        64.6500   41.8980   -5.2740 C.3    80  TRP80       0.1605
     27  C         64.0670   42.5890   -6.5000 C.2    80  TRP80       0.2264
     28  O         64.7470   42.7140   -7.5250 O.2    80  TRP80      -0.2867
     29  CB        64.0890   40.4580   -5.2160 C.3    80  TRP80       0.0550
     30  CG        64.7120   39.5530   -4.2040 C.ar   80  TRP80       0.0003
     31  CD1       66.0020   39.5700   -3.7520 C.ar   80  TRP80       0.0946
     32  CD2       64.0830   38.4260   -3.5880 C.ar   80  TRP80       0.0152
     33  NE1       66.2090   38.5270   -2.8790 N.ar   80  TRP80      -0.2442
     34  CE2       65.0520   37.8010   -2.7700 C.ar   80  TRP80       0.0810
     35  CE3       62.7810   37.8800   -3.6470 C.ar   80  TRP80       0.0012
     36  CZ2       64.7580   36.6750   -2.0000 C.ar   80  TRP80       0.0191
     37  CZ3       62.4910   36.7640   -2.8880 C.ar   80  TRP80       0.0001
     38  CH2       63.4770   36.1510   -2.1000 C.ar   80  TRP80       0.0015
     39  N         65.6980   31.2680   -1.5420 N.3   100  PHE100     -0.1241
     40  CA        65.8820   32.6950   -1.6690 C.3   100  PHE100      0.1605
     41  C         66.8220   33.1070   -2.8050 C.2   100  PHE100      0.2264
     42  O         66.4780   34.0530   -3.5250 O.2   100  PHE100     -0.2867
     43  CB        66.2780   33.2720   -0.3060 C.3   100  PHE100      0.0534
     44  CG        65.1920   32.8990    0.6910 C.ar  100  PHE100     -0.0203
     45  CD1       63.9500   33.5230    0.6560 C.ar  100  PHE100     -0.0042
     46  CD2       65.3710   31.8380    1.5760 C.ar  100  PHE100     -0.0042
     47  CE1       62.9220   33.1140    1.5040 C.ar  100  PHE100     -0.0003
     48  CE2       64.3380   31.4240    2.4200 C.ar  100  PHE100     -0.0003
     49  CZ        63.1190   32.0620    2.3780 C.ar  100  PHE100     -0.0000
     50  N         73.4810   34.6900   -2.3940 N.3   142  ALA142     -0.1245
     51  CA        73.0800   34.8660   -1.0230 C.3   142  ALA142      0.1562
     52  C         74.2330   34.5650   -0.0890 C.2   142  ALA142      0.2260
     53  O         74.8410   33.5040   -0.1970 O.2   142  ALA142     -0.2867
     54  CB        71.8830   33.9660   -0.6930 C.3   142  ALA142      0.0290
     55  N         73.8170   33.8920    2.9640 N.3   144  ASN144     -0.1240
     56  CA        73.2520   32.7730    3.6940 C.3   144  ASN144      0.1653
     57  C         71.9210   32.3240    3.0690 C.2   144  ASN144      0.2266
     58  O         70.9630   33.1030    2.9910 O.2   144  ASN144     -0.2867
     59  CB        73.0720   33.1400    5.1630 C.3   144  ASN144      0.1155
     60  CG        72.7980   31.9300    6.0130 C.2   144  ASN144      0.2627
     61  OD1       73.6970   31.1450    6.2860 O.2   144  ASN144     -0.2716
     62  ND2       71.5400   31.7110    6.3870 N.am  144  ASN144     -0.0877
     63  N         68.9460   30.5420    3.6680 N.3   146  THR146     -0.1218
     64  CA        68.1610   30.2510    4.8730 C.3   146  THR146      0.1862
     65  C         67.4080   28.9270    4.7810 C.2   146  THR146      0.2287
     66  O         67.1960   28.3020    5.8160 O.2   146  THR146     -0.2866
     67  CB        67.1950   31.4070    5.1470 C.3   146  THR146      0.1770
     68  OG1       67.8210   32.6350    4.7540 O.3   146  THR146     -0.2211
     69  CG2       66.7780   31.4980    6.6020 C.3   146  THR146      0.0375
     70  N         72.5020   39.0110   -1.1870 N.3   168  ASP168     -0.1239
     71  CA        71.3590   38.8130   -0.3230 C.3   168  ASP168      0.1674
     72  C         71.8610   38.2760    1.0050 C.2   168  ASP168      0.2266
     73  O         72.0590   37.0720    1.1640 O.2   168  ASP168     -0.2867
     74  CB        70.3450   37.8580   -0.9640 C.3   168  ASP168      0.1410
     75  CG        69.0770   37.6530   -0.1580 C.2   168  ASP168      0.3668
     76  OD1       69.0730   37.9910    1.0540 O.co2 168  ASP168     -0.2456
     77  OD2       68.1080   37.1430   -0.7190 O.co2 168  ASP168     -0.2456
     78  N         70.1000   38.7100    3.8380 N.3   170  THR170     -0.1203
     79  CA        68.9270   38.7580    4.7200 C.3   170  THR170      0.1994
     80  C         69.1440   37.9390    6.0090 C.2   170  THR170      0.2618
     81  O         68.9370   38.4810    7.0940 O.2   170  THR170     -0.2717
     82  CB        67.6330   38.3840    3.9750 C.3   170  THR170      0.1784
     83  OG1       67.5240   39.2450    2.8460 O.3   170  THR170     -0.2211
     84  CG2       66.3730   38.5680    4.8450 C.3   170  THR170      0.0376
     85  N         69.5870   36.6760    5.9080 N.am  171  SER171     -0.1951
     86  CA        69.8220   35.8820    7.1120 C.3   171  SER171      0.1924
     87  C         71.3160   35.8540    7.5310 C.2   171  SER171      0.2314
     88  O         71.6390   35.2860    8.5690 O.2   171  SER171     -0.2863
     89  CB        69.2940   34.4690    6.9340 C.3   171  SER171      0.2116
     90  OG        69.8770   33.8400    5.8070 O.3   171  SER171     -0.2180
     91  N         67.0350   42.3500    5.7700 N.3   189  ALA189     -0.1245
     92  CA        65.8020   42.7360    6.4430 C.3   189  ALA189      0.1562
     93  C         66.0650   42.5610    7.9710 C.2   189  ALA189      0.2260
     94  O         67.0540   41.9040    8.3220 O.2   189  ALA189     -0.2867
     95  CB        64.6480   41.8700    5.9320 C.3   189  ALA189      0.0290
     96  N         64.4830   40.9850   10.6840 N.3   191  GLN191     -0.1231
     97  CA        63.9200   39.8980   11.4920 C.3   191  GLN191      0.1698
     98  C         64.8450   38.6650   11.7260 C.2   191  GLN191      0.2592
     99  O         64.3900   37.6960   12.3330 O.2   191  GLN191     -0.2718
    100  CB        62.5540   39.4300   10.9210 C.3   191  GLN191      0.0381
    101  CG        62.6120   38.6490    9.5770 C.3   191  GLN191      0.0905
    102  CD        62.6550   39.5190    8.3360 C.2   191  GLN191      0.2608
    103  OE1       63.0050   40.7030    8.3700 O.2   191  GLN191     -0.2717
    104  NE2       62.2860   38.9480    7.1940 N.am  191  GLN191     -0.0878
    105  N         66.1260   38.7020   11.3180 N.am  192  LYS192     -0.1980
    106  CA        67.0160   37.5540   11.5540 C.3   192  LYS192      0.1596
    107  C         68.0730   37.9230   12.6010 C.2   192  LYS192      0.2287
    108  O         67.7210   38.0480   13.7770 O.2   192  LYS192     -0.2864
    109  CB        67.6270   37.0700   10.2310 C.3   192  LYS192      0.0298
    110  CG        66.6490   36.2180    9.4310 C.3   192  LYS192      0.0038
    111  CD        66.1560   36.9260    8.1780 C.3   192  LYS192      0.0206
    112  CE        64.8780   36.3350    7.6140 C.3   192  LYS192      0.1093
    113  NZ        65.0690   35.0040    6.9890 N.3   192  LYS192     -0.1314
    114  N         59.9940   42.1690   10.2600 N.3   198  GLY198     -0.1210
    115  CA        60.0570   42.2820    8.8140 C.3   198  GLY198      0.1956
    116  C         59.2990   43.5230    8.3560 C.2   198  GLY198      0.2612
    117  O         58.7200   44.2460    9.1780 O.2   198  GLY198     -0.2717
    118  N         59.3240   43.7850    7.0450 N.am  199  GLY199     -0.1956
    119  CA        58.6140   44.9120    6.4530 C.3   199  GLY199      0.1869
    120  C         59.4900   46.1040    6.1300 C.2   199  GLY199      0.2309
    121  O         58.9850   47.1520    5.7270 O.2   199  GLY199     -0.2863
@<TRIPOS>BOND
     1    28    27    2
     2    27    26    1
     3    26    29    1
     4    26    25    1
     5    29    30    1
     6    30    31   ar
     7    30    32   ar
     8    31    33   ar
     9    35    32   ar
    10    35    37   ar
    11    32    34   ar
    12    42    41    2
    13    21    20    2
    14    37    38   ar
    15    33    34   ar
    16    41    40    1
    17    34    36   ar
    18    50    51    1
    19    20    19    1
    20    38    36   ar
    21    24    22    1
    22    40    39    1
    23    40    43    1
    24    19    22    1
    25    19    18    1
    26    70    71    1
    27    16    15    2
    28    51    54    1
    29    51    52    1
    30    74    71    1
    31    74    75    1
    32    22    23    1
    33    77    75   ar
    34    71    72    1
    35    43    44    1
    36    53    52    2
    37    75    76   ar
    38    15    18   am
    39    15    14    1
    40    45    44   ar
    41    45    47   ar
    42    44    46   ar
    43    72    73    2
    44    12    11    2
    45    14    17    1
    46    14    13    1
    47    47    49   ar
    48    46    48   ar
    49     6     7    1
    50     6     5    1
    51    11    13   am
    52    11    10    1
    53     8     7    2
    54    49    48   ar
    55     7     9   am
    56    83    82    1
    57    55    56    1
    58     9    10    1
    59    58    57    2
    60    57    56    1
    61    63    64    1
    62    56    59    1
    63    78    79    1
    64    82    79    1
    65    82    84    1
    66    79    80    1
    67    68    67    1
    68    65    64    1
    69    65    66    2
    70    64    67    1
    71    67    69    1
    72    59    60    1
    73   121   120    2
    74    91    92    1
    75    90    89    1
    76    85    80   am
    77    85    86    1
    78    95    92    1
    79    80    81    2
    80    60    61    2
    81    60    62   am
    82   120   119    1
    83    92    93    1
    84   119   118    1
    85    89    86    1
    86   113   112    1
    87   118   116   am
    88    86    87    1
    89   104   102   am
    90    87    88    2
    91   112   111    1
    92    93    94    2
    93   111   110    1
    94   102   103    2
    95   102   101    1
    96   116   115    1
    97   116   117    2
    98   115   114    1
    99   110   109    1
   100     4     3    2
   101   101   100    1
   102   109   106    1
   103     3     2    1
   104     2     1    1
   105    96    97    1
   106   100    97    1
   107   105   106    1
   108   105    98   am
   109    97    98    1
   110   106   107    1
   111    98    99    2
   112   107   108    2
