@<TRIPOS>MOLECULE
tmp/3vp0A00.pdb
 109 103 0 0 0
SMALL
GASTEIGER

@<TRIPOS>ATOM
      1  N         27.0750   -1.9530   -9.4050 N.3    31  TYR31      -0.1241
      2  CA        26.8370   -2.8630   -8.3020 C.3    31  TYR31       0.1605
      3  C         27.7640   -4.0700   -8.3920 C.2    31  TYR31       0.2264
      4  O         27.9330   -4.8060   -7.4210 O.2    31  TYR31      -0.2867
      5  CB        25.3520   -3.2600   -8.2350 C.3    31  TYR31       0.0534
      6  CG        24.8570   -4.0830   -9.3820 C.ar   31  TYR31      -0.0201
      7  CD1       24.9550   -5.4700   -9.3560 C.ar   31  TYR31      -0.0009
      8  CD2       24.2650   -3.4800  -10.4890 C.ar   31  TYR31      -0.0009
      9  CE1       24.4730   -6.2420  -10.3980 C.ar   31  TYR31       0.0417
     10  CE2       23.7750   -4.2420  -11.5450 C.ar   31  TYR31       0.0417
     11  CZ        23.8820   -5.6260  -11.4930 C.ar   31  TYR31       0.1957
     12  OH        23.3950   -6.3990  -12.5320 O.3    31  TYR31      -0.2866
     13  N         21.4740   -8.5300  -19.9960 N.3    67  GLN67      -0.1231
     14  CA        20.8850   -8.2150  -18.6980 C.3    67  GLN67       0.1698
     15  C         19.3650   -8.2940  -18.8620 C.2    67  GLN67       0.2592
     16  O         18.8620   -9.2830  -19.3990 O.2    67  GLN67      -0.2718
     17  CB        21.3180   -6.8330  -18.2190 C.3    67  GLN67       0.0381
     18  CG        22.7640   -6.7680  -17.7190 C.3    67  GLN67       0.0905
     19  CD        23.0390   -7.7290  -16.5580 C.2    67  GLN67       0.2608
     20  OE1       22.1440   -8.4220  -16.0880 O.2    67  GLN67      -0.2717
     21  NE2       24.2870   -7.7730  -16.1050 N.am   67  GLN67      -0.0878
     22  N         18.6250   -7.2800  -18.4330 N.am   68  SER68      -0.1952
     23  CA        17.1760   -7.3610  -18.5610 C.3    68  SER68       0.1924
     24  C         16.6800   -7.3800  -20.0030 C.2    68  SER68       0.2314
     25  O         15.5230   -7.7180  -20.2600 O.2    68  SER68      -0.2863
     26  CB        16.5040   -6.2250  -17.7910 C.3    68  SER68       0.2116
     27  OG        16.4520   -6.5550  -16.4040 O.3    68  SER68      -0.2180
     28  N         15.0040  -10.5750  -21.0250 N.3    71  LYS71      -0.1245
     29  CA        13.6840  -10.9360  -20.4920 C.3    71  LYS71       0.1561
     30  C         12.6140  -11.1350  -21.5740 C.2    71  LYS71       0.2260
     31  O         11.9600  -12.1850  -21.6150 O.2    71  LYS71      -0.2867
     32  CB        13.2250   -9.8990  -19.4640 C.3    71  LYS71       0.0271
     33  CG        13.9510  -10.0080  -18.1210 C.3    71  LYS71       0.0035
     34  CD        13.5080   -8.8900  -17.1690 C.3    71  LYS71       0.0206
     35  CE        13.9530   -9.1480  -15.7300 C.3    71  LYS71       0.1093
     36  NZ        15.4410   -9.2260  -15.6080 N.3    71  LYS71      -0.1314
     37  N         11.7930   -8.8280  -12.4160 N.3   114  ASN114     -0.1240
     38  CA        12.6110   -9.9590  -11.9900 C.3   114  ASN114      0.1653
     39  C         11.8390  -11.2130  -11.6040 C.2   114  ASN114      0.2266
     40  O         12.0900  -12.2940  -12.1580 O.2   114  ASN114     -0.2867
     41  CB        13.5320   -9.5300  -10.8490 C.3   114  ASN114      0.1155
     42  CG        14.7020   -8.6880  -11.3290 C.2   114  ASN114      0.2627
     43  OD1       14.6710   -8.1050  -12.4200 O.2   114  ASN114     -0.2716
     44  ND2       15.7380   -8.6100  -10.5070 N.am  114  ASN114     -0.0877
     45  N         27.1150  -11.7030  -10.6690 N.3   160  GLU160     -0.1245
     46  CA        25.6660  -11.6010  -10.5540 C.3   160  GLU160      0.1567
     47  C         25.1660  -12.5510   -9.4770 C.2   160  GLU160      0.2260
     48  O         24.4190  -12.1670   -8.5960 O.2   160  GLU160     -0.2867
     49  CB        24.9970  -11.9370  -11.8990 C.3   160  GLU160      0.0388
     50  CG        25.0740  -10.8260  -12.9280 C.3   160  GLU160      0.1160
     51  CD        24.1710   -9.6390  -12.6080 C.2   160  GLU160      0.3649
     52  OE1       24.3630   -8.5640  -13.2150 O.co2 160  GLU160     -0.2457
     53  OE2       23.2600   -9.7780  -11.7650 O.co2 160  GLU160     -0.2457
     54  N         17.6210  -11.2170   -5.6330 N.3   167  ASN167     -0.1240
     55  CA        17.0450  -12.2360   -6.5090 C.3   167  ASN167      0.1653
     56  C         16.8850  -13.5490   -5.7450 C.2   167  ASN167      0.2266
     57  O         15.9720  -14.3270   -6.0240 O.2   167  ASN167     -0.2867
     58  CB        17.9050  -12.4630   -7.7570 C.3   167  ASN167      0.1155
     59  CG        17.8140  -11.3100   -8.7510 C.2   167  ASN167      0.2627
     60  OD1       16.7220  -10.8410   -9.0780 O.2   167  ASN167     -0.2716
     61  ND2       18.9630  -10.8570   -9.2460 N.am  167  ASN167     -0.0877
     62  N         19.0240  -18.3070  -14.5070 N.3   193  TYR193     -0.1227
     63  CA        18.6200  -16.9050  -14.6410 C.3   193  TYR193      0.1736
     64  C         19.8340  -15.9690  -14.7450 C.2   193  TYR193      0.2595
     65  O         19.8840  -15.0850  -15.6100 O.2   193  TYR193     -0.2718
     66  CB        17.7530  -16.4950  -13.4380 C.3   193  TYR193      0.0548
     67  CG        17.3840  -15.0230  -13.4110 C.ar  193  TYR193     -0.0200
     68  CD1       16.4040  -14.5110  -14.2620 C.ar  193  TYR193     -0.0009
     69  CD2       18.0430  -14.1380  -12.5580 C.ar  193  TYR193     -0.0009
     70  CE1       16.0880  -13.1440  -14.2660 C.ar  193  TYR193      0.0417
     71  CE2       17.7450  -12.7780  -12.5520 C.ar  193  TYR193      0.0417
     72  CZ        16.7660  -12.2870  -13.4100 C.ar  193  TYR193      0.1957
     73  OH        16.4820  -10.9370  -13.4130 O.3   193  TYR193     -0.2866
     74  N         20.7980  -16.1530  -13.8450 N.am  194  PHE194     -0.1976
     75  CA        22.0120  -15.3370  -13.8360 C.3   194  PHE194      0.1639
     76  C         22.8030  -15.5150  -15.1320 C.2   194  PHE194      0.2290
     77  O         23.3500  -14.5580  -15.6730 O.2   194  PHE194     -0.2864
     78  CB        22.8790  -15.7100  -12.6310 C.3   194  PHE194      0.0560
     79  CG        22.2670  -15.3340  -11.3160 C.ar  194  PHE194     -0.0200
     80  CD1       22.2670  -16.2270  -10.2540 C.ar  194  PHE194     -0.0042
     81  CD2       21.6890  -14.0800  -11.1400 C.ar  194  PHE194     -0.0042
     82  CE1       21.6990  -15.8780   -9.0230 C.ar  194  PHE194     -0.0003
     83  CE2       21.1220  -13.7240   -9.9220 C.ar  194  PHE194     -0.0003
     84  CZ        21.1260  -14.6250   -8.8600 C.ar  194  PHE194     -0.0000
     85  N         21.2460  -13.6500  -17.9950 N.3   197  CYS197     -0.1235
     86  CA        21.5080  -12.2250  -17.8480 C.3   197  CYS197      0.1677
     87  C         22.9100  -11.9010  -18.3320 C.2   197  CYS197      0.2270
     88  O         23.2140  -10.7490  -18.6830 O.2   197  CYS197     -0.2867
     89  CB        21.4040  -11.8040  -16.3790 C.3   197  CYS197      0.0956
     90  SG        19.7150  -11.7010  -15.7220 S.3   197  CYS197     -0.0801
     91  N         11.2030   -0.3290  -17.0870 N.3   245  TYR245     -0.1241
     92  CA        11.1660   -0.1720  -15.6340 C.3   245  TYR245      0.1605
     93  C         10.0440    0.8250  -15.3060 C.2   245  TYR245      0.2264
     94  O          8.9890    0.7990  -15.9560 O.2   245  TYR245     -0.2867
     95  CB        12.5080    0.3560  -15.1040 C.3   245  TYR245      0.0534
     96  CG        13.7200   -0.4930  -15.4710 C.ar  245  TYR245     -0.0201
     97  CD1       13.8210   -1.8260  -15.0610 C.ar  245  TYR245     -0.0009
     98  CD2       14.7760    0.0450  -16.2170 C.ar  245  TYR245     -0.0009
     99  CE1       14.9390   -2.6000  -15.3830 C.ar  245  TYR245      0.0417
    100  CE2       15.9020   -0.7230  -16.5400 C.ar  245  TYR245      0.0417
    101  CZ        15.9770   -2.0380  -16.1220 C.ar  245  TYR245      0.1957
    102  OH        17.0890   -2.7950  -16.4310 O.3   245  TYR245     -0.2866
    103  N         20.3590   -2.9150  -17.5500 N.3   263  VAL263     -0.1245
    104  CA        21.2790   -2.1780  -16.6880 C.3   263  VAL263      0.1561
    105  C         22.6440   -1.9590  -17.3630 C.2   263  VAL263      0.2260
    106  O         23.4060   -1.0700  -16.9860 O.2   263  VAL263     -0.2867
    107  CB        21.4490   -2.9320  -15.3250 C.3   263  VAL263      0.0252
    108  CG1       22.2760   -4.2040  -15.5200 C.3   263  VAL263      0.0019
    109  CG2       22.0520   -2.0130  -14.2760 C.3   263  VAL263      0.0019
@<TRIPOS>BOND
     1    31    30    2
     2    30    29    1
     3    28    29    1
     4    29    32    1
     5    25    24    2
     6    24    23    1
     7    13    14    1
     8    32    33    1
     9    16    15    2
    10    15    14    1
    11    15    22   am
    12    14    17    1
    13    88    87    2
    14    23    22    1
    15    23    26    1
    16    87    86    1
    17    17    18    1
    18    33    34    1
    19    85    86    1
    20    86    89    1
    21    26    27    1
    22    18    19    1
    23   103   104    1
    24   105   106    2
    25   105   104    1
    26    34    35    1
    27    91    92    1
    28   104   107    1
    29    19    21   am
    30    19    20    2
    31   100    98   ar
    32   100   101   ar
    33   102   101    1
    34    89    90    1
    35    98    96   ar
    36   101    99   ar
    37    94    93    2
    38    35    36    1
    39    77    76    2
    40    92    93    1
    41    92    95    1
    42    65    64    2
    43   108   107    1
    44    96    95    1
    45    96    97   ar
    46    99    97   ar
    47   107   109    1
    48    76    75    1
    49    64    63    1
    50    64    74   am
    51    63    62    1
    52    63    66    1
    53    70    68   ar
    54    70    72   ar
    55    68    67   ar
    56    74    75    1
    57    75    78    1
    58    66    67    1
    59    73    72    1
    60    67    69   ar
    61    72    71   ar
    62    52    51   ar
    63    50    51    1
    64    50    49    1
    65    78    79    1
    66    51    53   ar
    67    69    71   ar
    68    12    11    1
    69    43    42    2
    70    37    38    1
    71    40    39    2
    72    38    39    1
    73    38    41    1
    74    49    46    1
    75    10    11   ar
    76    10     8   ar
    77    11     9   ar
    78    42    41    1
    79    42    44   am
    80    79    81   ar
    81    79    80   ar
    82    81    83   ar
    83    45    46    1
    84    46    47    1
    85     8     6   ar
    86     9     7   ar
    87    80    82   ar
    88    83    84   ar
    89    47    48    2
    90     1     2    1
    91     6     7   ar
    92     6     5    1
    93    61    59   am
    94    60    59    2
    95    82    84   ar
    96    59    58    1
    97     3     2    1
    98     3     4    2
    99     2     5    1
   100    58    55    1
   101    55    56    1
   102    55    54    1
   103    57    56    2
