@<TRIPOS>MOLECULE
tmp/3vp1A00.pdb
 95 94 0 0 0
SMALL
GASTEIGER

@<TRIPOS>ATOM
      1  N         -0.8450   -2.0130   -6.9550 N.3    99  ARG99      -0.1231
      2  CA        -0.8860   -1.6410   -5.5490 C.3    99  ARG99       0.1694
      3  C          0.1660   -2.5560   -4.9010 C.2    99  ARG99       0.2592
      4  O          0.1540   -2.8360   -3.7050 O.2    99  ARG99      -0.2718
      5  CB        -2.3130   -1.8610   -5.0230 C.3    99  ARG99       0.0321
      6  CG        -2.4570   -2.3980   -3.6190 C.3    99  ARG99       0.0489
      7  CD        -2.6540   -3.9110   -3.6500 C.3    99  ARG99       0.2205
      8  NE        -3.8850   -4.3160   -2.9750 N.pl3  99  ARG99      -0.0865
      9  CZ        -4.1150   -4.1390   -1.6770 C.cat  99  ARG99       0.5346
     10  NH1       -3.1910   -3.5600   -0.9150 N.pl3  99  ARG99       0.1354
     11  NH2       -5.2570   -4.5530   -1.1390 N.pl3  99  ARG99       0.1354
     12  N          1.1030   -2.9890   -5.7410 N.am  100  PHE100     -0.1976
     13  CA         2.1920   -3.8710   -5.3480 C.3   100  PHE100      0.1639
     14  C          3.5850   -3.2850   -5.6510 C.2   100  PHE100      0.2290
     15  O          4.3640   -3.8600   -6.4290 O.2   100  PHE100     -0.2864
     16  CB         2.0580   -5.2130   -6.0770 C.3   100  PHE100      0.0560
     17  CG         0.6430   -5.7260   -6.1830 C.ar  100  PHE100     -0.0200
     18  CD1       -0.2450   -5.1780   -7.1030 C.ar  100  PHE100     -0.0042
     19  CD2        0.2120   -6.7890   -5.3980 C.ar  100  PHE100     -0.0042
     20  CE1       -1.5430   -5.6870   -7.2440 C.ar  100  PHE100     -0.0003
     21  CE2       -1.0810   -7.3020   -5.5310 C.ar  100  PHE100     -0.0003
     22  CZ        -1.9620   -6.7520   -6.4580 C.ar  100  PHE100     -0.0000
     23  N          7.2210   -3.0480   -5.6200 N.3   102  LYS102     -0.1231
     24  CA         8.1280   -3.8260   -4.9270 C.3   102  LYS102      0.1693
     25  C          7.7530   -5.0920   -4.3460 C.2   102  LYS102      0.2592
     26  O          8.5270   -5.6370   -3.6150 O.2   102  LYS102     -0.2718
     27  CB         8.5450   -2.9710   -3.8680 C.3   102  LYS102      0.0285
     28  CG         9.4220   -1.9440   -4.5340 C.3   102  LYS102      0.0035
     29  CD         9.7040   -2.6860   -5.9240 C.3   102  LYS102      0.0206
     30  CE        10.8620   -1.9570   -6.7200 C.3   102  LYS102      0.1093
     31  NZ        11.9440   -2.9300   -7.3000 N.3   102  LYS102     -0.1314
     32  N          6.5590   -5.5520   -4.5930 N.am  103  LEU103     -0.1966
     33  CA         6.2480   -6.8010   -4.0060 C.3   103  LEU103      0.1728
     34  C          6.6830   -7.8260   -4.8900 C.2   103  LEU103      0.2616
     35  O          6.6370   -7.5350   -5.9730 O.2   103  LEU103     -0.2715
     36  CB         4.7270   -6.8750   -3.7670 C.3   103  LEU103      0.0311
     37  CG         4.0010   -5.8580   -2.8510 C.3   103  LEU103      0.0022
     38  CD1        2.4920   -6.0390   -3.0040 C.3   103  LEU103      0.0001
     39  CD2        4.2970   -6.0000   -1.6980 C.3   103  LEU103      0.0001
     40  N          7.1110   -9.0020   -4.4700 N.am  104  PHE104     -0.1960
     41  CA         7.5240   -9.9920   -5.4540 C.3   104  PHE104      0.1771
     42  C          6.3410  -10.6660   -6.1600 C.2   104  PHE104      0.2619
     43  O          6.4910  -11.1720   -7.2750 O.2   104  PHE104     -0.2715
     44  CB         8.3570  -11.0900   -4.7660 C.3   104  PHE104      0.0574
     45  CG         9.5110  -10.5660   -3.9330 C.ar  104  PHE104     -0.0200
     46  CD1       10.1480   -9.3530   -4.2800 C.ar  104  PHE104     -0.0042
     47  CD2       10.0550  -11.3290   -2.8980 C.ar  104  PHE104     -0.0042
     48  CE1       11.3080   -8.9220   -3.6160 C.ar  104  PHE104     -0.0003
     49  CE2       11.2160  -10.9140   -2.2240 C.ar  104  PHE104     -0.0003
     50  CZ        11.8500   -9.7100   -2.5790 C.ar  104  PHE104     -0.0000
     51  N          5.1670  -10.6710   -5.5290 N.am  105  LEU105     -0.1963
     52  CA         3.9880  -11.3230   -6.1210 C.3   105  LEU105      0.1728
     53  C          2.7150  -10.5100   -6.0180 C.2   105  LEU105      0.2616
     54  O          2.6050   -9.6120   -5.1750 O.2   105  LEU105     -0.2715
     55  CB         3.7310  -12.6730   -5.4410 C.3   105  LEU105      0.0311
     56  CG         4.8450  -13.7120   -5.4280 C.3   105  LEU105      0.0022
     57  CD1        4.4000  -14.9130   -4.5820 C.3   105  LEU105      0.0001
     58  CD2        5.1770  -14.1350   -6.8570 C.3   105  LEU105      0.0001
     59  N          1.7420  -10.8160   -6.8740 N.am  106  ASN106     -0.1958
     60  CA         0.4630  -10.1130   -6.8050 C.3   106  ASN106      0.1819
     61  C         -0.4440  -10.8640   -5.8250 C.2   106  ASN106      0.2621
     62  O         -0.0190  -11.8490   -5.2090 O.2   106  ASN106     -0.2715
     63  CB        -0.2030  -10.0150   -8.1850 C.3   106  ASN106      0.1195
     64  CG        -0.5960  -11.3610   -8.7540 C.2   106  ASN106      0.2630
     65  OD1       -0.7000  -12.3600   -8.0350 O.2   106  ASN106     -0.2716
     66  ND2       -0.8320  -11.3920  -10.0620 N.am  106  ASN106     -0.0877
     67  N         -1.6850  -10.4090   -5.6830 N.am  107  GLU107     -0.1977
     68  CA        -2.6200  -11.0350   -4.7540 C.3   107  GLU107      0.1602
     69  C         -2.8980  -12.5020   -5.0520 C.2   107  GLU107      0.2287
     70  O         -3.2730  -13.2540   -4.1530 O.2   107  GLU107     -0.2864
     71  CB        -3.9370  -10.2550   -4.7150 C.3   107  GLU107      0.0415
     72  CG        -3.7810   -8.8340   -4.1960 C.3   107  GLU107      0.1163
     73  CD        -5.1050   -8.2000   -3.8070 C.2   107  GLU107      0.3649
     74  OE1       -5.8360   -8.8170   -2.9890 O.co2 107  GLU107     -0.2457
     75  OE2       -5.4070   -7.0890   -4.3060 O.co2 107  GLU107     -0.2457
     76  N         -0.6620  -14.5670   -5.8640 N.3   109  ASP109     -0.1239
     77  CA         0.6190  -15.2330   -5.6550 C.3   109  ASP109      0.1674
     78  C          1.3530  -15.5520   -6.9640 C.2   109  ASP109      0.2266
     79  O          2.0170  -16.5830   -7.0850 O.2   109  ASP109     -0.2867
     80  CB         0.4290  -16.5070   -4.8280 C.3   109  ASP109      0.1410
     81  CG        -0.0570  -16.2130   -3.4200 C.2   109  ASP109      0.3668
     82  OD1        0.3500  -15.1770   -2.8430 O.co2 109  ASP109     -0.2456
     83  OD2       -0.8310  -17.0240   -2.8690 O.co2 109  ASP109     -0.2456
     84  N         11.0390  -16.9140   -1.9200 N.3   176  TYR176     -0.1241
     85  CA         9.6480  -16.5400   -1.7340 C.3   176  TYR176      0.1605
     86  C          8.7560  -17.2520   -2.7530 C.2   176  TYR176      0.2264
     87  O          7.6720  -17.7110   -2.4140 O.2   176  TYR176     -0.2867
     88  CB         9.4560  -15.0350   -1.8550 C.3   176  TYR176      0.0534
     89  CG         8.1550  -14.5800   -1.2220 C.ar  176  TYR176     -0.0201
     90  CD1        7.9500  -14.7030    0.1520 C.ar  176  TYR176     -0.0009
     91  CD2        7.1240  -14.0470   -1.9980 C.ar  176  TYR176     -0.0009
     92  CE1        6.7440  -14.3010    0.7400 C.ar  176  TYR176      0.0417
     93  CE2        5.9280  -13.6450   -1.4260 C.ar  176  TYR176      0.0417
     94  CZ         5.7410  -13.7710   -0.0580 C.ar  176  TYR176      0.1957
     95  OH         4.5630  -13.3450    0.5090 O.3   176  TYR176     -0.2866
@<TRIPOS>BOND
     1    66    64   am
     2    64    63    1
     3    64    65    2
     4    63    60    1
     5    31    30    1
     6    43    42    2
     7    20    18   ar
     8    20    22   ar
     9    18    17   ar
    10    79    78    2
    11    78    77    1
    12     1     2    1
    13    59    60    1
    14    59    53   am
    15    58    56    1
    16    60    61    1
    17    30    29    1
    18    22    21   ar
    19    15    14    2
    20    17    16    1
    21    17    19   ar
    22    42    51   am
    23    42    41    1
    24    52    53    1
    25    52    51    1
    26    52    55    1
    27    16    13    1
    28    53    54    2
    29    35    34    2
    30    29    28    1
    31    76    77    1
    32    61    67   am
    33    61    62    2
    34    12    13    1
    35    12     3   am
    36    67    68    1
    37    77    80    1
    38    14    13    1
    39    23    24    1
    40     2     5    1
    41     2     3    1
    42    21    19   ar
    43    41    44    1
    44    41    40    1
    45    55    56    1
    46    56    57    1
    47    69    68    1
    48    69    70    2
    49     5     6    1
    50    24    25    1
    51    24    27    1
    52     3     4    2
    53    34    40   am
    54    34    33    1
    55    80    81    1
    56    44    45    1
    57    68    71    1
    58    71    72    1
    59    32    25   am
    60    32    33    1
    61    28    27    1
    62    25    26    2
    63    75    73   ar
    64    46    45   ar
    65    46    48   ar
    66    72    73    1
    67    33    36    1
    68    45    47   ar
    69    73    74   ar
    70    36    37    1
    71     7     6    1
    72     7     8    1
    73    48    50   ar
    74    81    83   ar
    75    81    82   ar
    76    38    37    1
    77     8     9    2
    78    47    49   ar
    79    37    39    1
    80    86    87    2
    81    86    85    1
    82    50    49   ar
    83    91    93   ar
    84    91    89   ar
    85    84    85    1
    86    88    85    1
    87    88    89    1
    88     9    11    1
    89     9    10    1
    90    93    94   ar
    91    89    90   ar
    92    94    95    1
    93    94    92   ar
    94    90    92   ar
