@<TRIPOS>MOLECULE
tmp/3vp5A00.pdb
 235 226 0 0 0
SMALL
GASTEIGER

@<TRIPOS>ATOM
      1  N         14.1810   21.1280   29.8970 N.3    63  LEU63      -0.1245
      2  CA        13.3620   20.0610   29.3310 C.3    63  LEU63       0.1561
      3  C         14.2020   18.8860   28.8400 C.2    63  LEU63       0.2260
      4  O         13.9860   17.7480   29.2680 O.2    63  LEU63      -0.2867
      5  CB        12.5490   20.5950   28.1800 C.3    63  LEU63       0.0270
      6  CG        11.3690   21.4380   28.6050 C.3    63  LEU63       0.0019
      7  CD1       10.8090   22.0910   27.3400 C.3    63  LEU63       0.0001
      8  CD2       10.3470   20.5490   29.3090 C.3    63  LEU63       0.0001
      9  N         14.0010   15.2890   30.7450 N.3    67  THR67      -0.1218
     10  CA        13.3570   14.2460   29.9340 C.3    67  THR67       0.1862
     11  C         14.3120   13.0750   29.7040 C.2    67  THR67       0.2287
     12  O         13.8940   11.9010   29.6830 O.2    67  THR67      -0.2866
     13  CB        12.7970   14.8100   28.6150 C.3    67  THR67       0.1770
     14  OG1       11.9520   15.9260   28.9120 O.3    67  THR67      -0.2211
     15  CG2       11.9300   13.7630   27.8900 C.3    67  THR67       0.0375
     16  N         14.0310   11.0880   32.8850 N.3    70  ILE70      -0.1231
     17  CA        12.7840   10.3330   33.0290 C.3    70  ILE70       0.1692
     18  C         12.7070    9.1700   32.0220 C.2    70  ILE70       0.2592
     19  O         12.0690    8.1420   32.2870 O.2    70  ILE70      -0.2718
     20  CB        11.5150   11.2310   32.9490 C.3    70  ILE70       0.0266
     21  CG1       10.3610   10.6030   33.7260 C.3    70  ILE70       0.0019
     22  CG2       11.0830   11.4490   31.5250 C.3    70  ILE70       0.0020
     23  CD1        9.2660   11.5880   34.0760 C.3    70  ILE70       0.0001
     24  N         13.3800    9.3360   30.8910 N.am   71  HIS71      -0.1976
     25  CA        13.4840    8.2770   29.8840 C.3    71  HIS71       0.1656
     26  C         14.4630    7.2000   30.2790 C.2    71  HIS71       0.2291
     27  O         14.1720    5.9890   30.1510 O.2    71  HIS71      -0.2864
     28  CB        13.9050    8.8600   28.5440 C.3    71  HIS71       0.0771
     29  CG        12.7800    9.5160   27.8180 C.ar   71  HIS71       0.0820
     30  ND1       12.9660   10.4520   26.8220 N.ar   71  HIS71      -0.2267
     31  CD2       11.4440    9.3870   27.9620 C.ar   71  HIS71       0.1154
     32  CE1       11.7930   10.8430   26.3610 C.ar   71  HIS71       0.1986
     33  NE2       10.8570   10.2240   27.0530 N.ar   71  HIS71      -0.2212
     34  N         13.3980    4.3850   32.4320 N.3    74  PHE74      -0.1227
     35  CA        12.8920    3.2190   31.7570 C.3    74  PHE74       0.1736
     36  C         13.9980    2.4630   31.0240 C.2    74  PHE74       0.2595
     37  O         14.2340    1.3030   31.2970 O.2    74  PHE74      -0.2718
     38  CB        11.7980    3.5860   30.7640 C.3    74  PHE74       0.0547
     39  CG        11.3410    2.4000   29.9360 C.ar   74  PHE74      -0.0202
     40  CD1       10.6860    1.3460   30.5530 C.ar   74  PHE74      -0.0042
     41  CD2       11.5840    2.3370   28.5780 C.ar   74  PHE74      -0.0042
     42  CE1       10.2740    0.2240   29.8100 C.ar   74  PHE74      -0.0003
     43  CE2       11.1750    1.2340   27.8290 C.ar   74  PHE74      -0.0003
     44  CZ        10.5160    0.1710   28.4610 C.ar   74  PHE74      -0.0000
     45  N         14.6760    3.1410   30.1030 N.am   75  PHE75      -0.1976
     46  CA        15.6730    2.5080   29.2620 C.3    75  PHE75       0.1639
     47  C         16.8140    1.8400   30.0030 C.2    75  PHE75       0.2290
     48  O         17.2930    0.7950   29.5640 O.2    75  PHE75      -0.2864
     49  CB        16.1710    3.4690   28.1890 C.3    75  PHE75       0.0560
     50  CG        15.1540    3.7340   27.1170 C.ar   75  PHE75      -0.0200
     51  CD1       14.9060    2.7930   26.1200 C.ar   75  PHE75      -0.0042
     52  CD2       14.4370    4.9260   27.1140 C.ar   75  PHE75      -0.0042
     53  CE1       13.9540    3.0250   25.1370 C.ar   75  PHE75      -0.0003
     54  CE2       13.4940    5.1680   26.1400 C.ar   75  PHE75      -0.0003
     55  CZ        13.2530    4.2410   25.1450 C.ar   75  PHE75      -0.0000
     56  N          8.7470   -2.4290   32.1630 N.3    87  LEU87      -0.1245
     57  CA         7.5200   -1.6280   32.1450 C.3    87  LEU87       0.1561
     58  C          6.8000   -1.6540   33.5050 C.2    87  LEU87       0.2260
     59  O          6.3200   -0.6210   33.9970 O.2    87  LEU87      -0.2867
     60  CB         6.5910   -2.0950   31.0350 C.3    87  LEU87       0.0270
     61  CG         6.9730   -1.6710   29.6050 C.3    87  LEU87       0.0019
     62  CD1        6.1120   -2.4600   28.6260 C.3    87  LEU87       0.0001
     63  CD2        6.7990   -0.1420   29.3730 C.3    87  LEU87       0.0001
     64  N          8.7130    0.4320   35.8710 N.3    90  TYR90      -0.1241
     65  CA         8.7760    1.8260   35.4790 C.3    90  TYR90       0.1605
     66  C          7.5990    2.5840   36.0480 C.2    90  TYR90       0.2264
     67  O          7.6920    3.7660   36.3760 O.2    90  TYR90      -0.2867
     68  CB         8.7420    1.9030   33.9770 C.3    90  TYR90       0.0534
     69  CG         8.9640    3.3020   33.4930 C.ar   90  TYR90      -0.0201
     70  CD1       10.0510    4.0460   33.9360 C.ar   90  TYR90      -0.0009
     71  CD2        8.0900    3.8790   32.6030 C.ar   90  TYR90      -0.0009
     72  CE1       10.2620    5.3910   33.4630 C.ar   90  TYR90       0.0417
     73  CE2        8.2870    5.1770   32.1370 C.ar   90  TYR90       0.0417
     74  CZ         9.3610    5.9290   32.5810 C.ar   90  TYR90       0.1957
     75  OH         9.5400    7.2110   32.0680 O.3    90  TYR90      -0.2866
     76  N          7.8750    6.0320   38.0610 N.3    94  LEU94      -0.1245
     77  CA         7.0570    7.1900   37.7030 C.3    94  LEU94       0.1561
     78  C          6.3310    7.7670   38.9090 C.2    94  LEU94       0.2260
     79  O          6.2680    8.9870   39.0440 O.2    94  LEU94      -0.2867
     80  CB         6.0550    6.8840   36.5830 C.3    94  LEU94       0.0270
     81  CG         6.6030    6.7390   35.1760 C.3    94  LEU94       0.0019
     82  CD1        5.4410    6.5910   34.2200 C.3    94  LEU94       0.0001
     83  CD2        7.4300    7.9620   34.7880 C.3    94  LEU94       0.0001
     84  N          7.7290   11.3660   39.1170 N.3    98  LEU98      -0.1245
     85  CA         6.8500   12.2030   38.2900 C.3    98  LEU98       0.1561
     86  C          5.6550   12.7290   39.0630 C.2    98  LEU98       0.2260
     87  O          5.3770   13.9150   39.0380 O.2    98  LEU98      -0.2867
     88  CB         6.3570   11.4860   37.0380 C.3    98  LEU98       0.0270
     89  CG         5.3620   12.2790   36.1790 C.3    98  LEU98       0.0019
     90  CD1        6.0010   13.5650   35.6600 C.3    98  LEU98       0.0001
     91  CD2        4.8520   11.4340   35.0180 C.3    98  LEU98       0.0001
     92  N          6.1200   18.8840   33.9700 N.3   107  TYR107     -0.1241
     93  CA         5.6450   18.0560   32.8600 C.3   107  TYR107      0.1605
     94  C          4.2270   18.3810   32.4430 C.2   107  TYR107      0.2264
     95  O          3.9090   18.3290   31.2510 O.2   107  TYR107     -0.2867
     96  CB         5.9160   16.5620   33.0680 C.3   107  TYR107      0.0534
     97  CG         7.3590   16.2460   32.7430 C.ar  107  TYR107     -0.0201
     98  CD1        7.8780   16.5270   31.4740 C.ar  107  TYR107     -0.0009
     99  CD2        8.2230   15.7480   33.7120 C.ar  107  TYR107     -0.0009
    100  CE1        9.1960   16.2750   31.1700 C.ar  107  TYR107      0.0417
    101  CE2        9.5480   15.4950   33.4180 C.ar  107  TYR107      0.0417
    102  CZ        10.0270   15.7770   32.1480 C.ar  107  TYR107      0.1957
    103  OH        11.3410   15.5470   31.8510 O.3   107  TYR107     -0.2866
    104  N          4.6120   21.1940   30.0420 N.3   110  ARG110     -0.1231
    105  CA         5.1580   20.6650   28.7830 C.3   110  ARG110      0.1694
    106  C          4.0960   19.9560   27.9470 C.2   110  ARG110      0.2592
    107  O          4.0660   20.0730   26.7020 O.2   110  ARG110     -0.2718
    108  CB         6.3150   19.6950   29.0550 C.3   110  ARG110      0.0321
    109  CG         6.9700   19.0960   27.8070 C.3   110  ARG110      0.0489
    110  CD         7.2940   20.1840   26.7730 C.3   110  ARG110      0.2205
    111  NE         7.9190   19.6600   25.5560 N.pl3 110  ARG110     -0.0865
    112  CZ         7.2550   19.1920   24.5050 C.cat 110  ARG110      0.5346
    113  NH1        5.9290   19.1650   24.5120 N.pl3 110  ARG110      0.1354
    114  NH2        7.9270   18.7460   23.4450 N.pl3 110  ARG110      0.1354
    115  N          3.2360   19.2130   28.6390 N.am  111  PHE111     -0.1976
    116  CA         2.2050   18.4140   28.0000 C.3   111  PHE111      0.1639
    117  C          0.9870   19.2370   27.5500 C.2   111  PHE111      0.2290
    118  O          0.4160   18.9990   26.4710 O.2   111  PHE111     -0.2864
    119  CB         1.7980   17.2900   28.9580 C.3   111  PHE111      0.0560
    120  CG         2.6100   16.0230   28.7770 C.ar  111  PHE111     -0.0200
    121  CD1        3.9800   16.0080   29.0130 C.ar  111  PHE111     -0.0042
    122  CD2        1.9970   14.8650   28.3500 C.ar  111  PHE111     -0.0042
    123  CE1        4.7240   14.8420   28.8360 C.ar  111  PHE111     -0.0003
    124  CE2        2.7310   13.6850   28.1820 C.ar  111  PHE111     -0.0003
    125  CZ         4.0920   13.6840   28.4230 C.ar  111  PHE111     -0.0000
    126  N          7.2280   24.3730   19.4360 N.3   119  GLU119     -0.1245
    127  CA         7.6030   23.1710   18.6820 C.3   119  GLU119      0.1567
    128  C          8.5360   23.5090   17.5090 C.2   119  GLU119      0.2260
    129  O          9.5490   22.8330   17.2770 O.2   119  GLU119     -0.2867
    130  CB         6.3630   22.4420   18.1610 C.3   119  GLU119      0.0388
    131  CG         6.6960   21.2530   17.2770 C.3   119  GLU119      0.1160
    132  CD         7.2080   20.0410   18.0900 C.2   119  GLU119      0.3649
    133  OE1        6.9950   20.0050   19.3190 O.co2 119  GLU119     -0.2457
    134  OE2        7.8310   19.1370   17.4860 O.co2 119  GLU119     -0.2457
    135  N         11.8390   24.2460   19.0080 N.3   122  TRP122     -0.1241
    136  CA        12.3340   23.0580   19.7180 C.3   122  TRP122      0.1605
    137  C         12.8490   21.9970   18.7780 C.2   122  TRP122      0.2264
    138  O         13.9970   21.5760   18.8810 O.2   122  TRP122     -0.2867
    139  CB        11.2440   22.4380   20.6060 C.3   122  TRP122      0.0550
    140  CG        11.5040   20.9640   21.0140 C.ar  122  TRP122      0.0003
    141  CD1       11.0310   19.8340   20.3790 C.ar  122  TRP122      0.0946
    142  CD2       12.2890   20.4910   22.1280 C.ar  122  TRP122      0.0152
    143  NE1       11.4730   18.6970   21.0350 N.ar  122  TRP122     -0.2442
    144  CE2       12.2470   19.0740   22.1040 C.ar  122  TRP122      0.0810
    145  CE3       13.0220   21.1270   23.1390 C.ar  122  TRP122      0.0012
    146  CZ2       12.9080   18.2890   23.0580 C.ar  122  TRP122      0.0191
    147  CZ3       13.6800   20.3450   24.0870 C.ar  122  TRP122      0.0001
    148  CH2       13.6140   18.9410   24.0400 C.ar  122  TRP122      0.0015
    149  N         16.6270   12.4050   23.2120 N.3   129  THR129     -0.1203
    150  CA        16.5780   12.1120   24.6450 C.3   129  THR129      0.1994
    151  C         16.3260   10.6160   24.8960 C.2   129  THR129      0.2617
    152  O         16.1430   10.1840   26.0370 O.2   129  THR129     -0.2717
    153  CB        15.5690   13.0160   25.4180 C.3   129  THR129      0.1784
    154  OG1       14.2230   12.6760   25.0890 O.3   129  THR129     -0.2211
    155  CG2       15.8040   14.5100   25.0920 C.3   129  THR129      0.0376
    156  N         16.3500    9.8360   23.8160 N.am  130  VAL130     -0.1979
    157  CA        16.2130    8.3750   23.8760 C.3   130  VAL130      0.1595
    158  C         17.4040    7.7070   23.1490 C.2   130  VAL130      0.2287
    159  O         18.0410    8.3540   22.3110 O.2   130  VAL130     -0.2864
    160  CB        14.8550    7.9250   23.2730 C.3   130  VAL130      0.0276
    161  CG1       13.6990    8.3360   24.1910 C.3   130  VAL130      0.0022
    162  CG2       14.6710    8.5010   21.8680 C.3   130  VAL130      0.0022
    163  N         16.8400    3.5600   19.5960 N.3   134  GLU134     -0.1231
    164  CA        15.4860    3.4970   20.1380 C.3   134  GLU134      0.1699
    165  C         14.5470    4.6100   19.6690 C.2   134  GLU134      0.2592
    166  O         13.5040    4.8340   20.2760 O.2   134  GLU134     -0.2718
    167  CB        15.5280    3.4520   21.6690 C.3   134  GLU134      0.0402
    168  CG        16.2830    2.2540   22.2500 C.3   134  GLU134      0.1161
    169  CD        15.4550    0.9730   22.3020 C.2   134  GLU134      0.3649
    170  OE1       14.3470    0.9350   21.7240 O.co2 134  GLU134     -0.2457
    171  OE2       15.9180   -0.0010   22.9340 O.co2 134  GLU134     -0.2457
    172  N         14.9090    5.3080   18.5970 N.am  135  ASN135     -0.1974
    173  CA        14.0000    6.2850   18.0000 C.3   135  ASN135      0.1688
    174  C         13.3390    5.6990   16.7550 C.2   135  ASN135      0.2292
    175  O         12.1780    5.9860   16.4460 O.2   135  ASN135     -0.2864
    176  CB        14.7460    7.5840   17.6510 C.3   135  ASN135      0.1181
    177  CG        13.8390    8.6420   17.0180 C.2   135  ASN135      0.2629
    178  OD1       12.6210    8.6390   17.2120 O.2   135  ASN135     -0.2716
    179  ND2       14.4390    9.5540   16.2600 N.am  135  ASN135     -0.0877
    180  N          9.5510    1.2660   20.5330 N.3   140  SER140     -0.1202
    181  CA         9.6500    2.5450   21.2080 C.3   140  SER140      0.2020
    182  C          8.5140    3.4820   20.8410 C.2   140  SER140      0.2618
    183  O          8.0610    4.2650   21.6790 O.2   140  SER140     -0.2717
    184  CB        10.9820    3.2010   20.9000 C.3   140  SER140      0.2103
    185  OG        12.0140    2.5580   21.6140 O.3   140  SER140     -0.2182
    186  N          8.0690    3.4220   19.5950 N.am  141  GLN141     -0.1979
    187  CA         6.9790    4.2600   19.1560 C.3   141  GLN141      0.1601
    188  C          5.6810    3.8450   19.8140 C.2   141  GLN141      0.2287
    189  O          4.9050    4.6850   20.2300 O.2   141  GLN141     -0.2864
    190  CB         6.8420    4.2480   17.6350 C.3   141  GLN141      0.0394
    191  CG         7.9410    5.0360   16.8840 C.3   141  GLN141      0.0908
    192  CD         8.0040    6.5320   17.2570 C.2   141  GLN141      0.2608
    193  OE1        7.0190    7.1290   17.6930 O.2   141  GLN141     -0.2717
    194  NE2        9.1770    7.1280   17.0810 N.am  141  GLN141     -0.0878
    195  N          5.3390    2.1410   22.7840 N.3   143  LEU143     -0.1231
    196  CA         5.4200    2.4160   24.2080 C.3   143  LEU143      0.1693
    197  C          5.3690    3.9550   24.4800 C.2   143  LEU143      0.2591
    198  O          4.7350    4.4200   25.4200 O.2   143  LEU143     -0.2718
    199  CB         6.6940    1.8350   24.7930 C.3   143  LEU143      0.0284
    200  CG         6.8080    0.2770   24.7170 C.3   143  LEU143      0.0019
    201  CD1        7.9580   -0.2480   25.5450 C.3   143  LEU143      0.0001
    202  CD2        5.5260   -0.3340   25.1950 C.3   143  LEU143      0.0001
    203  N          6.0990    4.7130   23.6870 N.am  144  LYS144     -0.1980
    204  CA         5.9910    6.1810   23.7340 C.3   144  LYS144      0.1596
    205  C          4.5410    6.6230   23.6910 C.2   144  LYS144      0.2287
    206  O          4.0610    7.3120   24.6060 O.2   144  LYS144     -0.2864
    207  CB         6.7400    6.7920   22.5690 C.3   144  LYS144      0.0298
    208  CG         6.7450    8.3660   22.5900 C.3   144  LYS144      0.0038
    209  CD         7.1930    8.8840   21.2090 C.3   144  LYS144      0.0206
    210  CE         6.0020    9.2540   20.3740 C.3   144  LYS144      0.1093
    211  NZ         6.3470   10.1900   19.2170 N.3   144  LYS144     -0.1314
    212  N          2.4530    5.2650   26.8350 N.3   147  VAL147     -0.1231
    213  CA         2.8740    5.8370   28.1050 C.3   147  VAL147      0.1692
    214  C          2.6910    7.3710   28.1260 C.2   147  VAL147      0.2592
    215  O          2.2110    7.9250   29.1170 O.2   147  VAL147     -0.2718
    216  CB         4.3130    5.4260   28.4720 C.3   147  VAL147      0.0266
    217  CG1        4.7640    6.1160   29.7280 C.3   147  VAL147      0.0020
    218  CG2        4.3660    3.8580   28.6880 C.3   147  VAL147      0.0020
    219  N          3.0570    8.0510   27.0410 N.am  148  HIS148     -0.1976
    220  CA         2.8020    9.4970   26.9590 C.3   148  HIS148      0.1656
    221  C          1.3300    9.7870   27.1360 C.2   148  HIS148      0.2291
    222  O          0.9380   10.7320   27.8210 O.2   148  HIS148     -0.2864
    223  CB         3.2270   10.0560   25.6120 C.3   148  HIS148      0.0771
    224  CG         4.7040   10.2610   25.4820 C.ar  148  HIS148      0.0820
    225  ND1        5.2610   10.9500   24.4280 N.ar  148  HIS148     -0.2267
    226  CD2        5.7230    9.8850   26.2790 C.ar  148  HIS148      0.1154
    227  CE1        6.5720   10.9710   24.5710 C.ar  148  HIS148      0.1986
    228  NE2        6.8760   10.3160   25.6700 N.ar  148  HIS148     -0.2212
    229  N          0.3140    9.5420   30.7520 N.3   151  VAL151     -0.1245
    230  CA         0.8290   10.7480   31.4130 C.3   151  VAL151      0.1561
    231  C         -0.0260   11.9880   31.0690 C.2   151  VAL151      0.2260
    232  O         -0.3870   12.7860   31.9540 O.2   151  VAL151     -0.2867
    233  CB         2.3160   10.9670   31.0460 C.3   151  VAL151      0.0252
    234  CG1        2.7830   12.3850   31.4460 C.3   151  VAL151      0.0019
    235  CG2        3.1620    9.8940   31.7260 C.3   151  VAL151      0.0019
@<TRIPOS>BOND
     1   179   177   am
     2   175   174    2
     3   174   173    1
     4   191   192    1
     5   191   190    1
     6   177   178    2
     7   177   176    1
     8   194   192   am
     9   192   193    2
    10   131   132    1
    11   131   130    1
    12   129   128    2
    13   134   132   ar
    14   128   127    1
    15   190   187    1
    16   176   173    1
    17   173   172    1
    18   132   133   ar
    19   130   127    1
    20   172   165   am
    21   127   126    1
    22   137   138    2
    23   137   136    1
    24   135   136    1
    25   187   186    1
    26   187   188    1
    27   211   210    1
    28   186   182   am
    29   163   164    1
    30   165   164    1
    31   165   166    2
    32   136   139    1
    33   188   189    2
    34   164   167    1
    35   210   209    1
    36   141   140   ar
    37   141   143   ar
    38   180   181    1
    39   139   140    1
    40   182   181    1
    41   182   183    2
    42   184   181    1
    43   184   185    1
    44   140   142   ar
    45   143   144   ar
    46   209   208    1
    47   167   168    1
    48   170   169   ar
    49   162   160    1
    50   144   142   ar
    51   144   146   ar
    52   142   145   ar
    53   168   169    1
    54   169   171   ar
    55   159   158    2
    56   207   208    1
    57   207   204    1
    58   195   196    1
    59   146   148   ar
    60   145   147   ar
    61   158   157    1
    62   149   150    1
    63   160   157    1
    64   160   161    1
    65   114   112    1
    66   203   204    1
    67   203   197   am
    68   205   204    1
    69   205   206    2
    70   156   157    1
    71   156   151   am
    72   148   147   ar
    73   196   197    1
    74   196   199    1
    75   225   227   ar
    76   225   224   ar
    77   197   198    2
    78   112   113    1
    79   112   111    2
    80   227   228   ar
    81   150   151    1
    82   150   153    1
    83   200   199    1
    84   200   202    1
    85   200   201    1
    86   151   152    2
    87   154   153    1
    88   155   153    1
    89    53    55   ar
    90    53    51   ar
    91    55    54   ar
    92   224   223    1
    93   224   226   ar
    94   111   110    1
    95   223   220    1
    96   228   226   ar
    97    51    50   ar
    98    54    52   ar
    99    32    30   ar
   100    32    33   ar
   101   118   117    2
   102   107   106    2
   103   110   109    1
   104    30    29   ar
   105   212   213    1
   106   220   219    1
   107   220   221    1
   108   219   214   am
   109    33    31   ar
   110    52    50   ar
   111    50    49    1
   112   221   222    2
   113     7     6    1
   114   117   116    1
   115   109   108    1
   116    29    31   ar
   117    29    28    1
   118    43    44   ar
   119    43    41   ar
   120    15    13    1
   121   106   115   am
   122   106   105    1
   123   116   115    1
   124   116   119    1
   125   213   214    1
   126   213   216    1
   127   214   215    2
   128     5     6    1
   129     5     2    1
   130   124   122   ar
   131   124   125   ar
   132    49    46    1
   133   122   120   ar
   134   125   123   ar
   135    44    42   ar
   136   216   218    1
   137   216   217    1
   138    28    25    1
   139    41    39   ar
   140     6     8    1
   141    13    14    1
   142    13    10    1
   143    62    61    1
   144   120   119    1
   145   120   121   ar
   146   105   108    1
   147   105   104    1
   148   123   121   ar
   149     3     4    2
   150     3     2    1
   151    46    47    1
   152    46    45    1
   153     2     1    1
   154    63    61    1
   155    48    47    2
   156    61    60    1
   157    12    11    2
   158    11    10    1
   159    42    40   ar
   160    25    26    1
   161    25    24    1
   162    10     9    1
   163    39    40   ar
   164    39    38    1
   165    45    36   am
   166    27    26    2
   167   229   230    1
   168    38    35    1
   169    24    18   am
   170    36    37    2
   171    36    35    1
   172    60    57    1
   173   233   230    1
   174   233   234    1
   175   233   235    1
   176   231   230    1
   177   231   232    2
   178   100    98   ar
   179   100   102   ar
   180    95    94    2
   181    98    97   ar
   182    22    20    1
   183    35    34    1
   184   103   102    1
   185    18    19    2
   186    18    17    1
   187    75    74    1
   188    73    74   ar
   189    73    71   ar
   190    57    56    1
   191    57    58    1
   192   102   101   ar
   193    94    93    1
   194    74    72   ar
   195    71    69   ar
   196    97    96    1
   197    97    99   ar
   198    93    96    1
   199    93    92    1
   200    16    17    1
   201    20    17    1
   202    20    21    1
   203   101    99   ar
   204    72    70   ar
   205    69    70   ar
   206    69    68    1
   207    58    59    2
   208    21    23    1
   209    68    65    1
   210    82    81    1
   211    83    81    1
   212    91    89    1
   213    81    80    1
   214    65    64    1
   215    65    66    1
   216    90    89    1
   217    66    67    2
   218    89    88    1
   219    80    77    1
   220    88    85    1
   221    77    76    1
   222    77    78    1
   223    85    86    1
   224    85    84    1
   225    78    79    2
   226    87    86    2
