@<TRIPOS>MOLECULE
tmp/3vp6A00.pdb
 98 94 0 0 0
SMALL
GASTEIGER

@<TRIPOS>ATOM
      1  N        -16.2310   11.8560   26.6920 N.3    97  ASN97      -0.1225
      2  CA       -16.1180   11.1240   25.4260 C.3    97  ASN97       0.1785
      3  C        -15.5550    9.7170   25.5510 C.2    97  ASN97       0.2597
      4  O        -15.7580    8.8790   24.6720 O.2    97  ASN97      -0.2718
      5  CB       -15.2110   11.9120   24.4900 C.3    97  ASN97       0.1169
      6  CG       -15.5490   11.6960   23.0600 C.2    97  ASN97       0.2627
      7  OD1      -16.6250   12.0850   22.6140 O.2    97  ASN97      -0.2716
      8  ND2      -14.6450   11.0580   22.3180 N.am   97  ASN97      -0.0877
      9  N        -14.7810    9.4790   26.6060 N.am   98  GLN98      -0.1965
     10  CA       -14.0420    8.2360   26.7740 C.3    98  GLN98       0.1733
     11  C        -14.2370    7.6110   28.1500 C.2    98  GLN98       0.2616
     12  O        -14.6000    8.2970   29.0980 O.2    98  GLN98      -0.2715
     13  CB       -12.5240    8.5320   26.6200 C.3    98  GLN98       0.0408
     14  CG       -12.0540    9.1870   25.3110 C.3    98  GLN98       0.0908
     15  CD       -12.4160    8.4120   24.0670 C.2    98  GLN98       0.2608
     16  OE1      -12.7800    9.0040   23.0640 O.2    98  GLN98      -0.2717
     17  NE2      -12.4070    7.0660   24.1250 N.am   98  GLN98      -0.0878
     18  N        -13.8470    6.3360   28.2600 N.am   99  LEU99      -0.1963
     19  CA       -13.7930    5.5600   29.4810 C.3    99  LEU99       0.1728
     20  C        -12.6280    6.0970   30.3670 C.2    99  LEU99       0.2616
     21  O        -12.7450    6.1370   31.5980 O.2    99  LEU99      -0.2715
     22  CB       -13.5650    4.0910   29.1040 C.3    99  LEU99       0.0311
     23  CG       -14.7840    3.1210   29.1100 C.3    99  LEU99       0.0022
     24  CD1      -16.0960    3.7600   28.6080 C.3    99  LEU99       0.0001
     25  CD2      -14.4800    1.8520   28.3360 C.3    99  LEU99       0.0001
     26  N        -11.5280    6.4970   29.7220 N.am  100  SER100     -0.1950
     27  CA       -10.3150    7.0720   30.3040 C.3   100  SER100      0.1924
     28  C        -10.4010    8.6050   30.1720 C.2   100  SER100      0.2314
     29  O        -10.3810    9.1360   29.0590 O.2   100  SER100     -0.2863
     30  CB        -9.0730    6.5700   29.5680 C.3   100  SER100      0.2116
     31  OG        -8.9460    5.1580   29.6190 O.3   100  SER100     -0.2180
     32  N        -15.6060   -6.5280   24.4070 N.3   199  HIS199     -0.1226
     33  CA       -14.5880   -5.7640   23.7080 C.3   199  HIS199      0.1752
     34  C        -14.0430   -6.5890   22.5720 C.2   199  HIS199      0.2596
     35  O        -13.7820   -7.7910   22.7410 O.2   199  HIS199     -0.2718
     36  CB       -13.4670   -5.3730   24.6680 C.3   199  HIS199      0.0759
     37  CG       -12.6050   -4.2600   24.1510 C.ar  199  HIS199      0.0818
     38  ND1      -11.3750   -4.5100   23.5700 N.ar  199  HIS199     -0.2268
     39  CD2      -12.8420   -2.9270   24.1090 C.ar  199  HIS199      0.1154
     40  CE1      -10.9030   -3.3340   23.2000 C.ar  199  HIS199      0.1986
     41  NE2      -11.7490   -2.3530   23.5030 N.ar  199  HIS199     -0.2212
     42  N        -13.8930   -5.9300   21.4050 N.am  200  TYR200     -0.1976
     43  CA       -13.3940   -6.4660   20.1390 C.3   200  TYR200      0.1639
     44  C        -11.9740   -7.0620   20.2390 C.2   200  TYR200      0.2290
     45  O        -11.5540   -7.7530   19.3280 O.2   200  TYR200     -0.2864
     46  CB       -13.4780   -5.3790   19.0370 C.3   200  TYR200      0.0560
     47  CG       -12.5390   -4.1870   19.1480 C.ar  200  TYR200     -0.0198
     48  CD1      -11.4440   -4.0570   18.2980 C.ar  200  TYR200     -0.0009
     49  CD2      -12.8480   -3.1030   19.9680 C.ar  200  TYR200     -0.0009
     50  CE1      -10.6470   -2.9110   18.3070 C.ar  200  TYR200      0.0417
     51  CE2      -12.0520   -1.9570   19.9940 C.ar  200  TYR200      0.0417
     52  CZ       -10.9450   -1.8700   19.1700 C.ar  200  TYR200      0.1957
     53  OH       -10.1550   -0.7440   19.2010 O.3   200  TYR200     -0.2866
     54  N        -18.1530   -1.8410   27.5590 N.3   256  THR256     -0.1218
     55  CA       -17.8300   -0.4620   27.1630 C.3   256  THR256      0.1862
     56  C        -19.0610    0.3600   26.8580 C.2   256  THR256      0.2287
     57  O        -19.0680    1.5650   27.1090 O.2   256  THR256     -0.2866
     58  CB       -16.8710   -0.4770   25.9480 C.3   256  THR256      0.1770
     59  OG1      -17.5870   -0.9260   24.7850 O.3   256  THR256     -0.2211
     60  CG2      -15.6620   -1.3720   26.1880 C.3   256  THR256      0.0375
     61  N         -6.1980    2.6170   34.6560 N.3   312  HIS312     -0.1241
     62  CA        -6.2310    3.8300   33.8470 C.3   312  HIS312      0.1621
     63  C         -7.6660    4.2280   33.4760 C.2   312  HIS312      0.2264
     64  O         -7.8850    5.3420   33.0240 O.2   312  HIS312     -0.2867
     65  CB        -5.2020    3.8310   32.6590 C.3   312  HIS312      0.0745
     66  CG        -5.5870    3.0640   31.4330 C.ar  312  HIS312      0.0817
     67  ND1       -4.7830    2.0510   30.9390 N.ar  312  HIS312     -0.2268
     68  CD2       -6.6420    3.2200   30.5980 C.ar  312  HIS312      0.1154
     69  CE1       -5.4190    1.5560   29.8950 C.ar  312  HIS312      0.1986
     70  NE2       -6.5380    2.2290   29.6430 N.ar  312  HIS312     -0.2212
     71  N         -2.8020    7.0830   31.2550 N.3   318  LEU318     -0.1245
     72  CA        -2.5680    6.0280   30.2750 C.3   318  LEU318      0.1561
     73  C         -1.0640    5.7660   30.1220 C.2   318  LEU318      0.2260
     74  O         -0.3140    6.7140   30.0680 O.2   318  LEU318     -0.2867
     75  CB        -3.1410    6.4520   28.9140 C.3   318  LEU318      0.0270
     76  CG        -4.6050    6.1460   28.6980 C.3   318  LEU318      0.0019
     77  CD1       -5.2970    7.3150   27.9910 C.3   318  LEU318      0.0001
     78  CD2       -4.7700    4.8330   27.9410 C.3   318  LEU318      0.0001
     79  N        -22.9730    5.9900   19.4380 N.3   464  GLN464     -0.1245
     80  CA       -22.7390    4.7950   18.6360 C.3   464  GLN464      0.1566
     81  C        -24.0210    3.9920   18.4910 C.2   464  GLN464      0.2260
     82  O        -24.8510    4.0160   19.3990 O.2   464  GLN464     -0.2867
     83  CB       -21.5980    3.9050   19.2180 C.3   464  GLN464      0.0367
     84  CG       -21.9780    2.9920   20.4030 C.3   464  GLN464      0.0905
     85  CD       -22.1170    3.7490   21.6950 C.2   464  GLN464      0.2608
     86  OE1      -23.2250    4.0600   22.1620 O.2   464  GLN464     -0.2717
     87  NE2      -20.9910    4.0870   22.2810 N.am  464  GLN464     -0.0878
     88  N        -23.7840    7.5970   24.7360 N.3   474  ARG474     -0.1245
     89  CA       -23.3610    6.7560   25.8230 C.3   474  ARG474      0.1563
     90  C        -22.5670    7.6660   26.7270 C.2   474  ARG474      0.2260
     91  O        -21.3610    7.8880   26.5000 O.2   474  ARG474     -0.2867
     92  CB       -22.5440    5.5410   25.3430 C.3   474  ARG474      0.0307
     93  CG       -22.0090    4.7020   26.5010 C.3   474  ARG474      0.0489
     94  CD       -20.5990    4.2240   26.2280 C.3   474  ARG474      0.2205
     95  NE       -19.6580    5.3140   25.9770 N.pl3 474  ARG474     -0.0865
     96  CZ       -18.3750    5.1340   25.6920 C.cat 474  ARG474      0.5346
     97  NH1      -17.5910    6.1740   25.4530 N.pl3 474  ARG474      0.1354
     98  NH2      -17.8640    3.9080   25.6440 N.pl3 474  ARG474      0.1354
@<TRIPOS>BOND
     1    48    50   ar
     2    48    47   ar
     3    50    52   ar
     4    81    80    1
     5    81    82    2
     6    80    83    1
     7    80    79    1
     8    46    47    1
     9    46    43    1
    10    47    49   ar
    11    52    53    1
    12    52    51   ar
    13    83    84    1
    14    45    44    2
    15    49    51   ar
    16    43    44    1
    17    43    42    1
    18    84    85    1
    19    42    34   am
    20    85    86    2
    21    85    87   am
    22     8     6   am
    23    34    35    2
    24    34    33    1
    25     7     6    2
    26     6     5    1
    27    16    15    2
    28    40    41   ar
    29    40    38   ar
    30    41    39   ar
    31    38    37   ar
    32    33    32    1
    33    33    36    1
    34    15    17   am
    35    15    14    1
    36    39    37   ar
    37    37    36    1
    38     5     2    1
    39     4     3    2
    40    88    89    1
    41    59    58    1
    42    14    13    1
    43    92    89    1
    44    92    93    1
    45     2     3    1
    46     2     1    1
    47    97    96    1
    48     3     9   am
    49    98    96    1
    50    96    95    2
    51    89    90    1
    52    58    60    1
    53    58    55    1
    54    95    94    1
    55    94    93    1
    56    91    90    2
    57     9    10    1
    58    13    10    1
    59    10    11    1
    60    56    57    2
    61    56    55    1
    62    55    54    1
    63    78    76    1
    64    77    76    1
    65    11    18   am
    66    11    12    2
    67    18    19    1
    68    25    23    1
    69    24    23    1
    70    76    75    1
    71    75    72    1
    72    29    28    2
    73    22    23    1
    74    22    19    1
    75    19    20    1
    76    30    31    1
    77    30    27    1
    78    70    69   ar
    79    70    68   ar
    80    26    27    1
    81    26    20   am
    82    69    67   ar
    83    74    73    2
    84    73    72    1
    85    28    27    1
    86    72    71    1
    87    20    21    2
    88    68    66   ar
    89    67    66   ar
    90    66    65    1
    91    65    62    1
    92    64    63    2
    93    63    62    1
    94    62    61    1
