@<TRIPOS>MOLECULE
tmp/3vpbA01.pdb
 118 117 0 0 0
SMALL
GASTEIGER

@<TRIPOS>ATOM
      1  N         29.2400   16.6770   17.2860 N.3   132  SER132     -0.1202
      2  CA        30.5730   16.7390   17.8680 C.3   132  SER132      0.2020
      3  C         31.5240   17.1720   16.7560 C.2   132  SER132      0.2618
      4  O         31.0990   17.3140   15.6030 O.2   132  SER132     -0.2717
      5  CB        30.9550   15.3550   18.4220 C.3   132  SER132      0.2103
      6  OG        32.1820   15.3900   19.1450 O.3   132  SER132     -0.2182
      7  N         32.7920   17.3900   17.0990 N.am  133  TRP133     -0.1975
      8  CA        33.8530   17.6980   16.1170 C.3   133  TRP133      0.1640
      9  C         33.6180   18.9650   15.2850 C.2   133  TRP133      0.2290
     10  O         34.1950   19.1270   14.2110 O.2   133  TRP133     -0.2864
     11  CB        34.1000   16.5130   15.1670 C.3   133  TRP133      0.0576
     12  CG        34.4930   15.2230   15.8200 C.ar  133  TRP133      0.0006
     13  CD1       35.2660   15.0540   16.9430 C.ar  133  TRP133      0.0946
     14  CD2       34.1840   13.9060   15.3470 C.ar  133  TRP133      0.0152
     15  NE1       35.4290   13.7120   17.2090 N.ar  133  TRP133     -0.2442
     16  CE2       34.7960   12.9870   16.2330 C.ar  133  TRP133      0.0810
     17  CE3       33.4680   13.4120   14.2450 C.ar  133  TRP133      0.0012
     18  CZ2       34.6820   11.6020   16.0730 C.ar  133  TRP133      0.0191
     19  CZ3       33.3580   12.0270   14.0890 C.ar  133  TRP133      0.0001
     20  CH2       33.9670   11.1460   14.9940 C.ar  133  TRP133      0.0015
     21  N         39.9650   22.9530   26.9510 N.3   178  ARG178     -0.1245
     22  CA        39.4350   21.6170   27.1410 C.3   178  ARG178      0.1563
     23  C         39.9650   21.0420   28.4430 C.2   178  ARG178      0.2260
     24  O         41.1780   20.9520   28.6630 O.2   178  ARG178     -0.2867
     25  CB        39.8090   20.7430   25.9330 C.3   178  ARG178      0.0307
     26  CG        39.7580   19.2290   26.1230 C.3   178  ARG178      0.0489
     27  CD        38.4080   18.7130   26.5980 C.3   178  ARG178      0.2205
     28  NE        37.2830   18.8700   25.6780 N.pl3 178  ARG178     -0.0865
     29  CZ        36.9370   17.9870   24.7350 C.cat 178  ARG178      0.5346
     30  NH1       37.6440   16.8710   24.5190 N.pl3 178  ARG178      0.1354
     31  NH2       35.8660   18.2190   24.0060 N.pl3 178  ARG178      0.1354
     32  N         43.7880   21.8810   28.9720 N.3   190  TYR190     -0.1241
     33  CA        44.7510   22.3710   28.0190 C.3   190  TYR190      0.1605
     34  C         44.0340   23.2760   27.0270 C.2   190  TYR190      0.2264
     35  O         42.7910   23.3690   27.0540 O.2   190  TYR190     -0.2867
     36  CB        45.4960   21.2170   27.3500 C.3   190  TYR190      0.0534
     37  CG        44.7360   20.5210   26.2400 C.ar  190  TYR190     -0.0201
     38  CD1       43.7470   19.5820   26.5270 C.ar  190  TYR190     -0.0009
     39  CD2       45.0180   20.8020   24.9120 C.ar  190  TYR190     -0.0009
     40  CE1       43.0600   18.9450   25.5200 C.ar  190  TYR190      0.0417
     41  CE2       44.3390   20.1740   23.9040 C.ar  190  TYR190      0.0417
     42  CZ        43.3570   19.2390   24.2240 C.ar  190  TYR190      0.1957
     43  OH        42.6750   18.6190   23.2100 O.3   190  TYR190     -0.2866
     44  N         43.1050   24.3260   23.1100 N.3   192  ARG192     -0.1245
     45  CA        43.0450   23.9420   21.6860 C.3   192  ARG192      0.1563
     46  C         43.1310   25.1920   20.8370 C.2   192  ARG192      0.2260
     47  O         42.2130   26.0100   20.8650 O.2   192  ARG192     -0.2867
     48  CB        41.7430   23.2000   21.4060 C.3   192  ARG192      0.0307
     49  CG        41.6410   21.9060   22.1740 C.3   192  ARG192      0.0489
     50  CD        40.3420   21.1520   21.8360 C.3   192  ARG192      0.2205
     51  NE        39.1800   21.9250   22.2770 N.pl3 192  ARG192     -0.0865
     52  CZ        37.9460   21.4420   22.3450 C.cat 192  ARG192      0.5346
     53  NH1       37.6930   20.1850   21.9710 N.pl3 192  ARG192      0.1354
     54  NH2       36.9680   22.2200   22.7930 N.pl3 192  ARG192      0.1354
     55  N         38.3130   22.5950   17.4910 N.3   202  ASN202     -0.1225
     56  CA        38.4090   21.1380   17.6150 C.3   202  ASN202      0.1785
     57  C         39.7030   20.5550   17.0650 C.2   202  ASN202      0.2597
     58  O         40.1390   20.8800   15.9300 O.2   202  ASN202     -0.2718
     59  CB        37.2200   20.4470   16.9430 C.3   202  ASN202      0.1169
     60  CG        35.8830   20.9880   17.4220 C.2   202  ASN202      0.2627
     61  OD1       35.4800   22.0880   17.0490 O.2   202  ASN202     -0.2716
     62  ND2       35.1850   20.2010   18.2440 N.am  202  ASN202     -0.0877
     63  N         40.3100   19.6720   17.8440 N.am  203  VAL203     -0.1966
     64  CA        41.4880   18.9200   17.3620 C.3   203  VAL203      0.1727
     65  C         41.1430   18.1640   16.0630 C.2   203  VAL203      0.2616
     66  O         41.9640   18.1180   15.1400 O.2   203  VAL203     -0.2715
     67  CB        42.0710   17.9840   18.4470 C.3   203  VAL203      0.0290
     68  CG1       43.1830   17.1100   17.8740 C.3   203  VAL203      0.0023
     69  CG2       42.6190   18.8440   19.6050 C.3   203  VAL203      0.0023
     70  N         39.9180   17.6330   15.9720 N.am  204  ALA204     -0.1977
     71  CA        39.4690   16.9220   14.7620 C.3   204  ALA204      0.1597
     72  C         39.5080   17.7940   13.5170 C.2   204  ALA204      0.2287
     73  O         39.5560   17.2700   12.4000 O.2   204  ALA204     -0.2864
     74  CB        38.0510   16.3240   14.9480 C.3   204  ALA204      0.0319
     75  N         37.3930   12.0850   23.8920 N.3   256  GLU256     -0.1231
     76  CA        38.6240   11.7070   23.2570 C.3   256  GLU256      0.1699
     77  C         39.7210   12.4250   24.0230 C.2   256  GLU256      0.2592
     78  O         39.4430   13.3970   24.7540 O.2   256  GLU256     -0.2718
     79  CB        38.5810   12.1180   21.7890 C.3   256  GLU256      0.0402
     80  CG        37.6770   11.2160   20.9340 C.3   256  GLU256      0.1161
     81  CD        37.4590   11.7840   19.5300 C.2   256  GLU256      0.3649
     82  OE1       37.3530   13.0200   19.3950 O.co2 256  GLU256     -0.2457
     83  OE2       37.4060   10.9990   18.5640 O.co2 256  GLU256     -0.2457
     84  N         40.9540   11.9380   23.9130 N.am  257  PHE257     -0.1962
     85  CA        42.0140   12.4960   24.7510 C.3   257  PHE257      0.1771
     86  C         43.4010   12.4040   24.1540 C.2   257  PHE257      0.2619
     87  O         44.3840   12.5890   24.8670 O.2   257  PHE257     -0.2715
     88  CB        41.9910   11.9360   26.2020 C.3   257  PHE257      0.0574
     89  CG        41.8480   10.4340   26.2940 C.ar  257  PHE257     -0.0200
     90  CD1       42.9600    9.5850   26.1460 C.ar  257  PHE257     -0.0042
     91  CD2       40.5970    9.8610   26.5670 C.ar  257  PHE257     -0.0042
     92  CE1       42.8130    8.1880   26.2410 C.ar  257  PHE257     -0.0003
     93  CE2       40.4390    8.4620   26.6540 C.ar  257  PHE257     -0.0003
     94  CZ        41.5590    7.6210   26.5020 C.ar  257  PHE257     -0.0000
     95  N         43.4920   12.2110   22.8380 N.am  258  LYS258     -0.1963
     96  CA        44.8010   12.2130   22.1830 C.3   258  LYS258      0.1728
     97  C         45.4860   13.5640   22.3440 C.2   258  LYS258      0.2617
     98  O         46.6930   13.6260   22.6650 O.2   258  LYS258     -0.2715
     99  CB        44.6770   11.8480   20.6900 C.3   258  LYS258      0.0311
    100  CG        44.3640   10.3660   20.4530 C.3   258  LYS258      0.0038
    101  CD        44.6070    9.9830   18.9710 C.3   258  LYS258      0.0206
    102  CE        43.4670   10.4090   18.0760 C.3   258  LYS258      0.1093
    103  NZ        42.2190    9.5980   18.3180 N.3   258  LYS258     -0.1314
    104  N         44.7220   14.6390   22.1300 N.am  259  GLY259     -0.1940
    105  CA        45.2330   16.0220   22.2290 C.3   259  GLY259      0.2014
    106  C         45.5710   16.3640   23.6650 C.2   259  GLY259      0.2638
    107  O         46.6220   16.9860   23.9610 O.2   259  GLY259     -0.2714
    108  N         44.7010   15.9220   24.5660 N.am  260  PHE260     -0.1973
    109  CA        44.8870   16.1310   26.0030 C.3   260  PHE260      0.1639
    110  C         46.2190   15.5140   26.4710 C.2   260  PHE260      0.2290
    111  O         46.9510   16.1160   27.2840 O.2   260  PHE260     -0.2864
    112  CB        43.7040   15.5080   26.7390 C.3   260  PHE260      0.0560
    113  CG        43.6750   15.7720   28.2090 C.ar  260  PHE260     -0.0200
    114  CD1       42.9250   16.8420   28.7280 C.ar  260  PHE260     -0.0042
    115  CD2       44.3600   14.9310   29.0900 C.ar  260  PHE260     -0.0042
    116  CE1       42.8770   17.0650   30.1290 C.ar  260  PHE260     -0.0003
    117  CE2       44.3280   15.1550   30.4600 C.ar  260  PHE260     -0.0003
    118  CZ        43.5680   16.2080   30.9830 C.ar  260  PHE260     -0.0000
@<TRIPOS>BOND
     1    73    72    2
     2    72    71    1
     3    19    17   ar
     4    19    20   ar
     5    10     9    2
     6    17    14   ar
     7    71    74    1
     8    71    70    1
     9    20    18   ar
    10    66    65    2
    11    11    12    1
    12    11     8    1
    13     9     8    1
    14    14    12   ar
    15    14    16   ar
    16     4     3    2
    17    12    13   ar
    18    58    57    2
    19    70    65   am
    20    65    64    1
    21    18    16   ar
    22     8     7    1
    23    16    15   ar
    24     3     7   am
    25     3     2    1
    26    59    60    1
    27    59    56    1
    28    13    15   ar
    29    61    60    2
    30    57    56    1
    31    57    63   am
    32     1     2    1
    33    64    63    1
    34    64    67    1
    35    60    62   am
    36    55    56    1
    37     2     5    1
    38    68    67    1
    39   102   103    1
    40   102   101    1
    41     5     6    1
    42    67    69    1
    43    83    81   ar
    44   101   100    1
    45    82    81   ar
    46    81    80    1
    47   100    99    1
    48    99    96    1
    49    46    47    2
    50    46    45    1
    51    80    79    1
    52    48    45    1
    53    48    49    1
    54    45    44    1
    55    79    76    1
    56    50    49    1
    57    50    51    1
    58    53    52    1
    59   104   105    1
    60   104    97   am
    61    96    97    1
    62    96    95    1
    63   105   106    1
    64    51    52    2
    65    97    98    2
    66    52    54    1
    67    95    86   am
    68    43    42    1
    69    76    75    1
    70    76    77    1
    71   106   107    2
    72   106   108   am
    73    41    42   ar
    74    41    39   ar
    75    84    77   am
    76    84    85    1
    77    31    29    1
    78    77    78    2
    79    86    85    1
    80    86    87    2
    81    42    40   ar
    82    30    29    1
    83   108   109    1
    84    29    28    2
    85    85    88    1
    86    39    37   ar
    87    40    38   ar
    88    28    27    1
    89    25    26    1
    90    25    22    1
    91   109   110    1
    92   109   112    1
    93    26    27    1
    94    90    92   ar
    95    90    89   ar
    96    88    89    1
    97    37    38   ar
    98    37    36    1
    99    92    94   ar
   100    89    91   ar
   101   110   111    2
   102    94    93   ar
   103    91    93   ar
   104   112   113    1
   105    21    22    1
   106    34    35    2
   107    34    33    1
   108    22    23    1
   109    36    33    1
   110    33    32    1
   111   113   114   ar
   112   113   115   ar
   113    23    24    2
   114   114   116   ar
   115   115   117   ar
   116   116   118   ar
   117   117   118   ar
