@<TRIPOS>MOLECULE
tmp/3vpcD00.pdb
 226 218 0 0 0
SMALL
GASTEIGER

@<TRIPOS>ATOM
      1  N         -4.7670   10.4840   39.9890 N.3    87  LYS87      -0.1245
      2  CA        -6.1770   10.3610   40.3740 C.3    87  LYS87       0.1561
      3  C         -6.5370    8.9980   40.9390 C.2    87  LYS87       0.2260
      4  O         -7.4130    8.8980   41.7800 O.2    87  LYS87      -0.2867
      5  CB        -7.1030   10.6760   39.1940 C.3    87  LYS87       0.0271
      6  CG        -7.1550   12.1500   38.8140 C.3    87  LYS87       0.0035
      7  CD        -8.0020   12.3240   37.5520 C.3    87  LYS87       0.0206
      8  CE        -7.7000   13.6480   36.8990 C.3    87  LYS87       0.1093
      9  NZ        -8.6480   14.6000   37.4760 N.3    87  LYS87      -0.1314
     10  N        -16.3490   10.3380   42.1480 N.3   102  PRO102     -0.2116
     11  CA       -17.2160    9.8570   41.0590 C.3   102  PRO102      0.1372
     12  C        -17.0860    8.3430   40.9530 C.2   102  PRO102      0.2244
     13  O        -15.9950    7.8310   41.1610 O.2   102  PRO102     -0.2868
     14  CB       -16.6360   10.5400   39.8120 C.3   102  PRO102      0.0268
     15  CG       -15.7240   11.6340   40.3240 C.3   102  PRO102      0.0207
     16  CD       -15.2170   11.1460   41.6530 C.3   102  PRO102      0.0892
     17  N        -17.4800    8.6630   31.1590 N.3   125  ILE125     -0.1245
     18  CA       -16.2600    9.4490   31.0630 C.3   125  ILE125      0.1561
     19  C        -15.0710    8.4920   31.1500 C.2   125  ILE125      0.2260
     20  O        -15.0710    7.5630   31.9440 O.2   125  ILE125     -0.2867
     21  CB       -16.1820   10.5030   32.1930 C.3   125  ILE125      0.0252
     22  CG1      -17.2000   11.6260   31.9660 C.3   125  ILE125      0.0019
     23  CG2      -14.7500   11.0630   32.3590 C.3   125  ILE125      0.0019
     24  CD1      -16.8060   12.6370   30.8560 C.3   125  ILE125      0.0001
     25  N        -10.8770    8.9230   31.4330 N.3   127  LYS127     -0.1245
     26  CA        -9.7240    9.8060   31.5610 C.3   127  LYS127      0.1561
     27  C         -8.5150    9.0690   32.1730 C.2   127  LYS127      0.2260
     28  O         -8.6890    8.0810   32.8800 O.2   127  LYS127     -0.2867
     29  CB       -10.0810   11.0640   32.3980 C.3   127  LYS127      0.0271
     30  CG       -10.5550   10.7630   33.8260 C.3   127  LYS127      0.0035
     31  CD       -11.0750   12.0210   34.5020 C.3   127  LYS127      0.0206
     32  CE       -11.5210   11.7630   35.9200 C.3   127  LYS127      0.1093
     33  NZ       -12.1620   13.0280   36.4770 N.3   127  LYS127     -0.1314
     34  N         -3.3850   13.8290   34.6670 N.3   131  GLY131     -0.1210
     35  CA        -3.7640   15.2440   34.6990 C.3   131  GLY131      0.1956
     36  C         -3.2740   15.8290   33.4080 C.2   131  GLY131      0.2613
     37  O         -2.2210   15.4290   32.9070 O.2   131  GLY131     -0.2717
     38  N         -4.0320   16.7650   32.8510 N.am  132  SER132     -0.1938
     39  CA        -3.8120   17.1410   31.4650 C.3   132  SER132      0.2055
     40  C         -4.5100   18.4220   31.0180 C.2   132  SER132      0.2643
     41  O         -4.6390   18.6320   29.8170 O.2   132  SER132     -0.2714
     42  CB        -4.2640   15.9780   30.5730 C.3   132  SER132      0.2130
     43  OG        -3.9110   16.1930   29.2280 O.3   132  SER132     -0.2179
     44  N         -4.9440   19.2660   31.9630 N.am  133  TRP133     -0.1959
     45  CA        -5.7820   20.4440   31.6630 C.3   133  TRP133      0.1771
     46  C         -7.1150   20.0490   30.9840 C.2   133  TRP133      0.2620
     47  O         -7.6520   20.7940   30.1550 O.2   133  TRP133     -0.2715
     48  CB        -5.0370   21.4830   30.7900 C.3   133  TRP133      0.0590
     49  CG        -3.7980   22.1420   31.3810 C.ar  133  TRP133      0.0006
     50  CD1       -3.1070   21.7740   32.5130 C.ar  133  TRP133      0.0946
     51  CD2       -3.0780   23.2580   30.8230 C.ar  133  TRP133      0.0152
     52  NE1       -2.0230   22.6070   32.7000 N.ar  133  TRP133     -0.2442
     53  CE2       -1.9770   23.5200   31.6770 C.ar  133  TRP133      0.0810
     54  CE3       -3.2590   24.0630   29.6820 C.ar  133  TRP133      0.0012
     55  CZ2       -1.0670   24.5620   31.4340 C.ar  133  TRP133      0.0191
     56  CZ3       -2.3470   25.1010   29.4380 C.ar  133  TRP133      0.0001
     57  CH2       -1.2690   25.3380   30.3140 C.ar  133  TRP133      0.0015
     58  N         -7.6380   18.8740   31.3410 N.am  134  GLY134     -0.1940
     59  CA        -8.8630   18.3570   30.7380 C.3   134  GLY134      0.2014
     60  C         -8.6040   17.6850   29.4090 C.2   134  GLY134      0.2638
     61  O         -9.5270   17.1340   28.7670 O.2   134  GLY134     -0.2714
     62  N         -7.3470   17.7380   28.9700 N.am  135  ARG135     -0.1977
     63  CA        -6.9580   16.9570   27.8250 C.3   135  ARG135      0.1597
     64  C         -7.0300   15.4850   28.2320 C.2   135  ARG135      0.2287
     65  O         -6.7230   15.0810   29.3670 O.2   135  ARG135     -0.2864
     66  CB        -5.5800   17.3350   27.2500 C.3   135  ARG135      0.0334
     67  CG        -5.4360   18.7840   26.7470 C.3   135  ARG135      0.0492
     68  CD        -3.9750   19.2660   26.8270 C.3   135  ARG135      0.2205
     69  NE        -3.7220   20.4150   25.9480 N.pl3 135  ARG135     -0.0865
     70  CZ        -4.0230   21.6840   26.2300 C.cat 135  ARG135      0.5346
     71  NH1       -4.5960   22.0100   27.3840 N.pl3 135  ARG135      0.1354
     72  NH2       -3.7540   22.6390   25.3430 N.pl3 135  ARG135      0.1354
     73  N         -9.6330   13.8850   28.7360 N.3   137  VAL137     -0.1245
     74  CA       -10.9130   13.5220   29.3490 C.3   137  VAL137      0.1561
     75  C        -11.9340   13.3520   28.2250 C.2   137  VAL137      0.2260
     76  O        -12.2790   14.3210   27.5300 O.2   137  VAL137     -0.2867
     77  CB       -11.4280   14.5550   30.3900 C.3   137  VAL137      0.0252
     78  CG1      -12.6500   13.9860   31.0870 C.3   137  VAL137      0.0019
     79  CG2      -10.3410   14.8850   31.4290 C.3   137  VAL137      0.0019
     80  N        -15.5830    6.2720   34.3740 N.3   167  GLN167     -0.1231
     81  CA       -16.4160    6.9300   35.3850 C.3   167  GLN167      0.1698
     82  C        -17.8300    7.2040   34.9360 C.2   167  GLN167      0.2592
     83  O        -18.1130    7.2300   33.7370 O.2   167  GLN167     -0.2718
     84  CB       -15.8140    8.2740   35.7700 C.3   167  GLN167      0.0381
     85  CG       -14.5110    8.2030   36.5020 C.3   167  GLN167      0.0905
     86  CD       -14.1080    9.5550   37.0920 C.2   167  GLN167      0.2608
     87  OE1      -14.4780   10.6230   36.5770 O.2   167  GLN167     -0.2717
     88  NE2      -13.3280    9.5100   38.1650 N.am  167  GLN167     -0.0878
     89  N        -18.7150    7.4170   35.9170 N.am  168  GLU168     -0.1966
     90  CA       -20.0400    7.9260   35.6370 C.3   168  GLU168      0.1733
     91  C        -19.8500    9.3220   35.0770 C.2   168  GLU168      0.2616
     92  O        -18.9280   10.0420   35.4760 O.2   168  GLU168     -0.2715
     93  CB       -20.8900    7.9870   36.9080 C.3   168  GLU168      0.0429
     94  CG       -20.3400    8.9440   37.9740 C.3   168  GLU168      0.1163
     95  CD       -21.2440    9.0530   39.1920 C.2   168  GLU168      0.3649
     96  OE1      -22.4600    9.1510   39.0020 O.co2 168  GLU168     -0.2457
     97  OE2      -20.7360    9.0350   40.3420 O.co2 168  GLU168     -0.2457
     98  N        -20.6970    9.6740   34.1180 N.am  169  TYR169     -0.1960
     99  CA       -20.7190   11.0020   33.5470 C.3   169  TYR169      0.1771
    100  C        -21.6550   11.8600   34.3760 C.2   169  TYR169      0.2619
    101  O        -22.8630   11.6520   34.3580 O.2   169  TYR169     -0.2715
    102  CB       -21.2210   10.9180   32.1030 C.3   169  TYR169      0.0574
    103  CG       -21.4190   12.2450   31.4220 C.ar  169  TYR169     -0.0198
    104  CD1      -20.5380   13.3090   31.6200 C.ar  169  TYR169     -0.0009
    105  CD2      -22.4860   12.4230   30.5520 C.ar  169  TYR169     -0.0009
    106  CE1      -20.7410   14.5400   30.9660 C.ar  169  TYR169      0.0417
    107  CE2      -22.6860   13.6130   29.8860 C.ar  169  TYR169      0.0417
    108  CZ       -21.8250   14.6730   30.0950 C.ar  169  TYR169      0.1957
    109  OH       -22.0710   15.8340   29.4070 O.3   169  TYR169     -0.2866
    110  N        -21.0920   12.8140   35.1180 N.am  170  ILE170     -0.1977
    111  CA       -21.8900   13.6380   36.0180 C.3   170  ILE170      0.1596
    112  C        -22.4830   14.8330   35.2640 C.2   170  ILE170      0.2287
    113  O        -21.7520   15.6540   34.6870 O.2   170  ILE170     -0.2864
    114  CB       -21.0740   14.0850   37.2790 C.3   170  ILE170      0.0276
    115  CG1      -20.6630   12.8580   38.1080 C.3   170  ILE170      0.0022
    116  CG2      -21.8830   15.0460   38.1440 C.3   170  ILE170      0.0022
    117  CD1      -19.5370   13.1150   39.1640 C.3   170  ILE170      0.0001
    118  N        -21.0780   23.0120   36.3340 N.3   175  ARG175     -0.1231
    119  CA       -19.9080   23.7470   36.7870 C.3   175  ARG175      0.1694
    120  C        -18.9290   22.8670   37.5640 C.2   175  ARG175      0.2592
    121  O        -19.2640   21.7520   37.9930 O.2   175  ARG175     -0.2718
    122  CB       -20.3430   24.9240   37.6750 C.3   175  ARG175      0.0321
    123  CG       -20.9350   24.4900   38.9940 C.3   175  ARG175      0.0489
    124  CD       -21.8200   25.5530   39.5800 C.3   175  ARG175      0.2205
    125  NE       -22.2470   25.1910   40.9310 N.pl3 175  ARG175     -0.0865
    126  CZ       -22.7740   26.0430   41.8080 C.cat 175  ARG175      0.5346
    127  NH1      -22.9530   27.3200   41.4820 N.pl3 175  ARG175      0.1354
    128  NH2      -23.1310   25.6190   43.0090 N.pl3 175  ARG175      0.1354
    129  N        -17.7150   23.3940   37.7100 N.am  176  ASP176     -0.1974
    130  CA       -16.7020   22.8350   38.5980 C.3   176  ASP176      0.1709
    131  C        -16.5610   23.7620   39.7990 C.2   176  ASP176      0.2293
    132  O        -16.6000   24.9780   39.6440 O.2   176  ASP176     -0.2864
    133  CB       -15.3480   22.7420   37.8840 C.3   176  ASP176      0.1436
    134  CG       -14.2660   22.1180   38.7550 C.2   176  ASP176      0.3671
    135  OD1      -14.4910   21.0130   39.3000 O.co2 176  ASP176     -0.2456
    136  OD2      -13.1820   22.7370   38.8970 O.co2 176  ASP176     -0.2456
    137  N        -16.5090   27.4690   38.3080 N.3   192  ARG192     -0.1245
    138  CA       -16.2110   27.7090   36.9110 C.3   192  ARG192      0.1563
    139  C        -17.2610   26.9100   36.1380 C.2   192  ARG192      0.2260
    140  O        -17.2700   25.6820   36.1960 O.2   192  ARG192     -0.2867
    141  CB       -14.8000   27.1910   36.5900 C.3   192  ARG192      0.0307
    142  CG       -13.8150   27.2750   37.7750 C.3   192  ARG192      0.0489
    143  CD       -12.9830   26.0050   37.9370 C.3   192  ARG192      0.2205
    144  NE       -11.8540   25.9660   37.0110 N.pl3 192  ARG192     -0.0865
    145  CZ       -11.3350   24.8530   36.4860 C.cat 192  ARG192      0.5346
    146  NH1      -11.8400   23.6530   36.7790 N.pl3 192  ARG192      0.1354
    147  NH2      -10.3020   24.9420   35.6550 N.pl3 192  ARG192      0.1354
    148  N        -19.4530   25.3370   32.9850 N.3   194  ILE194     -0.1245
    149  CA       -19.1770   24.7460   31.6790 C.3   194  ILE194      0.1561
    150  C        -19.5960   25.7460   30.5970 C.2   194  ILE194      0.2260
    151  O        -20.7320   26.2220   30.6130 O.2   194  ILE194     -0.2867
    152  CB       -19.9200   23.3960   31.4730 C.3   194  ILE194      0.0252
    153  CG1      -19.5850   22.4070   32.5960 C.3   194  ILE194      0.0019
    154  CG2      -19.5390   22.7920   30.1390 C.3   194  ILE194      0.0019
    155  CD1      -20.4070   21.1040   32.5730 C.3   194  ILE194      0.0001
    156  N        -18.6360   20.3460   27.8020 N.3   199  TRP199     -0.1227
    157  CA       -19.0510   19.4310   28.8590 C.3   199  TRP199      0.1737
    158  C        -17.8860   19.3290   29.8750 C.2   199  TRP199      0.2595
    159  O        -17.9650   18.5870   30.8610 O.2   199  TRP199     -0.2718
    160  CB       -19.3680   18.0760   28.2220 C.3   199  TRP199      0.0564
    161  CG       -18.2170   17.6150   27.4120 C.ar  199  TRP199      0.0003
    162  CD1      -17.9080   17.9700   26.1170 C.ar  199  TRP199      0.0946
    163  CD2      -17.1700   16.7740   27.8560 C.ar  199  TRP199      0.0152
    164  NE1      -16.7310   17.3740   25.7340 N.ar  199  TRP199     -0.2442
    165  CE2      -16.2600   16.6350   26.7850 C.ar  199  TRP199      0.0810
    166  CE3      -16.9130   16.1060   29.0550 C.ar  199  TRP199      0.0012
    167  CZ2      -15.1200   15.8500   26.8810 C.ar  199  TRP199      0.0191
    168  CZ3      -15.7830   15.3310   29.1470 C.ar  199  TRP199      0.0001
    169  CH2      -14.9010   15.2050   28.0650 C.ar  199  TRP199      0.0015
    170  N        -16.7950   20.0510   29.5990 N.am  200  ARG200     -0.1966
    171  CA       -15.6900   20.2590   30.5490 C.3   200  ARG200      0.1729
    172  C        -15.7060   21.7360   30.9510 C.2   200  ARG200      0.2616
    173  O        -16.1080   22.5850   30.1520 O.2   200  ARG200     -0.2715
    174  CB       -14.3340   19.9560   29.9090 C.3   200  ARG200      0.0348
    175  CG       -14.1350   18.5410   29.4040 C.3   200  ARG200      0.0492
    176  CD       -12.8290   18.4160   28.6320 C.3   200  ARG200      0.2205
    177  NE       -12.9060   19.0490   27.3180 N.pl3 200  ARG200     -0.0865
    178  CZ       -11.9620   18.9750   26.3810 C.cat 200  ARG200      0.5346
    179  NH1      -10.8540   18.2740   26.5890 N.pl3 200  ARG200      0.1354
    180  NH2      -12.1340   19.5900   25.2170 N.pl3 200  ARG200      0.1354
    181  N        -15.2450   22.0420   32.1640 N.am  201  ALA201     -0.1963
    182  CA       -15.3180   23.4130   32.6960 C.3   201  ALA201      0.1728
    183  C        -13.9820   24.1820   32.7430 C.2   201  ALA201      0.2616
    184  O        -13.9680   25.3730   33.0540 O.2   201  ALA201     -0.2715
    185  CB       -15.9880   23.4130   34.0780 C.3   201  ALA201      0.0334
    186  N        -12.8760   23.5130   32.4240 N.am  202  ASN202     -0.1972
    187  CA       -11.5280   24.1050   32.5600 C.3   202  ASN202      0.1688
    188  C        -11.3510   25.5460   32.0680 C.2   202  ASN202      0.2292
    189  O        -11.9400   25.9460   31.0580 O.2   202  ASN202     -0.2864
    190  CB       -10.4710   23.2220   31.8930 C.3   202  ASN202      0.1181
    191  CG       -10.3420   21.8740   32.5530 C.2   202  ASN202      0.2629
    192  OD1       -9.6640   21.7250   33.5720 O.2   202  ASN202     -0.2716
    193  ND2      -10.9830   20.8750   31.9640 N.am  202  ASN202     -0.0877
    194  N        -10.6730   19.8530   43.5660 N.3   237  ASP237     -0.1239
    195  CA       -11.7520   19.9950   42.5700 C.3   237  ASP237      0.1674
    196  C        -12.9130   19.0970   42.9320 C.2   237  ASP237      0.2266
    197  O        -12.7520   17.8800   43.1200 O.2   237  ASP237     -0.2867
    198  CB       -11.2850   19.7020   41.1400 C.3   237  ASP237      0.1410
    199  CG       -10.3610   20.7840   40.5890 C.2   237  ASP237      0.3668
    200  OD1      -10.3070   21.8970   41.1700 O.co2 237  ASP237     -0.2456
    201  OD2       -9.7000   20.5350   39.5490 O.co2 237  ASP237     -0.2456
    202  N        -17.1390   18.0020   42.2880 N.3   239  LEU239     -0.1245
    203  CA       -18.3180   18.0020   41.4200 C.3   239  LEU239      0.1561
    204  C        -19.5550   17.7940   42.2690 C.2   239  LEU239      0.2260
    205  O        -19.5630   16.9520   43.1600 O.2   239  LEU239     -0.2867
    206  CB       -18.2210   16.9120   40.3320 C.3   239  LEU239      0.0270
    207  CG       -17.0980   17.0670   39.3000 C.3   239  LEU239      0.0019
    208  CD1      -17.0940   15.8960   38.3060 C.3   239  LEU239      0.0001
    209  CD2      -17.2110   18.3810   38.5690 C.3   239  LEU239      0.0001
    210  N        -13.1600   15.2810   42.9090 N.3   249  ASN249     -0.1225
    211  CA       -12.6960   14.8020   41.5960 C.3   249  ASN249      0.1785
    212  C        -11.1660   14.7260   41.4630 C.2   249  ASN249      0.2597
    213  O        -10.6290   13.8060   40.8400 O.2   249  ASN249     -0.2718
    214  CB       -13.3000   15.6310   40.4570 C.3   249  ASN249      0.1169
    215  CG       -12.8280   15.1750   39.0910 C.2   249  ASN249      0.2627
    216  OD1      -12.8960   13.9830   38.7680 O.2   249  ASN249     -0.2716
    217  ND2      -12.3240   16.1090   38.2930 N.am  249  ASN249     -0.0877
    218  N        -10.4890   15.7050   42.0620 N.am  250  GLU250     -0.1979
    219  CA        -9.0510   15.9560   41.8600 C.3   250  GLU250      0.1602
    220  C         -8.5300   16.6650   43.1020 C.2   250  GLU250      0.2287
    221  O         -9.2500   17.4630   43.6990 O.2   250  GLU250     -0.2864
    222  CB        -8.8510   16.9750   40.7290 C.3   250  GLU250      0.0415
    223  CG        -8.6500   16.4680   39.3230 C.3   250  GLU250      0.1163
    224  CD        -7.1780   16.3730   38.9710 C.2   250  GLU250      0.3649
    225  OE1       -6.5590   17.4140   38.6600 O.co2 250  GLU250     -0.2457
    226  OE2       -6.6310   15.2620   39.0030 O.co2 250  GLU250     -0.2457
@<TRIPOS>BOND
     1   180   178    1
     2    72    70    1
     3   164   162   ar
     4   164   165   ar
     5    69    70    2
     6    69    68    1
     7   162   161   ar
     8    70    71    1
     9   178   179    1
    10   178   177    2
    11    67    68    1
    12    67    66    1
    13   165   167   ar
    14   165   163   ar
    15   167   169   ar
    16    66    63    1
    17   177   176    1
    18   161   163   ar
    19   161   160    1
    20    76    75    2
    21   156   157    1
    22    63    64    1
    23    63    62    1
    24   163   166   ar
    25   169   168   ar
    26   160   157    1
    27    75    74    1
    28    64    65    2
    29   176   175    1
    30    73    74    1
    31    61    60    2
    32   157   158    1
    33    62    60   am
    34   166   168   ar
    35    43    42    1
    36    74    77    1
    37   175   174    1
    38   109   108    1
    39    60    59    1
    40    56    54   ar
    41    56    57   ar
    42   170   158   am
    43   170   171    1
    44    54    51   ar
    45    41    40    2
    46   158   159    2
    47   107   108   ar
    48   107   105   ar
    49   174   171    1
    50   108   106   ar
    51   154   152    1
    52   173   172    2
    53    47    46    2
    54    57    55   ar
    55    77    78    1
    56    77    79    1
    57   171   172    1
    58   105   103   ar
    59    42    39    1
    60   150   151    2
    61   150   149    1
    62    59    58    1
    63    48    49    1
    64    48    45    1
    65    51    49   ar
    66    51    53   ar
    67    24    22    1
    68   172   181   am
    69   106   104   ar
    70    46    58   am
    71    46    45    1
    72    40    39    1
    73    40    44   am
    74   189   188    2
    75    18    19    1
    76    18    17    1
    77    18    21    1
    78    19    20    2
    79    49    50   ar
    80   103   104   ar
    81   103   102    1
    82    25    26    1
    83    55    53   ar
    84    39    38    1
    85   152   149    1
    86   152   153    1
    87    26    27    1
    88    26    29    1
    89    45    44    1
    90    53    52   ar
    91   149   148    1
    92   190   191    1
    93   190   187    1
    94   193   191   am
    95    22    21    1
    96   188   187    1
    97   102    99    1
    98   181   182    1
    99    27    28    2
   100    21    23    1
   101    29    30    1
   102   186   187    1
   103   186   183   am
   104    50    52   ar
   105   191   192    2
   106   155   153    1
   107   182   183    1
   108   182   185    1
   109   183   184    2
   110    38    36   am
   111    37    36    2
   112    36    35    1
   113    99    98    1
   114    99   100    1
   115    83    82    2
   116    30    31    1
   117    98    91   am
   118   101   100    2
   119    80    81    1
   120   100   110   am
   121    31    32    1
   122    34    35    1
   123   113   112    2
   124    82    81    1
   125    82    89   am
   126    91    92    2
   127    91    90    1
   128   110   111    1
   129   112   111    1
   130    81    84    1
   131    90    89    1
   132    90    93    1
   133   147   145    1
   134    84    85    1
   135    32    33    1
   136   111   114    1
   137   139   140    2
   138   139   138    1
   139   118   119    1
   140   145   146    1
   141   145   144    2
   142    85    86    1
   143    87    86    2
   144   141   138    1
   145   141   142    1
   146   119   120    1
   147   119   122    1
   148     8     9    1
   149     8     7    1
   150    93    94    1
   151   138   137    1
   152   144   143    1
   153    86    88   am
   154   114   115    1
   155   114   116    1
   156     7     6    1
   157   120   129   am
   158   120   121    2
   159   122   123    1
   160   129   130    1
   161   142   143    1
   162   133   130    1
   163   133   134    1
   164    94    95    1
   165   115   117    1
   166   217   215   am
   167   208   207    1
   168   209   207    1
   169   130   131    1
   170   225   224   ar
   171   134   136   ar
   172   134   135   ar
   173   216   215    2
   174     6     5    1
   175   224   226   ar
   176   224   223    1
   177   123   124    1
   178    96    95   ar
   179   215   214    1
   180    95    97   ar
   181     5     2    1
   182   207   206    1
   183   223   222    1
   184   201   199   ar
   185   124   125    1
   186   132   131    2
   187    14    15    1
   188    14    11    1
   189     1     2    1
   190    15    16    1
   191   206   203    1
   192     2     3    1
   193   214   211    1
   194   199   198    1
   195   199   200   ar
   196   222   219    1
   197   213   212    2
   198   125   126    2
   199     3     4    2
   200    12    11    1
   201    12    13    2
   202    11    10    1
   203   198   195    1
   204   203   204    1
   205   203   202    1
   206   212   211    1
   207   212   218   am
   208   127   126    1
   209   211   210    1
   210    16    10    1
   211   126   128    1
   212   219   218    1
   213   219   220    1
   214   204   205    2
   215   195   196    1
   216   195   194    1
   217   196   197    2
   218   220   221    2
