@<TRIPOS>MOLECULE
tmp/3vpdA00.pdb
 214 205 0 0 0
SMALL
GASTEIGER

@<TRIPOS>ATOM
      1  N        -39.4640   41.9790   -2.8590 N.3    89  LYS89      -0.1245
      2  CA       -39.3020   42.0820   -4.3160 C.3    89  LYS89       0.1561
      3  C        -39.2580   40.7310   -5.0190 C.2    89  LYS89       0.2260
      4  O        -39.7180   40.6290   -6.1340 O.2    89  LYS89      -0.2867
      5  CB       -38.0640   42.9250   -4.7070 C.3    89  LYS89       0.0271
      6  CG       -38.0500   44.3500   -4.1310 C.3    89  LYS89       0.0035
      7  CD       -36.8560   45.1800   -4.6770 C.3    89  LYS89       0.0206
      8  CE       -36.8110   46.5630   -4.0090 C.3    89  LYS89       0.1093
      9  NZ       -36.1900   46.4650   -2.6300 N.3    89  LYS89      -0.1314
     10  N        -28.3980   45.6280  -12.1520 N.3   127  VAL127     -0.1245
     11  CA       -28.9860   46.2300  -10.9600 C.3   127  VAL127      0.1561
     12  C        -29.0130   45.2290   -9.8160 C.2   127  VAL127      0.2260
     13  O        -29.3760   44.0450   -9.9810 O.2   127  VAL127     -0.2867
     14  CB       -30.3840   46.8630  -11.2450 C.3   127  VAL127      0.0252
     15  CG1      -31.0410   47.3780   -9.9800 C.3   127  VAL127      0.0019
     16  CG2      -30.2640   48.0030  -12.2640 C.3   127  VAL127      0.0019
     17  N        -30.5220   44.8590   -5.8820 N.3   129  LYS129     -0.1245
     18  CA       -31.5310   45.4330   -4.9730 C.3   129  LYS129      0.1561
     19  C        -31.6250   44.5770   -3.7130 C.2   129  LYS129      0.2260
     20  O        -31.3650   43.3820   -3.7750 O.2   129  LYS129     -0.2867
     21  CB       -32.9370   45.4830   -5.6520 C.3   129  LYS129      0.0271
     22  CG       -33.0110   46.1120   -7.0220 C.3   129  LYS129      0.0035
     23  CD       -34.4810   46.3040   -7.4320 C.3   129  LYS129      0.0206
     24  CE       -34.6340   46.6840   -8.8860 C.3   129  LYS129      0.1093
     25  NZ       -36.0530   46.9710   -9.3360 N.3   129  LYS129     -0.1314
     26  N        -37.9880   49.9700    0.9460 N.3   134  SER134     -0.1202
     27  CA       -38.8920   50.7730    0.1180 C.3   134  SER134      0.2020
     28  C        -38.3730   52.1850   -0.0790 C.2   134  SER134      0.2619
     29  O        -37.4280   52.6070    0.6030 O.2   134  SER134     -0.2717
     30  CB       -40.3070   50.7810    0.7200 C.3   134  SER134      0.2103
     31  OG       -41.3060   50.9680   -0.2770 O.3   134  SER134     -0.2182
     32  N        -39.0080   52.9160   -0.9970 N.am  135  TRP135     -0.1961
     33  CA       -38.5960   54.2810   -1.3790 C.3   135  TRP135      0.1771
     34  C        -37.2320   54.2540   -2.0480 C.2   135  TRP135      0.2620
     35  O        -36.3870   55.1200   -1.7830 O.2   135  TRP135     -0.2715
     36  CB       -38.5910   55.2600   -0.1810 C.3   135  TRP135      0.0590
     37  CG       -39.8930   55.3520    0.5540 C.ar  135  TRP135      0.0006
     38  CD1      -41.0040   56.0770    0.1900 C.ar  135  TRP135      0.0946
     39  CD2      -40.2270   54.6980    1.7900 C.ar  135  TRP135      0.0152
     40  NE1      -42.0040   55.9080    1.1250 N.ar  135  TRP135     -0.2442
     41  CE2      -41.5540   55.0690    2.1150 C.ar  135  TRP135      0.0810
     42  CE3      -39.5330   53.8320    2.6540 C.ar  135  TRP135      0.0012
     43  CZ2      -42.2040   54.5990    3.2640 C.ar  135  TRP135      0.0191
     44  CZ3      -40.1810   53.3660    3.8020 C.ar  135  TRP135      0.0001
     45  CH2      -41.5000   53.7530    4.0920 C.ar  135  TRP135      0.0015
     46  N        -37.0160   53.2580   -2.9070 N.am  136  GLY136     -0.1954
     47  CA       -35.7300   53.0990   -3.6050 C.3   136  GLY136      0.1869
     48  C        -34.5110   53.0240   -2.6840 C.2   136  GLY136      0.2309
     49  O        -33.4420   53.5560   -3.0150 O.2   136  GLY136     -0.2863
     50  N        -30.6240   50.6070   -3.5770 N.3   139  LEU139     -0.1245
     51  CA       -30.5010   50.0990   -4.9320 C.3   139  LEU139      0.1561
     52  C        -29.1170   50.4530   -5.4570 C.2   139  LEU139      0.2260
     53  O        -28.5600   51.4720   -5.0910 O.2   139  LEU139     -0.2867
     54  CB       -31.5470   50.7390   -5.8410 C.3   139  LEU139      0.0270
     55  CG       -32.9950   50.8040   -5.3660 C.3   139  LEU139      0.0019
     56  CD1      -33.7700   51.5960   -6.3930 C.3   139  LEU139      0.0001
     57  CD2      -33.6090   49.4030   -5.1190 C.3   139  LEU139      0.0001
     58  N        -30.9640   42.1100  -11.2870 N.3   169  GLN169     -0.1231
     59  CA       -31.8730   42.4290  -12.3670 C.3   169  GLN169      0.1698
     60  C        -31.1300   43.0800  -13.5030 C.2   169  GLN169      0.2592
     61  O        -30.2030   43.8770  -13.2870 O.2   169  GLN169     -0.2718
     62  CB       -32.9550   43.3820  -11.8540 C.3   169  GLN169      0.0381
     63  CG       -34.1730   43.4760  -12.7240 C.3   169  GLN169      0.0905
     64  CD       -35.3040   44.2350  -12.0230 C.2   169  GLN169      0.2608
     65  OE1      -35.2000   45.4360  -11.7860 O.2   169  GLN169     -0.2717
     66  NE2      -36.3780   43.5310  -11.6940 N.am  169  GLN169     -0.0878
     67  N        -31.5200   42.7280  -14.7190 N.am  170  GLU170     -0.1966
     68  CA       -30.9720   43.3960  -15.8820 C.3   170  GLU170      0.1733
     69  C        -31.1460   44.9160  -15.7420 C.2   170  GLU170      0.2616
     70  O        -32.1660   45.4020  -15.2120 O.2   170  GLU170     -0.2715
     71  CB       -31.6300   42.8510  -17.1470 C.3   170  GLU170      0.0429
     72  CG       -32.9250   43.5050  -17.5020 C.3   170  GLU170      0.1163
     73  CD       -33.4210   43.1000  -18.8620 C.2   170  GLU170      0.3649
     74  OE1      -32.8610   43.5850  -19.8610 O.co2 170  GLU170     -0.2457
     75  OE2      -34.3720   42.2950  -18.9310 O.co2 170  GLU170     -0.2457
     76  N        -30.1370   45.6760  -16.1610 N.am  171  TYR171     -0.1960
     77  CA       -30.2690   47.1300  -16.1460 C.3   171  TYR171      0.1771
     78  C        -31.0470   47.4740  -17.3890 C.2   171  TYR171      0.2619
     79  O        -30.6760   47.0680  -18.4810 O.2   171  TYR171     -0.2715
     80  CB       -28.9100   47.8700  -16.1340 C.3   171  TYR171      0.0574
     81  CG       -29.0690   49.3790  -16.2250 C.ar  171  TYR171     -0.0198
     82  CD1      -29.4440   50.1210  -15.1100 C.ar  171  TYR171     -0.0009
     83  CD2      -28.8870   50.0550  -17.4400 C.ar  171  TYR171     -0.0009
     84  CE1      -29.6210   51.5070  -15.1850 C.ar  171  TYR171      0.0417
     85  CE2      -29.0550   51.4470  -17.5310 C.ar  171  TYR171      0.0417
     86  CZ       -29.4120   52.1650  -16.3940 C.ar  171  TYR171      0.1957
     87  OH       -29.5830   53.5350  -16.4390 O.3   171  TYR171     -0.2866
     88  N        -32.1500   48.1940  -17.2160 N.am  172  VAL172     -0.1977
     89  CA       -33.0390   48.4960  -18.3330 C.3   172  VAL172      0.1596
     90  C        -32.7410   49.9250  -18.7700 C.2   172  VAL172      0.2287
     91  O        -32.7630   50.8450  -17.9480 O.2   172  VAL172     -0.2864
     92  CB       -34.5550   48.3380  -17.9300 C.3   172  VAL172      0.0276
     93  CG1      -35.4810   48.6670  -19.1050 C.3   172  VAL172      0.0022
     94  CG2      -34.8310   46.9250  -17.4220 C.3   172  VAL172      0.0022
     95  N        -33.8640   53.0930  -19.9390 N.3   174  LYS174     -0.1245
     96  CA       -35.1680   53.7770  -19.9540 C.3   174  LYS174      0.1561
     97  C        -35.0600   55.0850  -20.7370 C.2   174  LYS174      0.2260
     98  O        -33.9690   55.6250  -20.8530 O.2   174  LYS174     -0.2867
     99  CB       -35.6450   54.0760  -18.5260 C.3   174  LYS174      0.0271
    100  CG       -35.6920   52.8810  -17.5820 C.3   174  LYS174      0.0035
    101  CD       -36.3720   53.2410  -16.2460 C.3   174  LYS174      0.0206
    102  CE       -35.8360   54.5270  -15.6010 C.3   174  LYS174      0.1093
    103  NZ       -34.5030   54.3520  -14.9190 N.3   174  LYS174     -0.1314
    104  N        -39.7470   56.8320  -15.7960 N.3   178  ASP178     -0.1239
    105  CA       -40.5520   55.6110  -15.6790 C.3   178  ASP178      0.1674
    106  C        -42.0410   55.9310  -15.5110 C.2   178  ASP178      0.2266
    107  O        -42.4090   57.1040  -15.4520 O.2   178  ASP178     -0.2867
    108  CB       -39.9840   54.6300  -14.6280 C.3   178  ASP178      0.1410
    109  CG       -39.9670   55.1920  -13.2180 C.2   178  ASP178      0.3668
    110  OD1      -40.5980   56.2300  -12.9510 O.co2 178  ASP178     -0.2456
    111  OD2      -39.3200   54.5700  -12.3420 O.co2 178  ASP178     -0.2456
    112  N        -45.6190   55.3920  -13.2800 N.3   180  ARG180     -0.1245
    113  CA       -46.3450   54.8940  -12.1040 C.3   180  ARG180      0.1563
    114  C        -47.8510   54.9440  -12.3600 C.2   180  ARG180      0.2260
    115  O        -48.3720   55.9840  -12.7180 O.2   180  ARG180     -0.2867
    116  CB       -46.0120   55.7100  -10.8520 C.3   180  ARG180      0.0307
    117  CG       -46.8880   55.3740   -9.6270 C.3   180  ARG180      0.0489
    118  CD       -46.2230   55.8540   -8.3290 C.3   180  ARG180      0.2205
    119  NE       -44.9990   55.1010   -8.0720 N.pl3 180  ARG180     -0.0865
    120  CZ       -44.1050   55.3870   -7.1250 C.cat 180  ARG180      0.5346
    121  NH1      -44.2780   56.4450   -6.3350 N.pl3 180  ARG180      0.1354
    122  NH2      -43.0260   54.6210   -6.9750 N.pl3 180  ARG180      0.1354
    123  N        -42.4980   59.7620  -14.4310 N.3   194  ARG194     -0.1245
    124  CA       -41.5240   60.3310  -13.5010 C.3   194  ARG194      0.1563
    125  C        -40.2040   60.5170  -14.2370 C.2   194  ARG194      0.2260
    126  O        -39.4890   59.5510  -14.5190 O.2   194  ARG194     -0.2867
    127  CB       -41.3490   59.4280  -12.2940 C.3   194  ARG194      0.0307
    128  CG       -42.6240   59.2030  -11.5370 C.3   194  ARG194      0.0489
    129  CD       -42.3620   58.5390  -10.2200 C.3   194  ARG194      0.2205
    130  NE       -42.0450   57.1300  -10.3970 N.pl3 194  ARG194     -0.0865
    131  CZ       -41.5710   56.3490   -9.4340 C.cat 194  ARG194      0.5346
    132  NH1      -41.3530   56.8500   -8.2210 N.pl3 194  ARG194      0.1354
    133  NH2      -41.3110   55.0690   -9.6910 N.pl3 194  ARG194      0.1354
    134  N        -31.0020   57.5680  -12.7600 N.3   199  TRP199     -0.1227
    135  CA       -31.7060   56.3030  -13.0400 C.3   199  TRP199      0.1737
    136  C        -32.8240   56.0180  -12.0060 C.2   199  TRP199      0.2595
    137  O        -33.8630   55.4490  -12.3520 O.2   199  TRP199     -0.2718
    138  CB       -30.7260   55.1270  -13.2150 C.3   199  TRP199      0.0564
    139  CG       -30.1270   54.6190  -11.9340 C.ar  199  TRP199      0.0003
    140  CD1      -29.1800   55.2370  -11.1640 C.ar  199  TRP199      0.0946
    141  CD2      -30.4320   53.3820  -11.2790 C.ar  199  TRP199      0.0152
    142  NE1      -28.8850   54.4630  -10.0670 N.ar  199  TRP199     -0.2442
    143  CE2      -29.6420   53.3210  -10.1110 C.ar  199  TRP199      0.0810
    144  CE3      -31.3080   52.3220  -11.5610 C.ar  199  TRP199      0.0012
    145  CZ2      -29.6930   52.2350   -9.2220 C.ar  199  TRP199      0.0191
    146  CZ3      -31.3600   51.2390  -10.6790 C.ar  199  TRP199      0.0001
    147  CH2      -30.5540   51.2060   -9.5240 C.ar  199  TRP199      0.0015
    148  N        -32.6180   56.4510  -10.7570 N.am  200  ILE200     -0.1966
    149  CA       -33.6930   56.5070   -9.7530 C.3   200  ILE200      0.1727
    150  C        -34.5020   57.8120   -9.9500 C.2   200  ILE200      0.2617
    151  O        -33.9980   58.9180   -9.7090 O.2   200  ILE200     -0.2715
    152  CB       -33.1330   56.3590   -8.3090 C.3   200  ILE200      0.0290
    153  CG1      -32.3900   55.0200   -8.1680 C.3   200  ILE200      0.0022
    154  CG2      -34.2560   56.4800   -7.2700 C.3   200  ILE200      0.0023
    155  CD1      -31.2940   54.9920   -7.0950 C.3   200  ILE200      0.0001
    156  N        -35.7520   57.6670  -10.3920 N.am  201  THR201     -0.1937
    157  CA       -36.5280   58.7820  -10.9730 C.3   201  THR201      0.2028
    158  C        -37.3160   59.6620   -9.9870 C.2   201  THR201      0.2642
    159  O        -37.9950   60.6090  -10.4100 O.2   201  THR201     -0.2714
    160  CB       -37.5370   58.2780  -12.0450 C.3   201  THR201      0.1808
    161  OG1      -38.4810   57.4010  -11.4210 O.3   201  THR201     -0.2208
    162  CG2      -36.8260   57.5510  -13.2020 C.3   201  THR201      0.0379
    163  N        -37.2290   59.3510   -8.6920 N.am  202  ASN202     -0.1971
    164  CA       -37.9930   60.0700   -7.6580 C.3   202  ASN202      0.1688
    165  C        -37.7280   61.5850   -7.5970 C.2   202  ASN202      0.2292
    166  O        -36.7040   62.0800   -8.0900 O.2   202  ASN202     -0.2864
    167  CB       -37.7650   59.4410   -6.2760 C.3   202  ASN202      0.1181
    168  CG       -36.3990   59.7770   -5.6980 C.2   202  ASN202      0.2629
    169  OD1      -35.3670   59.5970   -6.3540 O.2   202  ASN202     -0.2716
    170  ND2      -36.3860   60.2690   -4.4600 N.am  202  ASN202     -0.0877
    171  N        -45.3360   50.2300  -10.8690 N.3   237  ASP237     -0.1239
    172  CA       -44.2650   50.9490  -11.6130 C.3   237  ASP237      0.1674
    173  C        -43.8690   50.1460  -12.8500 C.2   237  ASP237      0.2266
    174  O        -43.6330   48.9390  -12.7580 O.2   237  ASP237     -0.2867
    175  CB       -43.0260   51.1990  -10.7070 C.3   237  ASP237      0.1410
    176  CG       -43.3120   52.1900   -9.5610 C.2   237  ASP237      0.3668
    177  OD1      -44.2420   53.0120   -9.6930 O.co2 237  ASP237     -0.2456
    178  OD2      -42.5870   52.1890   -8.5310 O.co2 237  ASP237     -0.2456
    179  N        -41.5270   50.1980  -16.7570 N.3   239  PHE239     -0.1241
    180  CA       -40.4420   50.7800  -17.5440 C.3   239  PHE239      0.1605
    181  C        -40.8080   50.6310  -18.9910 C.2   239  PHE239      0.2264
    182  O        -41.2400   49.5500  -19.4010 O.2   239  PHE239     -0.2867
    183  CB       -39.1620   49.9310  -17.4310 C.3   239  PHE239      0.0534
    184  CG       -38.5820   49.8210  -16.0610 C.ar  239  PHE239     -0.0203
    185  CD1      -38.6740   50.8500  -15.1440 C.ar  239  PHE239     -0.0042
    186  CD2      -37.8760   48.6840  -15.7210 C.ar  239  PHE239     -0.0042
    187  CE1      -38.1000   50.7170  -13.8930 C.ar  239  PHE239     -0.0003
    188  CE2      -37.3090   48.5420  -14.4730 C.ar  239  PHE239     -0.0003
    189  CZ       -37.3990   49.5620  -13.5680 C.ar  239  PHE239     -0.0000
    190  N        -42.0210   46.7010  -13.0610 N.3   248  ASN248     -0.1225
    191  CA       -40.8700   46.7720  -12.1570 C.3   248  ASN248      0.1785
    192  C        -41.2290   46.4080  -10.7160 C.2   248  ASN248      0.2597
    193  O        -40.6910   45.4570  -10.1440 O.2   248  ASN248     -0.2718
    194  CB       -40.2710   48.1900  -12.1990 C.3   248  ASN248      0.1169
    195  CG       -39.1630   48.4110  -11.1320 C.2   248  ASN248      0.2627
    196  OD1      -38.3510   47.5340  -10.8750 O.2   248  ASN248     -0.2716
    197  ND2      -39.1360   49.5980  -10.5460 N.am  248  ASN248     -0.0877
    198  N        -42.1590   47.1700  -10.1450 N.am  249  GLU249     -0.1979
    199  CA       -42.4760   47.0880   -8.7310 C.3   249  GLU249      0.1602
    200  C        -43.9740   47.2750   -8.5200 C.2   249  GLU249      0.2287
    201  O        -44.6380   47.9140   -9.3380 O.2   249  GLU249     -0.2864
    202  CB       -41.7430   48.2310   -8.0060 C.3   249  GLU249      0.0415
    203  CG       -41.6000   48.0360   -6.5280 C.3   249  GLU249      0.1163
    204  CD       -40.1500   47.8380   -6.1180 C.2   249  GLU249      0.3649
    205  OE1      -39.3590   47.2360   -6.9090 O.co2 249  GLU249     -0.2457
    206  OE2      -39.8160   48.2860   -5.0020 O.co2 249  GLU249     -0.2457
    207  N        -46.4690   48.6480   -5.2920 N.3   251  ASN251     -0.1240
    208  CA       -46.3480   49.3160   -4.0050 C.3   251  ASN251      0.1653
    209  C        -47.6770   49.2310   -3.2500 C.2   251  ASN251      0.2266
    210  O        -48.7150   49.6250   -3.8190 O.2   251  ASN251     -0.2867
    211  CB       -46.0060   50.7890   -4.2340 C.3   251  ASN251      0.1155
    212  CG       -44.7250   50.9730   -5.0550 C.2   251  ASN251      0.2627
    213  OD1      -43.6270   50.7970   -4.5200 O.2   251  ASN251     -0.2716
    214  ND2      -44.8630   51.2890   -6.3730 N.am  251  ASN251     -0.0877
@<TRIPOS>BOND
     1    98    97    2
     2    97    96    1
     3    96    95    1
     4    96    99    1
     5    74    73   ar
     6   182   181    2
     7    93    92    1
     8   181   180    1
     9    75    73   ar
    10    73    72    1
    11    90    89    1
    12    90    91    2
    13    99   100    1
    14    79    78    2
    15    89    92    1
    16    89    88    1
    17    92    94    1
    18   100   101    1
    19   180   183    1
    20   180   179    1
    21    85    83   ar
    22    85    86   ar
    23    72    71    1
    24    83    81   ar
    25   183   184    1
    26    78    88   am
    27    78    77    1
    28    71    68    1
    29    87    86    1
    30    86    84   ar
    31   101   102    1
    32    81    80    1
    33    81    82   ar
    34    76    77    1
    35    76    69   am
    36    77    80    1
    37   184   186   ar
    38   184   185   ar
    39    68    69    1
    40    68    67    1
    41   104   105    1
    42    69    70    2
    43   186   188   ar
    44   105   106    1
    45   105   108    1
    46   102   103    1
    47   106   107    2
    48    84    82   ar
    49   185   187   ar
    50    67    60   am
    51   108   109    1
    52   126   125    2
    53   188   189   ar
    54   123   124    1
    55   125   124    1
    56   187   189   ar
    57    60    61    2
    58    60    59    1
    59   124   127    1
    60   112   113    1
    61   109   110   ar
    62   109   111   ar
    63   138   135    1
    64   138   139    1
    65   162   160    1
    66   190   191    1
    67   135   134    1
    68   135   136    1
    69   173   174    2
    70   173   172    1
    71    63    64    1
    72    63    62    1
    73   115   114    2
    74    59    62    1
    75    59    58    1
    76   114   113    1
    77   137   136    2
    78   127   128    1
    79    16    14    1
    80   194   191    1
    81   194   195    1
    82   191   192    1
    83    10    11    1
    84   113   116    1
    85   160   161    1
    86   160   157    1
    87    64    65    2
    88    64    66   am
    89   136   148   am
    90   139   141   ar
    91   139   140   ar
    92   172   171    1
    93   172   175    1
    94   144   141   ar
    95   144   146   ar
    96   128   129    1
    97   141   143   ar
    98    14    11    1
    99    14    15    1
   100   140   142   ar
   101   195   196    2
   102   195   197   am
   103   157   156    1
   104   157   158    1
   105    11    12    1
   106   116   117    1
   107   148   149    1
   108   192   198   am
   109   192   193    2
   110   175   176    1
   111   146   147   ar
   112   159   158    2
   113   130   129    1
   114   130   131    2
   115   156   150   am
   116   198   199    1
   117   143   142   ar
   118   143   145   ar
   119   158   163   am
   120    13    12    2
   121   150   149    1
   122   150   151    2
   123   149   152    1
   124   177   176   ar
   125   133   131    1
   126   117   118    1
   127   176   178   ar
   128   147   145   ar
   129   131   132    1
   130   201   200    2
   131    25    24    1
   132    24    23    1
   133   199   200    1
   134   199   202    1
   135   163   164    1
   136   118   119    1
   137   152   153    1
   138   152   154    1
   139   153   155    1
   140   166   165    2
   141   119   120    2
   142   202   203    1
   143   164   165    1
   144   164   167    1
   145    23    22    1
   146   120   122    1
   147   120   121    1
   148    22    21    1
   149   205   204   ar
   150   203   204    1
   151    56    55    1
   152   214   212   am
   153   169   168    2
   154   167   168    1
   155     4     3    2
   156   204   206   ar
   157    17    18    1
   158    54    55    1
   159    54    51    1
   160   168   170   am
   161    21    18    1
   162    52    53    2
   163    52    51    1
   164    55    57    1
   165   207   208    1
   166   212   213    2
   167   212   211    1
   168     3     2    1
   169    18    19    1
   170    51    50    1
   171     5     2    1
   172     5     6    1
   173     7     6    1
   174     7     8    1
   175     2     1    1
   176   211   208    1
   177     8     9    1
   178   208   209    1
   179   210   209    2
   180    20    19    2
   181    47    46    1
   182    47    48    1
   183    49    48    2
   184    46    34   am
   185    34    35    2
   186    34    33    1
   187    33    32    1
   188    33    36    1
   189    32    28   am
   190    31    30    1
   191    36    37    1
   192    28    27    1
   193    28    29    2
   194    27    30    1
   195    27    26    1
   196    38    37   ar
   197    38    40   ar
   198    37    39   ar
   199    40    41   ar
   200    39    41   ar
   201    39    42   ar
   202    41    43   ar
   203    42    44   ar
   204    43    45   ar
   205    44    45   ar
