@<TRIPOS>MOLECULE
tmp/3vphC00.pdb
 84 80 0 0 0
SMALL
GASTEIGER

@<TRIPOS>ATOM
      1  N        -58.4670    9.6440  121.2820 N.3   150  ARG150     -0.1245
      2  CA       -57.9190    8.8110  120.2140 C.3   150  ARG150      0.1563
      3  C        -57.0060    7.7160  120.7530 C.2   150  ARG150      0.2260
      4  O        -57.0580    6.5760  120.2950 O.2   150  ARG150     -0.2867
      5  CB       -57.1590    9.6800  119.2040 C.3   150  ARG150      0.0307
      6  CG       -58.0670   10.6250  118.4550 C.3   150  ARG150      0.0489
      7  CD       -57.3080   11.5120  117.4850 C.3   150  ARG150      0.2205
      8  NE       -58.2420   12.4140  116.8350 N.pl3 150  ARG150     -0.0865
      9  CZ       -58.0390   13.0060  115.6660 C.cat 150  ARG150      0.5346
     10  NH1      -56.9140   12.8030  114.9910 N.pl3 150  ARG150      0.1354
     11  NH2      -58.9830   13.7870  115.1660 N.pl3 150  ARG150      0.1354
     12  N        -53.6760    8.0150  114.9060 N.3   162  GLN162     -0.1231
     13  CA       -53.8060    8.8990  113.7560 C.3   162  GLN162      0.1698
     14  C        -54.8870    8.4190  112.7790 C.2   162  GLN162      0.2592
     15  O        -55.3390    9.1730  111.9180 O.2   162  GLN162     -0.2718
     16  CB       -52.4470    9.0360  113.0440 C.3   162  GLN162      0.0381
     17  CG       -51.3250    9.6760  113.8990 C.3   162  GLN162      0.0905
     18  CD       -50.6420    8.7060  114.8840 C.2   162  GLN162      0.2608
     19  OE1      -50.9890    7.5290  114.9630 O.2   162  GLN162     -0.2717
     20  NE2      -49.6610    9.2150  115.6390 N.am  162  GLN162     -0.0878
     21  N        -55.3080    7.1660  112.9050 N.am  163  SER163     -0.1952
     22  CA       -56.3570    6.6540  112.0230 C.3   163  SER163      0.1924
     23  C        -57.7490    6.8150  112.6620 C.2   163  SER163      0.2314
     24  O        -58.7770    6.6110  112.0060 O.2   163  SER163     -0.2863
     25  CB       -56.0930    5.1800  111.6920 C.3   163  SER163      0.2116
     26  OG       -54.9120    5.0340  110.9100 O.3   163  SER163     -0.2180
     27  N        -60.5160    9.0760  113.8260 N.3   165  HIS165     -0.1241
     28  CA       -60.9810   10.4400  113.6480 C.3   165  HIS165      0.1621
     29  C        -62.1430   10.7950  114.5670 C.2   165  HIS165      0.2264
     30  O        -63.3090   10.8180  114.1650 O.2   165  HIS165     -0.2867
     31  CB       -61.3080   10.6390  112.1740 C.3   165  HIS165      0.0745
     32  CG       -60.1600   10.2720  111.2840 C.ar  165  HIS165      0.0817
     33  ND1      -58.9620   10.9540  111.3130 N.ar  165  HIS165     -0.2268
     34  CD2      -59.9680    9.2160  110.4570 C.ar  165  HIS165      0.1154
     35  CE1      -58.0810   10.3310  110.5500 C.ar  165  HIS165      0.1986
     36  NE2      -58.6660    9.2730  110.0200 N.ar  165  HIS165     -0.2212
     37  N        -63.2020   13.5410  117.9490 N.3   167  TYR167     -0.1241
     38  CA       -62.8790   14.8100  118.5940 C.3   167  TYR167      0.1605
     39  C        -63.5410   15.0150  119.9540 C.2   167  TYR167      0.2264
     40  O        -64.5090   14.3410  120.3040 O.2   167  TYR167     -0.2867
     41  CB       -63.3200   15.9790  117.7100 C.3   167  TYR167      0.0534
     42  CG       -62.6160   16.1060  116.3860 C.ar  167  TYR167     -0.0201
     43  CD1      -61.2340   16.2890  116.3220 C.ar  167  TYR167     -0.0009
     44  CD2      -63.3370   16.1170  115.1970 C.ar  167  TYR167     -0.0009
     45  CE1      -60.5900   16.4900  115.1030 C.ar  167  TYR167      0.0417
     46  CE2      -62.7040   16.3160  113.9730 C.ar  167  TYR167      0.0417
     47  CZ       -61.3310   16.5040  113.9340 C.ar  167  TYR167      0.1957
     48  OH       -60.7050   16.7230  112.7280 O.3   167  TYR167     -0.2866
     49  N        -65.2100    8.4380  113.3740 N.3   184  GLN184     -0.1245
     50  CA       -65.0920    7.4160  112.3410 C.3   184  GLN184      0.1566
     51  C        -63.6550    6.9480  112.1340 C.2   184  GLN184      0.2260
     52  O        -62.6980    7.6480  112.4880 O.2   184  GLN184     -0.2867
     53  CB       -65.6540    7.9530  111.0190 C.3   184  GLN184      0.0367
     54  CG       -64.9250    9.1870  110.5020 C.3   184  GLN184      0.0905
     55  CD       -63.9270    8.8790  109.3880 C.2   184  GLN184      0.2608
     56  OE1      -63.2280    7.8640  109.4220 O.2   184  GLN184     -0.2717
     57  NE2      -63.8500    9.7700  108.3990 N.am  184  GLN184     -0.0878
     58  N        -61.5330    4.8520  108.9360 N.3   186  GLY186     -0.1210
     59  CA       -61.6130    4.2750  107.6070 C.3   186  GLY186      0.1956
     60  C        -62.9270    4.6040  106.9240 C.2   186  GLY186      0.2612
     61  O        -63.4550    3.7970  106.1560 O.2   186  GLY186     -0.2717
     62  N        -63.4550    5.7900  107.2140 N.am  187  GLY187     -0.1956
     63  CA       -64.7050    6.2270  106.6160 C.3   187  GLY187      0.1869
     64  C        -65.9250    5.4780  107.1220 C.2   187  GLY187      0.2309
     65  O        -66.9820    5.5020  106.4890 O.2   187  GLY187     -0.2863
     66  N        -56.0880   20.8660  110.4160 N.3   249  VAL249     -0.1231
     67  CA       -57.2440   21.0080  111.3060 C.3   249  VAL249      0.1692
     68  C        -57.0150   20.4420  112.7090 C.2   249  VAL249      0.2592
     69  O        -56.6290   19.2800  112.8690 O.2   249  VAL249     -0.2718
     70  CB       -58.4960   20.3420  110.6880 C.3   249  VAL249      0.0266
     71  CG1      -59.6680   20.4040  111.6660 C.3   249  VAL249      0.0020
     72  CG2      -58.8600   21.0490  109.3940 C.3   249  VAL249      0.0020
     73  N        -57.2570   21.2730  113.7220 N.am  250  TYR250     -0.1976
     74  CA       -57.0770   20.8740  115.1220 C.3   250  TYR250      0.1639
     75  C        -58.1920   21.4280  116.0130 C.2   250  TYR250      0.2290
     76  O        -58.7770   22.4700  115.7110 O.2   250  TYR250     -0.2864
     77  CB       -55.7340   21.3880  115.6580 C.3   250  TYR250      0.0560
     78  CG       -54.5170   20.9160  114.8790 C.ar  250  TYR250     -0.0198
     79  CD1      -54.0370   21.6370  113.7850 C.ar  250  TYR250     -0.0009
     80  CD2      -53.8480   19.7500  115.2440 C.ar  250  TYR250     -0.0009
     81  CE1      -52.9060   21.2020  113.0690 C.ar  250  TYR250      0.0417
     82  CE2      -52.7260   19.3090  114.5430 C.ar  250  TYR250      0.0417
     83  CZ       -52.2590   20.0420  113.4590 C.ar  250  TYR250      0.1957
     84  OH       -51.1260   19.6230  112.7970 O.3   250  TYR250     -0.2866
@<TRIPOS>BOND
     1    61    60    2
     2    65    64    2
     3    63    64    1
     4    63    62    1
     5    60    62   am
     6    60    59    1
     7    59    58    1
     8    57    55   am
     9    55    56    2
    10    55    54    1
    11    72    70    1
    12    36    34   ar
    13    36    35   ar
    14    66    67    1
    15    34    32   ar
    16    54    53    1
    17    35    33   ar
    18    70    67    1
    19    70    71    1
    20    26    25    1
    21    53    50    1
    22    32    33   ar
    23    32    31    1
    24    67    68    1
    25    25    22    1
    26    15    14    2
    27    24    23    2
    28    22    23    1
    29    22    21    1
    30    51    50    1
    31    51    52    2
    32    31    28    1
    33    50    49    1
    34    68    69    2
    35    68    73   am
    36    48    47    1
    37    14    21   am
    38    14    13    1
    39    84    83    1
    40    16    13    1
    41    16    17    1
    42    81    83   ar
    43    81    79   ar
    44    83    82   ar
    45    28    27    1
    46    28    29    1
    47    73    74    1
    48    13    12    1
    49    79    78   ar
    50    17    18    1
    51    47    46   ar
    52    47    45   ar
    53    46    44   ar
    54    30    29    2
    55    82    80   ar
    56    78    80   ar
    57    78    77    1
    58    18    19    2
    59    18    20   am
    60    10     9    1
    61    45    43   ar
    62    74    77    1
    63    74    75    1
    64    11     9    1
    65    44    42   ar
    66     9     8    2
    67    76    75    2
    68    43    42   ar
    69    42    41    1
    70     8     7    1
    71     7     6    1
    72    41    38    1
    73    37    38    1
    74     6     5    1
    75    38    39    1
    76     5     2    1
    77    39    40    2
    78     2     3    1
    79     2     1    1
    80     4     3    2
