@<TRIPOS>MOLECULE
tmp/3vpkA00.pdb
 134 134 0 0 0
SMALL
GASTEIGER

@<TRIPOS>ATOM
      1  N         12.4270   -3.7470   36.5900 N.3    24  PHE24      -0.1241
      2  CA        13.7880   -3.2340   36.4500 C.3    24  PHE24       0.1605
      3  C         14.4160   -3.4580   35.0720 C.2    24  PHE24       0.2264
      4  O         15.3340   -2.7330   34.6820 O.2    24  PHE24      -0.2867
      5  CB        14.7230   -3.7050   37.6030 C.3    24  PHE24       0.0534
      6  CG        15.0980   -5.1610   37.5620 C.ar   24  PHE24      -0.0203
      7  CD1       16.1890   -5.5980   36.7960 C.ar   24  PHE24      -0.0042
      8  CD2       14.3910   -6.0990   38.3130 C.ar   24  PHE24      -0.0042
      9  CE1       16.5580   -6.9370   36.7650 C.ar   24  PHE24      -0.0003
     10  CE2       14.7470   -7.4400   38.2780 C.ar   24  PHE24      -0.0003
     11  CZ        15.8310   -7.8600   37.5090 C.ar   24  PHE24      -0.0000
     12  N         23.9130   -7.1690   32.1170 N.3    40  HIS40      -0.1241
     13  CA        23.9820   -6.0490   33.0440 C.3    40  HIS40       0.1621
     14  C         22.7340   -5.9540   33.8830 C.2    40  HIS40       0.2264
     15  O         22.7240   -5.2340   34.8750 O.2    40  HIS40      -0.2867
     16  CB        24.3520   -4.7210   32.3410 C.3    40  HIS40       0.0745
     17  CG        23.1840   -3.9740   31.7520 C.ar   40  HIS40       0.0817
     18  ND1       22.8990   -4.0000   30.4260 N.ar   40  HIS40      -0.2268
     19  CD2       22.2420   -3.1300   32.3480 C.ar   40  HIS40       0.1154
     20  CE1       21.8150   -3.2330   30.1890 C.ar   40  HIS40       0.1986
     21  NE2       21.4060   -2.7050   31.3710 N.ar   40  HIS40      -0.2212
     22  N         13.8600    6.2530   20.4910 N.3   171  ASP171     -0.1225
     23  CA        14.9020    5.3810   21.0310 C.3   171  ASP171      0.1805
     24  C         14.3450    4.4590   22.1190 C.2   171  ASP171      0.2598
     25  O         13.2660    4.7160   22.6550 O.2   171  ASP171     -0.2718
     26  CB        16.0250    6.2460   21.6350 C.3   171  ASP171      0.1424
     27  CG        17.3740    5.5550   21.6270 C.2   171  ASP171      0.3668
     28  OD1       17.4550    4.3810   21.1850 O.co2 171  ASP171     -0.2456
     29  OD2       18.3700    6.1850   22.0650 O.co2 171  ASP171     -0.2456
     30  N         15.0960    3.4090   22.4600 N.am  172  SER172     -0.1938
     31  CA        14.8650    2.7100   23.7250 C.3   172  SER172      0.2055
     32  C         15.4880    3.5470   24.8460 C.2   172  SER172      0.2643
     33  O         16.2670    4.4790   24.5720 O.2   172  SER172     -0.2714
     34  CB        15.4330    1.2850   23.6890 C.3   172  SER172      0.2130
     35  OG        16.8120    1.2870   23.3560 O.3   172  SER172     -0.2179
     36  N         15.1260    3.2620   26.0990 N.am  173  CYS173     -0.1953
     37  CA        15.6250    4.0580   27.2430 C.3   173  CYS173      0.1843
     38  C         15.7190    3.2470   28.5540 C.2   173  CYS173      0.2625
     39  O         15.4500    2.0500   28.5560 O.2   173  CYS173     -0.2714
     40  CB        14.7690    5.3220   27.4170 C.3   173  CYS173      0.0997
     41  SG        15.5500    6.6370   28.3850 S.3   173  CYS173     -0.0797
     42  N         16.1230    3.8900   29.6510 N.am  174  GLN174     -0.1963
     43  CA        16.2780    3.2020   30.9420 C.3   174  GLN174      0.1733
     44  C         15.0080    2.4240   31.3100 C.2   174  GLN174      0.2616
     45  O         13.9140    2.9710   31.2490 O.2   174  GLN174     -0.2715
     46  CB        16.6030    4.2100   32.0600 C.3   174  GLN174      0.0408
     47  CG        18.0570    4.2060   32.5020 C.3   174  GLN174      0.0908
     48  CD        18.4260    2.9730   33.3110 C.2   174  GLN174      0.2608
     49  OE1       19.5310    2.4370   33.1820 O.2   174  GLN174     -0.2717
     50  NE2       17.4970    2.5070   34.1450 N.am  174  GLN174     -0.0878
     51  N         15.1590    1.1650   31.7060 N.am  175  GLY175     -0.1955
     52  CA        13.9980    0.3110   31.9860 C.3   175  GLY175      0.1869
     53  C         13.6640   -0.6150   30.8200 C.2   175  GLY175      0.2309
     54  O         13.0280   -1.6630   31.0080 O.2   175  GLY175     -0.2863
     55  N         16.1740   -1.9510   29.0770 N.3   177  SER177     -0.1217
     56  CA        17.3370   -2.8410   29.0190 C.3   177  SER177      0.1889
     57  C         16.9160   -4.2890   29.1460 C.2   177  SER177      0.2288
     58  O         16.0050   -4.5940   29.9190 O.2   177  SER177     -0.2866
     59  CB        18.2850   -2.5450   30.1660 C.3   177  SER177      0.2089
     60  OG        19.1640   -1.5010   29.7880 O.3   177  SER177     -0.2183
     61  N         18.2330   -4.9550   24.1250 N.3   191  VAL191     -0.1231
     62  CA        18.5040   -3.5780   24.5580 C.3   191  VAL191      0.1692
     63  C         19.7000   -3.5740   25.5070 C.2   191  VAL191      0.2593
     64  O         19.6730   -4.2180   26.5700 O.2   191  VAL191     -0.2718
     65  CB        17.2790   -2.9300   25.2290 C.3   191  VAL191      0.0266
     66  CG1       17.5910   -1.4940   25.6440 C.3   191  VAL191      0.0020
     67  CG2       16.0900   -2.9370   24.2770 C.3   191  VAL191      0.0020
     68  N         20.7530   -2.8490   25.1300 N.am  192  SER192     -0.1938
     69  CA        22.0030   -2.9250   25.8970 C.3   192  SER192      0.2055
     70  C         22.4850   -1.5960   26.4990 C.2   192  SER192      0.2643
     71  O         22.4900   -1.4360   27.7220 O.2   192  SER192     -0.2714
     72  CB        23.0930   -3.6170   25.0740 C.3   192  SER192      0.2130
     73  OG        24.3070   -3.7100   25.8180 O.3   192  SER192     -0.2179
     74  N         22.8670   -0.6360   25.6470 N.am  193  TRP193     -0.1959
     75  CA        23.3150    0.6660   26.1240 C.3   193  TRP193      0.1771
     76  C         23.1400    1.7710   25.0990 C.2   193  TRP193      0.2620
     77  O         22.6760    1.5330   23.9760 O.2   193  TRP193     -0.2715
     78  CB        24.7680    0.5810   26.5870 C.3   193  TRP193      0.0590
     79  CG        25.7970    0.2430   25.5300 C.ar  193  TRP193      0.0006
     80  CD1       26.1790   -1.0190   25.0720 C.ar  193  TRP193      0.0946
     81  CD2       26.6630    1.1900   24.8010 C.ar  193  TRP193      0.0152
     82  NE1       27.1820   -0.9220   24.1270 N.ar  193  TRP193     -0.2442
     83  CE2       27.5120    0.3810   23.9160 C.ar  193  TRP193      0.0810
     84  CE3       26.8050    2.5820   24.7930 C.ar  193  TRP193      0.0012
     85  CZ2       28.4590    0.9600   23.0670 C.ar  193  TRP193      0.0191
     86  CZ3       27.7640    3.1550   23.9360 C.ar  193  TRP193      0.0001
     87  CH2       28.5570    2.3690   23.0880 C.ar  193  TRP193      0.0015
     88  N         23.4710    2.9920   25.5080 N.am  194  GLY194     -0.1940
     89  CA        23.5020    4.1620   24.6120 C.3   194  GLY194      0.2014
     90  C         23.9100    5.3870   25.4290 C.2   194  GLY194      0.2640
     91  O         24.0900    5.2910   26.6470 O.2   194  GLY194     -0.2714
     92  N         24.0560    6.5390   24.7710 N.am  195  SER195     -0.1935
     93  CA        24.4280    7.7660   25.4710 C.3   195  SER195      0.2055
     94  C         23.2060    8.6650   25.5980 C.2   195  SER195      0.2644
     95  O         22.7440    9.2510   24.6150 O.2   195  SER195     -0.2714
     96  CB        25.5950    8.4710   24.7580 C.3   195  SER195      0.2130
     97  OG        25.7520    9.7920   25.2550 O.3   195  SER195     -0.2179
     98  N         22.6720    8.7560   26.8120 N.am  196  GLY196     -0.1939
     99  CA        21.3700    9.3790   27.0270 C.3   196  GLY196      0.2014
    100  C         20.3150    8.5550   26.2980 C.2   196  GLY196      0.2639
    101  O         20.5530    7.3800   25.9680 O.2   196  GLY196     -0.2714
    102  N         19.1730    9.1760   26.0240 N.am  197  CYS197     -0.1967
    103  CA        18.0980    8.5480   25.2670 C.3   197  CYS197      0.1712
    104  C         17.5820    9.5030   24.2330 C.2   197  CYS197      0.2296
    105  O         17.2800   10.6620   24.5540 O.2   197  CYS197     -0.2864
    106  CB        16.9260    8.1460   26.1720 C.3   197  CYS197      0.0983
    107  SG        17.3510    6.9440   27.4490 S.3   197  CYS197     -0.0798
    108  N         23.1100    9.8570   18.5120 N.3   202  LYS202     -0.1231
    109  CA        23.4510    8.8580   19.5180 C.3   202  LYS202      0.1678
    110  C         22.3850    7.7590   19.5530 C.2   202  LYS202      0.2434
    111  O         21.5090    7.7700   20.4150 O.2   202  LYS202     -0.2733
    112  CB        23.6430    9.5240   20.8830 C.3   202  LYS202      0.0284
    113  CG        24.9120   10.3810   20.9620 C.3   202  LYS202      0.0035
    114  CD        24.9970   11.1890   22.2520 C.3   202  LYS202      0.0206
    115  CE        26.1400   12.2030   22.2150 C.3   202  LYS202      0.1093
    116  NZ        27.4090   11.5890   21.7160 N.3   202  LYS202     -0.1314
    117  N         22.4540    6.8120   18.5960 N.am  203  PRO203     -0.2718
    118  CA        21.4210    5.7780   18.5230 C.3   203  PRO203      0.1535
    119  C         21.5740    4.7210   19.6320 C.2   203  PRO203      0.2599
    120  O         22.5490    4.7440   20.4010 O.2   203  PRO203     -0.2715
    121  CB        21.6680    5.1540   17.1530 C.3   203  PRO203      0.0310
    122  CG        23.1330    5.3050   16.9310 C.3   203  PRO203      0.0237
    123  CD        23.5500    6.5650   17.6400 C.3   203  PRO203      0.0939
    124  N         20.6250    3.7940   19.7090 N.am  204  GLY204     -0.1941
    125  CA        20.7270    2.7250   20.7010 C.3   204  GLY204      0.2014
    126  C         21.6950    1.6480   20.2690 C.2   204  GLY204      0.2638
    127  O         21.8570    1.3840   19.0810 O.2   204  GLY204     -0.2714
    128  N         22.3600    1.0310   21.2450 N.am  205  VAL205     -0.1977
    129  CA        23.2770   -0.0680   20.9850 C.3   205  VAL205      0.1596
    130  C         22.6950   -1.3620   21.5630 C.2   205  VAL205      0.2287
    131  O         22.1600   -1.3750   22.6780 O.2   205  VAL205     -0.2864
    132  CB        24.7090    0.1890   21.5340 C.3   205  VAL205      0.0276
    133  CG1       25.6760   -0.8650   21.0170 C.3   205  VAL205      0.0022
    134  CG2       25.2080    1.5740   21.1340 C.3   205  VAL205      0.0022
@<TRIPOS>BOND
     1   122   121    1
     2   122   123    1
     3   121   118    1
     4   123   117    1
     5   108   109    1
     6   118   117    1
     7   118   119    1
     8   117   110   am
     9   127   126    2
    10   109   110    1
    11   109   112    1
    12   110   111    2
    13   119   124   am
    14   119   120    2
    15   124   125    1
    16   126   125    1
    17   126   128   am
    18    22    23    1
    19   112   113    1
    20   113   114    1
    21   129   128    1
    22   129   132    1
    23   129   130    1
    24   133   132    1
    25    23    26    1
    26    23    24    1
    27   134   132    1
    28    28    27   ar
    29   130   131    2
    30    27    26    1
    31    27    29   ar
    32   116   115    1
    33    24    30   am
    34    24    25    2
    35   115   114    1
    36    30    31    1
    37    85    87   ar
    38    85    83   ar
    39    87    86   ar
    40    35    34    1
    41    34    31    1
    42    31    32    1
    43    83    82   ar
    44    83    81   ar
    45    86    84   ar
    46    77    76    2
    47    61    62    1
    48    82    80   ar
    49   104   105    2
    50   104   103    1
    51    67    65    1
    52    62    65    1
    53    62    63    1
    54    33    32    2
    55    89    90    1
    56    89    88    1
    57    95    94    2
    58    96    97    1
    59    96    93    1
    60    92    90   am
    61    92    93    1
    62    84    81   ar
    63    81    79   ar
    64    32    36   am
    65    80    79   ar
    66    72    73    1
    67    72    69    1
    68    76    88   am
    69    76    75    1
    70    68    63   am
    71    68    69    1
    72    65    66    1
    73   103   102    1
    74   103   106    1
    75    90    91    2
    76    93    94    1
    77    63    64    2
    78    79    78    1
    79    94    98   am
    80    74    75    1
    81    74    70   am
    82    69    70    1
    83   101   100    2
    84   102   100   am
    85    36    37    1
    86    75    78    1
    87   106   107    1
    88   100    99    1
    89    70    71    2
    90    98    99    1
    91    37    40    1
    92    37    38    1
    93    40    41    1
    94   107    41    1
    95    38    39    2
    96    38    42   am
    97    56    55    1
    98    56    57    1
    99    56    59    1
   100    57    58    2
   101    42    43    1
   102    60    59    1
   103    20    18   ar
   104    20    21   ar
   105    18    17   ar
   106    53    54    2
   107    53    52    1
   108    43    44    1
   109    43    46    1
   110    45    44    2
   111    44    51   am
   112    21    19   ar
   113    51    52    1
   114    17    16    1
   115    17    19   ar
   116    46    47    1
   117    12    13    1
   118    16    13    1
   119    47    48    1
   120    13    14    1
   121    49    48    2
   122    48    50   am
   123    14    15    2
   124     4     3    2
   125     3     2    1
   126     2     1    1
   127     2     5    1
   128     9     7   ar
   129     9    11   ar
   130     7     6   ar
   131    11    10   ar
   132     6     5    1
   133     6     8   ar
   134    10     8   ar
