@<TRIPOS>MOLECULE
tmp/3vplA02.pdb
 106 105 0 0 0
SMALL
GASTEIGER

@<TRIPOS>ATOM
      1  N          0.8240  -14.0880    1.7860 N.3    78  SER78      -0.1217
      2  CA        -0.2850  -14.9170    1.3040 C.3    78  SER78       0.1889
      3  C          0.0380  -16.3740    1.5310 C.2    78  SER78       0.2288
      4  O          1.1960  -16.8290    1.3160 O.2    78  SER78      -0.2866
      5  CB        -0.5000  -14.6720   -0.1720 C.3    78  SER78       0.2089
      6  OG        -1.4890  -15.5870   -0.6540 O.3    78  SER78      -0.2183
      7  N         -1.3560  -18.4470   -0.4950 N.3    80  ASN80      -0.1225
      8  CA        -1.4680  -19.0160   -1.8690 C.3    80  ASN80       0.1785
      9  C         -2.4180  -20.1890   -1.8650 C.2    80  ASN80       0.2598
     10  O         -2.2410  -21.1270   -2.6900 O.2    80  ASN80      -0.2718
     11  CB        -0.0980  -19.4100   -2.4360 C.3    80  ASN80       0.1169
     12  CG         0.8280  -18.2670   -2.4720 C.2    80  ASN80       0.2627
     13  OD1        1.9350  -18.3010   -1.8800 O.2    80  ASN80      -0.2716
     14  ND2        0.4890  -17.2100   -3.1950 N.am   80  ASN80      -0.0877
     15  N         -3.4630  -20.1830   -1.0890 N.am   81  GLY81      -0.1942
     16  CA        -4.4840  -21.2470   -1.0950 C.3    81  GLY81       0.2014
     17  C         -4.0260  -22.5020   -0.3920 C.2    81  GLY81       0.2638
     18  O         -4.7690  -23.5110   -0.4410 O.2    81  GLY81      -0.2714
     19  N         -2.8900  -22.4850    0.3280 N.am   82  GLU82      -0.1977
     20  CA        -2.2780  -23.7170    0.8680 C.3    82  GLU82       0.1602
     21  C         -2.1160  -23.6640    2.3420 C.2    82  GLU82       0.2287
     22  O         -1.1570  -24.2780    2.8690 O.2    82  GLU82      -0.2864
     23  CB        -0.9590  -24.0000    0.1340 C.3    82  GLU82       0.0415
     24  CG        -1.1200  -24.2250   -1.3970 C.3    82  GLU82       0.1163
     25  CD        -1.8970  -25.4860   -1.7030 C.2    82  GLU82       0.3649
     26  OE1       -1.9080  -26.4350   -0.8790 O.co2  82  GLU82      -0.2457
     27  OE2       -2.5930  -25.5780   -2.7730 O.co2  82  GLU82      -0.2457
     28  N         -6.2070  -11.1520    5.8670 N.3   116  GLU116     -0.1245
     29  CA        -7.6370  -11.4000    5.5950 C.3   116  GLU116      0.1567
     30  C         -7.9730  -12.8520    5.9300 C.2   116  GLU116      0.2260
     31  O         -8.4160  -13.6640    5.1110 O.2   116  GLU116     -0.2867
     32  CB        -8.0730  -10.9640    4.2170 C.3   116  GLU116      0.0388
     33  CG        -7.9290   -9.4350    4.0880 C.3   116  GLU116      0.1160
     34  CD        -8.6300   -8.8210    2.9210 C.2   116  GLU116      0.3649
     35  OE1       -9.2360   -7.7040    3.0290 O.co2 116  GLU116     -0.2457
     36  OE2       -8.6050   -9.4300    1.7870 O.co2 116  GLU116     -0.2457
     37  N        -12.4470  -16.4230    0.2680 N.3   121  TRP121     -0.1227
     38  CA       -11.7380  -16.5650   -0.9610 C.3   121  TRP121      0.1737
     39  C        -10.3010  -17.0180   -0.7530 C.2   121  TRP121      0.2595
     40  O         -9.6860  -17.5440   -1.6910 O.2   121  TRP121     -0.2718
     41  CB       -11.7590  -15.2920   -1.7790 C.3   121  TRP121      0.0564
     42  CG       -11.2590  -14.1060   -1.0190 C.ar  121  TRP121      0.0003
     43  CD1       -9.9190  -13.6960   -0.9070 C.ar  121  TRP121      0.0946
     44  CD2      -12.0040  -13.2070   -0.1930 C.ar  121  TRP121      0.0152
     45  NE1       -9.8340  -12.6090   -0.0600 N.ar  121  TRP121     -0.2442
     46  CE2      -11.0670  -12.2570    0.4170 C.ar  121  TRP121      0.0810
     47  CE3      -13.4140  -13.0850    0.0940 C.ar  121  TRP121      0.0012
     48  CZ2      -11.4990  -11.2650    1.2740 C.ar  121  TRP121      0.0191
     49  CZ3      -13.7800  -12.0640    0.9610 C.ar  121  TRP121      0.0001
     50  CH2      -12.8060  -11.1630    1.5110 C.ar  121  TRP121      0.0015
     51  N         -9.7390  -16.8230    0.4390 N.am  122  ASN122     -0.1974
     52  CA        -8.3650  -17.2750    0.7210 C.3   122  ASN122      0.1688
     53  C         -8.2460  -18.7150    0.9930 C.2   122  ASN122      0.2292
     54  O         -7.1460  -19.2880    1.0900 O.2   122  ASN122     -0.2864
     55  CB        -7.7900  -16.4290    1.8610 C.3   122  ASN122      0.1181
     56  CG        -7.3660  -15.0610    1.3830 C.2   122  ASN122      0.2629
     57  OD1       -6.9980  -14.8880    0.2170 O.2   122  ASN122     -0.2716
     58  ND2       -7.4620  -14.0670    2.2610 N.am  122  ASN122     -0.0877
     59  N         -5.0690   -6.9360  -12.5490 N.3   277  ARG277     -0.1231
     60  CA        -5.9980   -7.6230  -11.7720 C.3   277  ARG277      0.1694
     61  C         -7.2430   -6.8100  -11.4070 C.2   277  ARG277      0.2592
     62  O         -8.3620   -7.3110  -11.2210 O.2   277  ARG277     -0.2718
     63  CB        -5.2150   -7.9920  -10.5010 C.3   277  ARG277      0.0321
     64  CG        -5.9280   -9.0620   -9.6930 C.3   277  ARG277      0.0489
     65  CD        -5.0490   -9.6840   -8.6050 C.3   277  ARG277      0.2205
     66  NE        -5.8860  -10.5950   -7.8340 N.pl3 277  ARG277     -0.0865
     67  CZ        -5.5020  -11.1900   -6.7150 C.cat 277  ARG277      0.5346
     68  NH1       -4.2870  -11.0250   -6.1900 N.pl3 277  ARG277      0.1354
     69  NH2       -6.3790  -11.9710   -6.1210 N.pl3 277  ARG277      0.1354
     70  N         -7.0450   -5.4990  -11.2160 N.am  278  TRP278     -0.1976
     71  CA        -8.0360   -4.5690  -10.7540 C.3   278  TRP278      0.1640
     72  C         -8.6160   -3.7260  -11.8930 C.2   278  TRP278      0.2290
     73  O         -9.3990   -2.7840  -11.6290 O.2   278  TRP278     -0.2864
     74  CB        -7.4710   -3.6460   -9.6730 C.3   278  TRP278      0.0576
     75  CG        -6.5560   -4.3750   -8.6840 C.ar  278  TRP278      0.0006
     76  CD1       -5.3090   -3.9350   -8.2980 C.ar  278  TRP278      0.0946
     77  CD2       -6.8560   -5.5050   -7.8580 C.ar  278  TRP278      0.0152
     78  NE1       -4.8060   -4.7560   -7.3450 N.ar  278  TRP278     -0.2442
     79  CE2       -5.7070   -5.7270   -7.0200 C.ar  278  TRP278      0.0810
     80  CE3       -7.9420   -6.3600   -7.7470 C.ar  278  TRP278      0.0012
     81  CZ2       -5.6580   -6.7650   -6.1160 C.ar  278  TRP278      0.0191
     82  CZ3       -7.8720   -7.4230   -6.7860 C.ar  278  TRP278      0.0001
     83  CH2       -6.7180   -7.6010   -5.9910 C.ar  278  TRP278      0.0015
     84  N        -12.2120   -9.0150  -10.9270 N.3   284  GLU284     -0.1245
     85  CA       -12.0120   -9.1830   -9.5000 C.3   284  GLU284      0.1567
     86  C        -12.4260   -7.9140   -8.7770 C.2   284  GLU284      0.2260
     87  O        -11.7450   -7.4490   -7.8480 O.2   284  GLU284     -0.2867
     88  CB       -10.5900   -9.5490   -9.1960 C.3   284  GLU284      0.0388
     89  CG       -10.1450  -10.9090   -9.7320 C.3   284  GLU284      0.1160
     90  CD        -8.7330  -11.2880   -9.2340 C.2   284  GLU284      0.3649
     91  OE1       -8.4670  -11.2840   -8.0630 O.co2 284  GLU284     -0.2457
     92  OE2       -7.7830  -11.1560  -10.0200 O.co2 284  GLU284     -0.2457
     93  N        -12.2640   -1.0940   -8.1380 N.3   287  TRP287     -0.1241
     94  CA       -11.4060   -0.5360   -7.0820 C.3   287  TRP287      0.1605
     95  C        -11.2680    0.9570   -7.1970 C.2   287  TRP287      0.2264
     96  O        -11.5320    1.7130   -6.2440 O.2   287  TRP287     -0.2867
     97  CB       -10.0390   -1.2620   -7.0420 C.3   287  TRP287      0.0550
     98  CG       -10.2510   -2.6870   -6.6410 C.ar  287  TRP287      0.0003
     99  CD1      -10.6170   -3.7320   -7.4400 C.ar  287  TRP287      0.0946
    100  CD2      -10.2450   -3.1710   -5.3030 C.ar  287  TRP287      0.0152
    101  NE1      -10.8630   -4.8520   -6.6640 N.ar  287  TRP287     -0.2442
    102  CE2      -10.6260   -4.5450   -5.3610 C.ar  287  TRP287      0.0810
    103  CE3       -9.9490   -2.5930   -4.0680 C.ar  287  TRP287      0.0012
    104  CZ2      -10.6950   -5.3450   -4.2020 C.ar  287  TRP287      0.0191
    105  CZ3      -10.0260   -3.4060   -2.8950 C.ar  287  TRP287      0.0001
    106  CH2      -10.4280   -4.7790   -3.0100 C.ar  287  TRP287      0.0015
@<TRIPOS>BOND
     1    59    60    1
     2    72    73    2
     3    72    71    1
     4    60    61    1
     5    60    63    1
     6    61    62    2
     7    61    70   am
     8    70    71    1
     9    84    85    1
    10    71    74    1
    11    63    64    1
    12    92    90   ar
    13    89    90    1
    14    89    88    1
    15    64    65    1
    16    74    75    1
    17    85    88    1
    18    85    86    1
    19    90    91   ar
    20    86    87    2
    21    75    76   ar
    22    75    77   ar
    23    65    66    1
    24    76    78   ar
    25    93    94    1
    26    77    80   ar
    27    77    79   ar
    28    66    67    2
    29    80    82   ar
    30    99   101   ar
    31    99    98   ar
    32    78    79   ar
    33    95    94    1
    34    95    96    2
    35    94    97    1
    36    97    98    1
    37    79    81   ar
    38    82    83   ar
    39    67    68    1
    40    67    69    1
    41   101   102   ar
    42    98   100   ar
    43    81    83   ar
    44   102   100   ar
    45   102   104   ar
    46   100   103   ar
    47   104   106   ar
    48   103   105   ar
    49    14    12   am
    50   106   105   ar
    51    27    25   ar
    52    10     9    2
    53    12    11    1
    54    12    13    2
    55    11     8    1
    56     8     9    1
    57     8     7    1
    58     9    15   am
    59    41    42    1
    60    41    38    1
    61    25    24    1
    62    25    26   ar
    63    40    39    2
    64    24    23    1
    65    16    15    1
    66    16    17    1
    67    42    43   ar
    68    42    44   ar
    69    38    39    1
    70    38    37    1
    71    43    45   ar
    72    39    51   am
    73     6     5    1
    74    18    17    2
    75    17    19   am
    76    44    47   ar
    77    44    46   ar
    78     5     2    1
    79    45    46   ar
    80    47    49   ar
    81    23    20    1
    82    57    56    2
    83    19    20    1
    84    46    48   ar
    85    51    52    1
    86    52    53    1
    87    52    55    1
    88    20    21    1
    89    49    50   ar
    90    53    54    2
    91    48    50   ar
    92     2     3    1
    93     2     1    1
    94     4     3    2
    95    56    55    1
    96    56    58   am
    97    36    34   ar
    98    21    22    2
    99    34    35   ar
   100    34    33    1
   101    33    32    1
   102    32    29    1
   103    31    30    2
   104    29    28    1
   105    29    30    1
