@<TRIPOS>MOLECULE
tmp/3vplA01.pdb
 94 96 0 0 0
SMALL
GASTEIGER

@<TRIPOS>ATOM
      1  N        -15.3370   -7.3970    5.8650 N.3   158  TYR158     -0.1241
      2  CA       -15.9510   -7.2340    4.5410 C.3   158  TYR158      0.1605
      3  C        -17.4600   -7.4820    4.7330 C.2   158  TYR158      0.2264
      4  O        -17.8850   -8.5210    5.2360 O.2   158  TYR158     -0.2867
      5  CB       -15.3550   -8.3630    3.6480 C.3   158  TYR158      0.0534
      6  CG       -15.8710   -8.3800    2.2390 C.ar  158  TYR158     -0.0201
      7  CD1      -15.8190   -7.2220    1.4220 C.ar  158  TYR158     -0.0009
      8  CD2      -16.4510   -9.5220    1.7230 C.ar  158  TYR158     -0.0009
      9  CE1      -16.3330   -7.2690    0.0950 C.ar  158  TYR158      0.0417
     10  CE2      -16.9550   -9.5940    0.3820 C.ar  158  TYR158      0.0417
     11  CZ       -16.8970   -8.4730   -0.3510 C.ar  158  TYR158      0.1957
     12  OH       -17.4640   -8.4950   -1.6570 O.3   158  TYR158     -0.2866
     13  N        -12.5490    2.8270   -1.8580 N.3   216  GLN216     -0.1245
     14  CA       -12.9240    1.8740   -2.8740 C.3   216  GLN216      0.1566
     15  C        -14.1440    2.3580   -3.6410 C.2   216  GLN216      0.2260
     16  O        -15.1220    2.7970   -3.0530 O.2   216  GLN216     -0.2867
     17  CB       -13.1450    0.5380   -2.2420 C.3   216  GLN216      0.0367
     18  CG       -13.2160   -0.5840   -3.2790 C.3   216  GLN216      0.0905
     19  CD       -13.6780   -1.8690   -2.6630 C.2   216  GLN216      0.2608
     20  OE1      -14.6160   -1.8780   -1.8330 O.2   216  GLN216     -0.2717
     21  NE2      -12.9770   -2.9710   -2.8590 N.am  216  GLN216     -0.0878
     22  N        -20.1560   -2.6290   -7.0400 N.3   229  PRO229     -0.2102
     23  CA       -18.8680   -3.1880   -6.6480 C.3   229  PRO229      0.1504
     24  C        -18.2520   -4.1160   -7.6280 C.2   229  PRO229      0.2575
     25  O        -17.0500   -4.4290   -7.5390 O.2   229  PRO229     -0.2718
     26  CB       -19.2150   -3.9830   -5.3420 C.3   229  PRO229      0.0282
     27  CG       -20.6710   -4.4840   -5.6500 C.3   229  PRO229      0.0208
     28  CD       -21.3120   -3.1760   -6.2620 C.3   229  PRO229      0.0893
     29  N        -19.0180   -4.6700   -8.5630 N.am  230  ALA230     -0.1980
     30  CA       -18.5270   -5.6330   -9.4750 C.3   230  ALA230      0.1597
     31  C        -17.8960   -4.9840  -10.6950 C.2   230  ALA230      0.2287
     32  O        -16.8550   -5.4130  -11.1320 O.2   230  ALA230     -0.2864
     33  CB       -19.6590   -6.5380   -9.9640 C.3   230  ALA230      0.0319
     34  N         -7.0450   -5.4990  -11.2160 N.3   278  TRP278     -0.1241
     35  CA        -8.0360   -4.5690  -10.7540 C.3   278  TRP278      0.1605
     36  C         -8.6160   -3.7260  -11.8930 C.2   278  TRP278      0.2264
     37  O         -9.3990   -2.7840  -11.6290 O.2   278  TRP278     -0.2867
     38  CB        -7.4710   -3.6460   -9.6730 C.3   278  TRP278      0.0550
     39  CG        -6.5560   -4.3750   -8.6840 C.ar  278  TRP278      0.0003
     40  CD1       -5.3090   -3.9350   -8.2980 C.ar  278  TRP278      0.0946
     41  CD2       -6.8560   -5.5050   -7.8580 C.ar  278  TRP278      0.0152
     42  NE1       -4.8060   -4.7560   -7.3450 N.ar  278  TRP278     -0.2442
     43  CE2       -5.7070   -5.7270   -7.0200 C.ar  278  TRP278      0.0810
     44  CE3       -7.9420   -6.3600   -7.7470 C.ar  278  TRP278      0.0012
     45  CZ2       -5.6580   -6.7650   -6.1160 C.ar  278  TRP278      0.0191
     46  CZ3       -7.8720   -7.4230   -6.7860 C.ar  278  TRP278      0.0001
     47  CH2       -6.7180   -7.6010   -5.9910 C.ar  278  TRP278      0.0015
     48  N        -12.6730   -8.2150  -13.5430 N.3   283  ASN283     -0.1225
     49  CA       -12.9050   -9.6210  -13.2060 C.3   283  ASN283      0.1785
     50  C        -12.8200   -9.8920  -11.7210 C.2   283  ASN283      0.2597
     51  O        -13.2950  -10.9840  -11.2920 O.2   283  ASN283     -0.2718
     52  CB       -11.8970  -10.4910  -13.9850 C.3   283  ASN283      0.1169
     53  CG       -12.2070  -10.4650  -15.4720 C.2   283  ASN283      0.2627
     54  OD1      -13.3780  -10.5800  -15.8580 O.2   283  ASN283     -0.2716
     55  ND2      -11.2050  -10.0880  -16.2800 N.am  283  ASN283     -0.0877
     56  N        -12.2120   -9.0150  -10.9270 N.am  284  GLU284     -0.1965
     57  CA       -12.0120   -9.1830   -9.5000 C.3   284  GLU284      0.1733
     58  C        -12.4260   -7.9140   -8.7770 C.2   284  GLU284      0.2617
     59  O        -11.7450   -7.4490   -7.8480 O.2   284  GLU284     -0.2715
     60  CB       -10.5900   -9.5490   -9.1960 C.3   284  GLU284      0.0429
     61  CG       -10.1450  -10.9090   -9.7320 C.3   284  GLU284      0.1163
     62  CD        -8.7330  -11.2880   -9.2340 C.2   284  GLU284      0.3649
     63  OE1       -8.4670  -11.2840   -8.0630 O.co2 284  GLU284     -0.2457
     64  OE2       -7.7830  -11.1560  -10.0200 O.co2 284  GLU284     -0.2457
     65  N        -13.5610   -7.3740   -9.1500 N.am  285  GLY285     -0.1940
     66  CA       -14.1450   -6.1960   -8.4830 C.3   285  GLY285      0.2014
     67  C        -13.6360   -4.8690   -9.0160 C.2   285  GLY285      0.2639
     68  O        -12.6290   -4.7860   -9.7120 O.2   285  GLY285     -0.2714
     69  N        -14.3740   -3.8450   -8.6450 N.am  286  TYR286     -0.1959
     70  CA       -14.0850   -2.4840   -8.9970 C.3   286  TYR286      0.1771
     71  C        -13.3750   -1.7610   -7.8410 C.2   286  TYR286      0.2619
     72  O        -13.8740   -1.7820   -6.7100 O.2   286  TYR286     -0.2715
     73  CB       -15.3860   -1.7600   -9.3990 C.3   286  TYR286      0.0574
     74  CG       -15.1320   -0.3380   -9.7890 C.ar  286  TYR286     -0.0198
     75  CD1      -14.2650    0.0030  -10.8290 C.ar  286  TYR286     -0.0009
     76  CD2      -15.7500    0.7120   -9.1030 C.ar  286  TYR286     -0.0009
     77  CE1      -14.0420    1.3250  -11.1800 C.ar  286  TYR286      0.0417
     78  CE2      -15.5440    2.0390   -9.4350 C.ar  286  TYR286      0.0417
     79  CZ       -14.6680    2.3310  -10.4610 C.ar  286  TYR286      0.1957
     80  OH       -14.4270    3.6180  -10.8860 O.3   286  TYR286     -0.2866
     81  N        -12.2640   -1.0940   -8.1380 N.am  287  TRP287     -0.1974
     82  CA       -11.4060   -0.5360   -7.0820 C.3   287  TRP287      0.1640
     83  C        -11.2680    0.9570   -7.1970 C.2   287  TRP287      0.2290
     84  O        -11.5320    1.7130   -6.2440 O.2   287  TRP287     -0.2864
     85  CB       -10.0390   -1.2620   -7.0420 C.3   287  TRP287      0.0576
     86  CG       -10.2510   -2.6870   -6.6410 C.ar  287  TRP287      0.0006
     87  CD1      -10.6170   -3.7320   -7.4400 C.ar  287  TRP287      0.0946
     88  CD2      -10.2450   -3.1710   -5.3030 C.ar  287  TRP287      0.0152
     89  NE1      -10.8630   -4.8520   -6.6640 N.ar  287  TRP287     -0.2442
     90  CE2      -10.6260   -4.5450   -5.3610 C.ar  287  TRP287      0.0810
     91  CE3       -9.9490   -2.5930   -4.0680 C.ar  287  TRP287      0.0012
     92  CZ2      -10.6950   -5.3450   -4.2020 C.ar  287  TRP287      0.0191
     93  CZ3      -10.0260   -3.4060   -2.8950 C.ar  287  TRP287      0.0001
     94  CH2      -10.4280   -4.7790   -3.0100 C.ar  287  TRP287      0.0015
@<TRIPOS>BOND
     1    55    53   am
     2    54    53    2
     3    53    52    1
     4    52    49    1
     5    48    49    1
     6    49    50    1
     7    36    37    2
     8    36    35    1
     9    50    51    2
    10    50    56   am
    11    34    35    1
    12    77    75   ar
    13    77    79   ar
    14    32    31    2
    15    56    57    1
    16    80    79    1
    17    75    74   ar
    18    35    38    1
    19    31    30    1
    20    79    78   ar
    21    64    62   ar
    22    33    30    1
    23    74    73    1
    24    74    76   ar
    25    61    62    1
    26    61    60    1
    27    68    67    2
    28    38    39    1
    29    57    60    1
    30    57    58    1
    31    30    29    1
    32    78    76   ar
    33    73    70    1
    34    62    63   ar
    35    65    58   am
    36    65    66    1
    37    67    69   am
    38    67    66    1
    39    70    69    1
    40    70    71    1
    41    58    59    2
    42    39    40   ar
    43    39    41   ar
    44    29    24   am
    45    40    42   ar
    46    81    71   am
    47    81    82    1
    48    41    44   ar
    49    41    43   ar
    50    71    72    2
    51    44    46   ar
    52    24    25    2
    53    24    23    1
    54    87    89   ar
    55    87    86   ar
    56    42    43   ar
    57    83    82    1
    58    83    84    2
    59    82    85    1
    60    85    86    1
    61    22    23    1
    62    22    28    1
    63    43    45   ar
    64    46    47   ar
    65    89    90   ar
    66    23    26    1
    67    86    88   ar
    68    28    27    1
    69    45    47   ar
    70    27    26    1
    71    90    88   ar
    72    90    92   ar
    73    88    91   ar
    74    92    94   ar
    75    91    93   ar
    76    15    16    2
    77    15    14    1
    78    18    19    1
    79    18    17    1
    80    94    93   ar
    81    14    17    1
    82    14    13    1
    83    21    19   am
    84    19    20    2
    85    12    11    1
    86    11     9   ar
    87    11    10   ar
    88     9     7   ar
    89    10     8   ar
    90     7     6   ar
    91     8     6   ar
    92     6     5    1
    93     5     2    1
    94     2     3    1
    95     2     1    1
    96     3     4    2
