@<TRIPOS>MOLECULE
tmp/3vplA00.pdb
 188 183 0 0 0
SMALL
GASTEIGER

@<TRIPOS>ATOM
      1  N          0.5840   -0.1980   -2.0530 N.3    17  GLN17      -0.1245
      2  CA         1.0160   -1.5430   -1.6290 C.3    17  GLN17       0.1566
      3  C          1.7870   -2.2410   -2.7170 C.2    17  GLN17       0.2260
      4  O          1.7630   -3.4960   -2.8290 O.2    17  GLN17      -0.2867
      5  CB        -0.1340   -2.3760   -1.0470 C.3    17  GLN17       0.0367
      6  CG        -1.1690   -2.7420   -2.0960 C.3    17  GLN17       0.0905
      7  CD        -2.4090   -3.4800   -1.5770 C.2    17  GLN17       0.2608
      8  OE1       -2.6170   -3.5980   -0.3530 O.2    17  GLN17      -0.2717
      9  NE2       -3.2190   -3.9220   -2.4750 N.am   17  GLN17      -0.0878
     10  N          3.7920   -7.2710   -0.6540 N.3    39  TYR39      -0.1227
     11  CA         3.2460   -8.6340   -0.4620 C.3    39  TYR39       0.1736
     12  C          4.2040   -9.6820   -0.9360 C.2    39  TYR39       0.2595
     13  O          4.9370   -9.4440   -1.9360 O.2    39  TYR39      -0.2718
     14  CB         1.9260   -8.7940   -1.2560 C.3    39  TYR39       0.0548
     15  CG         0.7840   -8.0050   -0.6240 C.ar   39  TYR39      -0.0200
     16  CD1       -0.1210   -8.6640    0.1690 C.ar   39  TYR39      -0.0009
     17  CD2        0.6580   -6.6250   -0.8210 C.ar   39  TYR39      -0.0009
     18  CE1       -1.2340   -7.9960    0.7220 C.ar   39  TYR39       0.0417
     19  CE2       -0.4280   -5.9590   -0.2350 C.ar   39  TYR39       0.0417
     20  CZ        -1.3440   -6.6400    0.5230 C.ar   39  TYR39       0.1957
     21  OH        -2.4650   -5.9770    1.0230 O.3    39  TYR39      -0.2866
     22  N          4.1780  -10.8140   -0.2810 N.am   40  VAL40      -0.1966
     23  CA         4.9030  -12.0170   -0.7650 C.3    40  VAL40       0.1727
     24  C          4.0620  -13.2110   -0.5450 C.2    40  VAL40       0.2616
     25  O          3.1730  -13.2350    0.3890 O.2    40  VAL40      -0.2715
     26  CB         6.1820  -12.1560    0.1030 C.3    40  VAL40       0.0290
     27  CG1        5.8750  -12.2820    1.6510 C.3    40  VAL40       0.0023
     28  CG2        7.1070  -13.2410   -0.3430 C.3    40  VAL40       0.0023
     29  N          4.2400  -14.2270   -1.3700 N.am   41  GLY41      -0.1955
     30  CA         3.5750  -15.5120   -1.1630 C.3    41  GLY41       0.1869
     31  C          4.4230  -16.5180   -0.4740 C.2    41  GLY41       0.2309
     32  O          5.6470  -16.5840   -0.7860 O.2    41  GLY41      -0.2863
     33  N          7.6670  -15.3720   -3.7150 N.3    46  ASP46      -0.1239
     34  CA         7.5810  -14.4010   -4.7810 C.3    46  ASP46       0.1674
     35  C          7.4540  -13.0170   -4.2320 C.2    46  ASP46       0.2266
     36  O          6.5650  -12.7630   -3.3630 O.2    46  ASP46      -0.2867
     37  CB         6.4050  -14.7300   -5.6820 C.3    46  ASP46       0.1410
     38  CG         5.1040  -14.8970   -4.9400 C.2    46  ASP46       0.3668
     39  OD1        5.0140  -15.6440   -4.0110 O.co2  46  ASP46      -0.2456
     40  OD2        4.0990  -14.2110   -5.3710 O.co2  46  ASP46      -0.2456
     41  N          2.1130   -9.5850  -10.6140 N.3    54  ALA54      -0.1245
     42  CA         1.0230  -10.4260  -11.0480 C.3    54  ALA54       0.1562
     43  C         -0.2730   -9.5540  -11.0850 C.2    54  ALA54       0.2260
     44  O         -1.3290  -10.0390  -10.6520 O.2    54  ALA54      -0.2867
     45  CB         0.9110  -11.6190  -10.0880 C.3    54  ALA54       0.0290
     46  N         -1.1590   -6.7170   -9.6120 N.3    56  ALA56      -0.1245
     47  CA        -1.5460   -5.9090   -8.4600 C.3    56  ALA56       0.1562
     48  C         -0.4230   -4.9610   -8.0780 C.2    56  ALA56       0.2260
     49  O         -0.3350   -4.5290   -6.9130 O.2    56  ALA56      -0.2867
     50  CB        -1.9550   -6.7940   -7.3150 C.3    56  ALA56       0.0290
     51  N          5.9680   -6.1040   -6.6530 N.3    59  ASN59      -0.1240
     52  CA         6.4620   -6.3560   -5.3320 C.3    59  ASN59       0.1653
     53  C          7.9300   -6.7310   -5.3800 C.2    59  ASN59       0.2266
     54  O          8.3100   -7.5940   -6.2220 O.2    59  ASN59      -0.2867
     55  CB         5.6740   -7.4500   -4.6050 C.3    59  ASN59       0.1155
     56  CG         4.2630   -6.9500   -4.3050 C.2    59  ASN59       0.2627
     57  OD1        4.0340   -6.2900   -3.2770 O.2    59  ASN59      -0.2716
     58  ND2        3.3460   -7.2200   -5.1870 N.am   59  ASN59      -0.0877
     59  N          0.8240  -14.0880    1.7860 N.3    78  SER78      -0.1217
     60  CA        -0.2850  -14.9170    1.3040 C.3    78  SER78       0.1889
     61  C          0.0380  -16.3740    1.5310 C.2    78  SER78       0.2288
     62  O          1.1960  -16.8290    1.3160 O.2    78  SER78      -0.2866
     63  CB        -0.5000  -14.6720   -0.1720 C.3    78  SER78       0.2089
     64  OG        -1.4890  -15.5870   -0.6540 O.3    78  SER78      -0.2183
     65  N         -1.3560  -18.4470   -0.4950 N.3    80  ASN80      -0.1240
     66  CA        -1.4680  -19.0160   -1.8690 C.3    80  ASN80       0.1653
     67  C         -2.4180  -20.1890   -1.8650 C.2    80  ASN80       0.2266
     68  O         -2.2410  -21.1270   -2.6900 O.2    80  ASN80      -0.2867
     69  CB        -0.0980  -19.4100   -2.4360 C.3    80  ASN80       0.1155
     70  CG         0.8280  -18.2670   -2.4720 C.2    80  ASN80       0.2627
     71  OD1        1.9350  -18.3010   -1.8800 O.2    80  ASN80      -0.2716
     72  ND2        0.4890  -17.2100   -3.1950 N.am   80  ASN80      -0.0877
     73  N         -2.9990  -12.7470    5.6210 N.3   115  TYR115     -0.1227
     74  CA        -3.8470  -11.5620    5.7570 C.3   115  TYR115      0.1736
     75  C         -5.2520  -11.8010    5.2060 C.2   115  TYR115      0.2595
     76  O         -5.4630  -12.5260    4.2210 O.2   115  TYR115     -0.2718
     77  CB        -3.1980  -10.3670    5.0040 C.3   115  TYR115      0.0548
     78  CG        -2.9210  -10.5790    3.5640 C.ar  115  TYR115     -0.0200
     79  CD1       -1.6810  -11.1290    3.1880 C.ar  115  TYR115     -0.0009
     80  CD2       -3.8510  -10.2920    2.5760 C.ar  115  TYR115     -0.0009
     81  CE1       -1.3810  -11.4170    1.8780 C.ar  115  TYR115      0.0417
     82  CE2       -3.5840  -10.6080    1.2310 C.ar  115  TYR115      0.0417
     83  CZ        -2.3540  -11.1530    0.8990 C.ar  115  TYR115      0.1957
     84  OH        -2.0260  -11.4770   -0.3910 O.3   115  TYR115     -0.2866
     85  N         -6.2070  -11.1520    5.8670 N.am  116  GLU116     -0.1979
     86  CA        -7.6370  -11.4000    5.5950 C.3   116  GLU116      0.1602
     87  C         -7.9730  -12.8520    5.9300 C.2   116  GLU116      0.2287
     88  O         -8.4160  -13.6640    5.1110 O.2   116  GLU116     -0.2864
     89  CB        -8.0730  -10.9640    4.2170 C.3   116  GLU116      0.0415
     90  CG        -7.9290   -9.4350    4.0880 C.3   116  GLU116      0.1163
     91  CD        -8.6300   -8.8210    2.9210 C.2   116  GLU116      0.3649
     92  OE1       -9.2360   -7.7040    3.0290 O.co2 116  GLU116     -0.2457
     93  OE2       -8.6050   -9.4300    1.7870 O.co2 116  GLU116     -0.2457
     94  N        -12.4470  -16.4230    0.2680 N.3   121  TRP121     -0.1241
     95  CA       -11.7380  -16.5650   -0.9610 C.3   121  TRP121      0.1605
     96  C        -10.3010  -17.0180   -0.7530 C.2   121  TRP121      0.2264
     97  O         -9.6860  -17.5440   -1.6910 O.2   121  TRP121     -0.2867
     98  CB       -11.7590  -15.2920   -1.7790 C.3   121  TRP121      0.0550
     99  CG       -11.2590  -14.1060   -1.0190 C.ar  121  TRP121      0.0003
    100  CD1       -9.9190  -13.6960   -0.9070 C.ar  121  TRP121      0.0946
    101  CD2      -12.0040  -13.2070   -0.1930 C.ar  121  TRP121      0.0152
    102  NE1       -9.8340  -12.6090   -0.0600 N.ar  121  TRP121     -0.2442
    103  CE2      -11.0670  -12.2570    0.4170 C.ar  121  TRP121      0.0810
    104  CE3      -13.4140  -13.0850    0.0940 C.ar  121  TRP121      0.0012
    105  CZ2      -11.4990  -11.2650    1.2740 C.ar  121  TRP121      0.0191
    106  CZ3      -13.7800  -12.0640    0.9610 C.ar  121  TRP121      0.0001
    107  CH2      -12.8060  -11.1630    1.5110 C.ar  121  TRP121      0.0015
    108  N        -12.4560   -0.3310    3.3780 N.3   184  PHE184     -0.1241
    109  CA       -12.6850   -0.0620    1.9260 C.3   184  PHE184      0.1605
    110  C        -14.0810    0.6050    1.7440 C.2   184  PHE184      0.2264
    111  O        -14.1490    1.8080    1.4630 O.2   184  PHE184     -0.2867
    112  CB       -12.5950   -1.2870    1.0840 C.3   184  PHE184      0.0534
    113  CG       -11.1700   -1.8150    0.9490 C.ar  184  PHE184     -0.0203
    114  CD1      -10.2050   -1.0190    0.4390 C.ar  184  PHE184     -0.0042
    115  CD2      -10.8370   -3.1030    1.2950 C.ar  184  PHE184     -0.0042
    116  CE1       -8.8880   -1.4860    0.2750 C.ar  184  PHE184     -0.0003
    117  CE2       -9.4760   -3.5550    1.1110 C.ar  184  PHE184     -0.0003
    118  CZ        -8.5640   -2.7510    0.6090 C.ar  184  PHE184     -0.0000
    119  N         -5.2950   -2.4760    5.2880 N.3   212  GLU212     -0.1245
    120  CA        -5.6520   -2.1890    3.8920 C.3   212  GLU212      0.1567
    121  C         -6.6750   -1.0790    3.9450 C.2   212  GLU212      0.2260
    122  O         -7.6920   -1.2510    4.6460 O.2   212  GLU212     -0.2867
    123  CB        -6.2170   -3.4150    3.1790 C.3   212  GLU212      0.0388
    124  CG        -5.1710   -4.5020    2.9870 C.3   212  GLU212      0.1160
    125  CD        -5.7990   -5.7150    2.4440 C.2   212  GLU212      0.3649
    126  OE1       -6.1820   -5.6080    1.1700 O.co2 212  GLU212     -0.2457
    127  OE2       -6.0080   -6.7570    3.0820 O.co2 212  GLU212     -0.2457
    128  N         -3.5070    2.6120    0.8820 N.3   268  ILE268     -0.1245
    129  CA        -3.1050    2.1200   -0.4300 C.3   268  ILE268      0.1561
    130  C         -3.3540    3.2280   -1.4190 C.2   268  ILE268      0.2260
    131  O         -4.5040    3.6470   -1.5980 O.2   268  ILE268     -0.2867
    132  CB        -3.8670    0.8640   -0.8200 C.3   268  ILE268      0.0252
    133  CG1       -3.7020   -0.2560    0.2040 C.3   268  ILE268      0.0019
    134  CG2       -3.4100    0.4220   -2.2300 C.3   268  ILE268      0.0019
    135  CD1       -4.8030   -1.3040    0.1000 C.3   268  ILE268      0.0001
    136  N         -5.4820    1.8900   -9.1840 N.3   272  TRP272     -0.1241
    137  CA        -5.8470    0.4920   -9.2430 C.3   272  TRP272      0.1605
    138  C         -6.2290    0.1030  -10.6470 C.2   272  TRP272      0.2264
    139  O         -5.9650   -0.9970  -11.1080 O.2   272  TRP272     -0.2867
    140  CB        -7.0310    0.1880   -8.2740 C.3   272  TRP272      0.0550
    141  CG        -6.8250    0.4710   -6.8480 C.ar  272  TRP272      0.0003
    142  CD1       -6.8610    1.6700   -6.1720 C.ar  272  TRP272      0.0946
    143  CD2       -6.6680   -0.5180   -5.8280 C.ar  272  TRP272      0.0152
    144  NE1       -6.7100    1.4910   -4.8300 N.ar  272  TRP272     -0.2442
    145  CE2       -6.5530    0.1440   -4.5670 C.ar  272  TRP272      0.0810
    146  CE3       -6.5710   -1.9200   -5.8540 C.ar  272  TRP272      0.0012
    147  CZ2       -6.4460   -0.5330   -3.3770 C.ar  272  TRP272      0.0191
    148  CZ3       -6.4920   -2.5880   -4.6650 C.ar  272  TRP272      0.0001
    149  CH2       -6.3820   -1.9180   -3.4310 C.ar  272  TRP272      0.0015
    150  N         -5.0690   -6.9360  -12.5490 N.3   277  ARG277     -0.1231
    151  CA        -5.9980   -7.6230  -11.7720 C.3   277  ARG277      0.1694
    152  C         -7.2430   -6.8100  -11.4070 C.2   277  ARG277      0.2592
    153  O         -8.3620   -7.3110  -11.2210 O.2   277  ARG277     -0.2718
    154  CB        -5.2150   -7.9920  -10.5010 C.3   277  ARG277      0.0321
    155  CG        -5.9280   -9.0620   -9.6930 C.3   277  ARG277      0.0489
    156  CD        -5.0490   -9.6840   -8.6050 C.3   277  ARG277      0.2205
    157  NE        -5.8860  -10.5950   -7.8340 N.pl3 277  ARG277     -0.0865
    158  CZ        -5.5020  -11.1900   -6.7150 C.cat 277  ARG277      0.5346
    159  NH1       -4.2870  -11.0250   -6.1900 N.pl3 277  ARG277      0.1354
    160  NH2       -6.3790  -11.9710   -6.1210 N.pl3 277  ARG277      0.1354
    161  N         -7.0450   -5.4990  -11.2160 N.am  278  TRP278     -0.1976
    162  CA        -8.0360   -4.5690  -10.7540 C.3   278  TRP278      0.1640
    163  C         -8.6160   -3.7260  -11.8930 C.2   278  TRP278      0.2290
    164  O         -9.3990   -2.7840  -11.6290 O.2   278  TRP278     -0.2864
    165  CB        -7.4710   -3.6460   -9.6730 C.3   278  TRP278      0.0576
    166  CG        -6.5560   -4.3750   -8.6840 C.ar  278  TRP278      0.0006
    167  CD1       -5.3090   -3.9350   -8.2980 C.ar  278  TRP278      0.0946
    168  CD2       -6.8560   -5.5050   -7.8580 C.ar  278  TRP278      0.0152
    169  NE1       -4.8060   -4.7560   -7.3450 N.ar  278  TRP278     -0.2442
    170  CE2       -5.7070   -5.7270   -7.0200 C.ar  278  TRP278      0.0810
    171  CE3       -7.9420   -6.3600   -7.7470 C.ar  278  TRP278      0.0012
    172  CZ2       -5.6580   -6.7650   -6.1160 C.ar  278  TRP278      0.0191
    173  CZ3       -7.8720   -7.4230   -6.7860 C.ar  278  TRP278      0.0001
    174  CH2       -6.7180   -7.6010   -5.9910 C.ar  278  TRP278      0.0015
    175  N        -12.2640   -1.0940   -8.1380 N.3   287  TRP287     -0.1241
    176  CA       -11.4060   -0.5360   -7.0820 C.3   287  TRP287      0.1605
    177  C        -11.2680    0.9570   -7.1970 C.2   287  TRP287      0.2264
    178  O        -11.5320    1.7130   -6.2440 O.2   287  TRP287     -0.2867
    179  CB       -10.0390   -1.2620   -7.0420 C.3   287  TRP287      0.0550
    180  CG       -10.2510   -2.6870   -6.6410 C.ar  287  TRP287      0.0003
    181  CD1      -10.6170   -3.7320   -7.4400 C.ar  287  TRP287      0.0946
    182  CD2      -10.2450   -3.1710   -5.3030 C.ar  287  TRP287      0.0152
    183  NE1      -10.8630   -4.8520   -6.6640 N.ar  287  TRP287     -0.2442
    184  CE2      -10.6260   -4.5450   -5.3610 C.ar  287  TRP287      0.0810
    185  CE3       -9.9490   -2.5930   -4.0680 C.ar  287  TRP287      0.0012
    186  CZ2      -10.6950   -5.3450   -4.2020 C.ar  287  TRP287      0.0191
    187  CZ3      -10.0260   -3.4060   -2.8950 C.ar  287  TRP287      0.0001
    188  CH2      -10.4280   -4.7790   -3.0100 C.ar  287  TRP287      0.0015
@<TRIPOS>BOND
     1   150   151    1
     2   163   164    2
     3   163   162    1
     4   151   152    1
     5   151   154    1
     6   152   153    2
     7   152   161   am
     8   161   162    1
     9   139   138    2
    10    43    42    1
    11    43    44    2
    12    42    41    1
    13    42    45    1
    14   162   165    1
    15   138   137    1
    16   154   155    1
    17   155   156    1
    18   165   166    1
    19    46    47    1
    20   137   136    1
    21   137   140    1
    22   166   167   ar
    23   166   168   ar
    24   156   157    1
    25    47    48    1
    26    47    50    1
    27   167   169   ar
    28   140   141    1
    29   175   176    1
    30    48    49    2
    31   168   171   ar
    32   168   170   ar
    33   157   158    2
    34   171   173   ar
    35   181   183   ar
    36   181   180   ar
    37   169   170   ar
    38   177   176    1
    39   177   178    2
    40   176   179    1
    41   179   180    1
    42   170   172   ar
    43   141   142   ar
    44   141   143   ar
    45   173   174   ar
    46   158   159    1
    47   158   160    1
    48   183   184   ar
    49    51    52    1
    50   180   182   ar
    51    54    53    2
    52   142   144   ar
    53   172   174   ar
    54   146   143   ar
    55   146   148   ar
    56   143   145   ar
    57    37    38    1
    58    37    34    1
    59    53    52    1
    60    40    38   ar
    61   184   182   ar
    62   184   186   ar
    63    52    55    1
    64   182   185   ar
    65    58    56   am
    66    38    39   ar
    67   144   145   ar
    68    34    35    1
    69    34    33    1
    70   148   149   ar
    71    55    56    1
    72   145   147   ar
    73    56    57    2
    74    35    36    2
    75   186   188   ar
    76   185   187   ar
    77   149   147   ar
    78    72    70   am
    79   188   187   ar
    80     4     3    2
    81     3     2    1
    82    68    67    2
    83     9     7   am
    84    70    69    1
    85    70    71    2
    86    69    66    1
    87   134   132    1
    88     6     7    1
    89     6     5    1
    90     1     2    1
    91    13    12    2
    92    66    67    1
    93    66    65    1
    94    98    99    1
    95    98    95    1
    96    97    96    2
    97     2     5    1
    98   131   130    2
    99     7     8    2
   100   130   129    1
   101    29    30    1
   102    29    24   am
   103    14    15    1
   104    14    11    1
   105    30    31    1
   106    99   100   ar
   107    99   101   ar
   108    95    96    1
   109    95    94    1
   110    12    11    1
   111    12    22   am
   112   100   102   ar
   113    17    15   ar
   114    17    19   ar
   115   132   129    1
   116   132   133    1
   117    32    31    2
   118    23    24    1
   119    23    22    1
   120    23    26    1
   121    64    63    1
   122    10    11    1
   123    15    16   ar
   124    24    25    2
   125   129   128    1
   126    84    83    1
   127    28    26    1
   128    19    20   ar
   129   101   104   ar
   130   101   103   ar
   131    63    60    1
   132   102   103   ar
   133   104   106   ar
   134   135   133    1
   135    26    27    1
   136    16    18   ar
   137   116   114   ar
   138   116   118   ar
   139   103   105   ar
   140   114   113   ar
   141    20    18   ar
   142    20    21    1
   143   118   117   ar
   144    83    82   ar
   145    83    81   ar
   146   113   112    1
   147   113   115   ar
   148   106   107   ar
   149   112   109    1
   150   117   115   ar
   151   126   125   ar
   152    82    80   ar
   153   105   107   ar
   154    60    61    1
   155    60    59    1
   156    62    61    2
   157   111   110    2
   158   110   109    1
   159    93    91   ar
   160    81    79   ar
   161   109   108    1
   162   125   124    1
   163   125   127   ar
   164    80    78   ar
   165    91    92   ar
   166    91    90    1
   167   124   123    1
   168   123   120    1
   169    79    78   ar
   170    78    77    1
   171   120   121    1
   172   120   119    1
   173   121   122    2
   174    90    89    1
   175    89    86    1
   176    76    75    2
   177    77    74    1
   178    88    87    2
   179    75    74    1
   180    75    85   am
   181    86    85    1
   182    86    87    1
   183    73    74    1
