@<TRIPOS>MOLECULE
tmp/3vpsA00.pdb
 241 233 0 0 0
SMALL
GASTEIGER

@<TRIPOS>ATOM
      1  N        -23.3720   -1.7700    5.4410 N.3    74  LYS74      -0.1231
      2  CA       -22.1200   -1.9100    4.6590 C.3    74  LYS74       0.1693
      3  C        -21.1260   -0.7400    4.7760 C.2    74  LYS74       0.2593
      4  O        -20.1240   -0.7230    4.0460 O.2    74  LYS74      -0.2718
      5  CB       -22.3660   -2.2640    3.1510 C.3    74  LYS74       0.0285
      6  CG       -23.1150   -1.2210    2.3670 C.3    74  LYS74       0.0035
      7  CD       -22.5690   -1.0340    0.9400 C.3    74  LYS74       0.0206
      8  CE       -23.2200    0.2110    0.2590 C.3    74  LYS74       0.1093
      9  NZ       -22.7450    0.3690   -1.2020 N.3    74  LYS74      -0.1314
     10  N        -21.3870    0.1990    5.6910 N.am   75  SER75      -0.1938
     11  CA       -20.5590    1.4260    5.7670 C.3    75  SER75       0.2055
     12  C        -19.3990    1.3160    6.7680 C.2    75  SER75       0.2643
     13  O        -19.6060    1.2030    7.9960 O.2    75  SER75      -0.2714
     14  CB       -21.4070    2.6520    6.1330 C.3    75  SER75       0.2130
     15  OG       -20.5600    3.7280    6.5510 O.3    75  SER75      -0.2179
     16  N        -18.1760    1.3910    6.2430 N.am   76  VAL76      -0.1963
     17  CA       -17.0240    1.2520    7.0900 C.3    76  VAL76       0.1712
     18  C        -17.0540    2.3980    8.1240 C.2    76  VAL76       0.2458
     19  O        -17.0590    2.1080    9.3310 O.2    76  VAL76      -0.2730
     20  CB       -15.7150    1.1990    6.2740 C.3    76  VAL76       0.0289
     21  CG1      -14.4920    1.1910    7.2100 C.3    76  VAL76       0.0023
     22  CG2      -15.7250    0.0160    5.3180 C.3    76  VAL76       0.0023
     23  N        -17.0770    3.6890    7.6550 N.am   77  PRO77      -0.2727
     24  CA       -16.8990    4.7990    8.6370 C.3    77  PRO77       0.1402
     25  C        -18.0460    4.8260    9.6590 C.2    77  PRO77       0.2269
     26  O        -17.8230    5.0850   10.8580 O.2    77  PRO77      -0.2865
     27  CB       -16.9060    6.0900    7.7670 C.3    77  PRO77       0.0296
     28  CG       -17.4920    5.6600    6.4080 C.3    77  PRO77       0.0237
     29  CD       -17.1400    4.1860    6.2570 C.3    77  PRO77       0.0939
     30  N        -16.4290   -9.2440    2.0140 N.3   113  THR113     -0.1203
     31  CA       -15.7660   -8.0340    1.5360 C.3   113  THR113      0.1994
     32  C        -14.2620   -8.1760    1.7260 C.2   113  THR113      0.2618
     33  O        -13.8090   -8.8400    2.6710 O.2   113  THR113     -0.2717
     34  CB       -16.2630   -6.8020    2.3460 C.3   113  THR113      0.1784
     35  OG1      -15.4160   -5.6770    2.0560 O.3   113  THR113     -0.2211
     36  CG2      -16.1980   -7.1020    3.8440 C.3   113  THR113      0.0376
     37  N        -13.5110   -7.4780    0.8930 N.am  114  CYS114     -0.1955
     38  CA       -12.0420   -7.3670    1.0840 C.3   114  CYS114      0.1843
     39  C        -11.6970   -6.7400    2.4260 C.2   114  CYS114      0.2625
     40  O        -10.6000   -6.9050    2.8810 O.2   114  CYS114     -0.2714
     41  CB       -11.4220   -6.5980   -0.0760 C.3   114  CYS114      0.0997
     42  SG       -11.9990   -4.9070   -0.2730 S.3   114  CYS114     -0.0797
     43  N        -12.6470   -6.0540    3.0830 N.am  115  GLU115     -0.1977
     44  CA       -12.3140   -5.3460    4.3280 C.3   115  GLU115      0.1602
     45  C        -11.8820   -6.3510    5.4030 C.2   115  GLU115      0.2287
     46  O        -11.2330   -5.9790    6.3840 O.2   115  GLU115     -0.2864
     47  CB       -13.4610   -4.4340    4.9090 C.3   115  GLU115      0.0415
     48  CG       -13.8830   -3.3440    3.9480 C.3   115  GLU115      0.1163
     49  CD       -13.0670   -2.1290    3.9930 C.2   115  GLU115      0.3649
     50  OE1      -12.4840   -1.7890    5.0590 O.co2 115  GLU115     -0.2457
     51  OE2      -13.0410   -1.4530    2.9180 O.co2 115  GLU115     -0.2457
     52  N        -17.5560   -2.6750   11.1240 N.3   137  TYR137     -0.1241
     53  CA       -18.1830   -3.2900    9.9570 C.3   137  TYR137      0.1605
     54  C        -17.3710   -4.5180    9.4860 C.2   137  TYR137      0.2264
     55  O        -17.9250   -5.5670    9.2410 O.2   137  TYR137     -0.2867
     56  CB       -18.4090   -2.2720    8.7820 C.3   137  TYR137      0.0534
     57  CG       -18.5600   -2.9380    7.3990 C.ar  137  TYR137     -0.0201
     58  CD1      -19.7420   -3.6120    7.0250 C.ar  137  TYR137     -0.0009
     59  CD2      -17.5070   -2.9110    6.4950 C.ar  137  TYR137     -0.0009
     60  CE1      -19.8650   -4.2600    5.7150 C.ar  137  TYR137      0.0417
     61  CE2      -17.5800   -3.5490    5.2470 C.ar  137  TYR137      0.0417
     62  CZ       -18.7770   -4.2230    4.8640 C.ar  137  TYR137      0.1957
     63  OH       -18.7910   -4.8340    3.6300 O.3   137  TYR137     -0.2866
     64  N        -16.1730   -9.3170   -2.0730 N.3   165  PHE165     -0.1227
     65  CA       -16.2180   -8.2660   -3.0460 C.3   165  PHE165      0.1736
     66  C        -15.1520   -7.2220   -2.7460 C.2   165  PHE165      0.2595
     67  O        -14.9730   -6.8530   -1.5860 O.2   165  PHE165     -0.2718
     68  CB       -17.5700   -7.5510   -3.0240 C.3   165  PHE165      0.0547
     69  CG       -18.6910   -8.3680   -3.4440 C.ar  165  PHE165     -0.0202
     70  CD1      -18.8970   -8.6670   -4.8030 C.ar  165  PHE165     -0.0042
     71  CD2      -19.5960   -8.8620   -2.4910 C.ar  165  PHE165     -0.0042
     72  CE1      -19.9870   -9.4100   -5.2080 C.ar  165  PHE165     -0.0003
     73  CE2      -20.6790   -9.6280   -2.8900 C.ar  165  PHE165     -0.0003
     74  CZ       -20.9020   -9.9060   -4.2210 C.ar  165  PHE165     -0.0000
     75  N        -14.4670   -6.7390   -3.7760 N.am  166  PHE166     -0.1962
     76  CA       -13.6380   -5.5590   -3.6430 C.3   166  PHE166      0.1771
     77  C        -14.5390   -4.3950   -4.0290 C.2   166  PHE166      0.2620
     78  O        -15.7690   -4.5590   -3.9760 O.2   166  PHE166     -0.2715
     79  CB       -12.2980   -5.6680   -4.4090 C.3   166  PHE166      0.0574
     80  CG       -11.3270   -6.6300   -3.7680 C.ar  166  PHE166     -0.0200
     81  CD1      -10.1350   -6.1620   -3.2370 C.ar  166  PHE166     -0.0042
     82  CD2      -11.6440   -8.0330   -3.6430 C.ar  166  PHE166     -0.0042
     83  CE1       -9.2100   -7.0190   -2.6010 C.ar  166  PHE166     -0.0003
     84  CE2      -10.7470   -8.8960   -3.0150 C.ar  166  PHE166     -0.0003
     85  CZ        -9.5030   -8.3930   -2.5070 C.ar  166  PHE166     -0.0000
     86  N        -14.0480   -3.2020   -4.2670 N.am  167  ASN167     -0.1958
     87  CA       -14.9410   -2.0700   -4.4460 C.3   167  ASN167      0.1819
     88  C        -15.7810   -2.1900   -5.7190 C.2   167  ASN167      0.2621
     89  O        -15.2230   -2.1380   -6.8210 O.2   167  ASN167     -0.2715
     90  CB       -14.1530   -0.7520   -4.4930 C.3   167  ASN167      0.1195
     91  CG       -13.6910   -0.3160   -3.1140 C.2   167  ASN167      0.2630
     92  OD1      -14.1010    0.7480   -2.5970 O.2   167  ASN167     -0.2716
     93  ND2      -12.8910   -1.1150   -2.4970 N.am  167  ASN167     -0.0877
     94  N        -17.0890   -2.2790   -5.5810 N.am  168  VAL168     -0.1977
     95  CA       -17.9960   -2.4180   -6.7540 C.3   168  VAL168      0.1596
     96  C        -18.5960   -1.0150   -6.9860 C.2   168  VAL168      0.2287
     97  O        -18.9410   -0.3620   -6.0100 O.2   168  VAL168     -0.2864
     98  CB       -19.1450   -3.4610   -6.4630 C.3   168  VAL168      0.0276
     99  CG1      -20.0460   -3.7560   -7.7680 C.3   168  VAL168      0.0022
    100  CG2      -18.4930   -4.7030   -5.9530 C.3   168  VAL168      0.0022
    101  N        -25.7740    2.8180   -7.2890 N.3   173  GLU173     -0.1245
    102  CA       -25.1300    2.7410   -6.0300 C.3   173  GLU173      0.1567
    103  C        -25.3410    4.1090   -5.2830 C.2   173  GLU173      0.2260
    104  O        -25.1190    5.1840   -5.8610 O.2   173  GLU173     -0.2867
    105  CB       -23.6190    2.4170   -6.2020 C.3   173  GLU173      0.0388
    106  CG       -22.9250    2.2370   -4.8410 C.3   173  GLU173      0.1160
    107  CD       -21.4450    1.8820   -4.9200 C.2   173  GLU173      0.3649
    108  OE1      -20.7050    2.5010   -5.7500 O.co2 173  GLU173     -0.2457
    109  OE2      -21.0330    0.9660   -4.1270 O.co2 173  GLU173     -0.2457
    110  N        -22.8270    7.2010   -0.7960 N.3   176  ASP176     -0.1225
    111  CA       -21.8970    7.2580    0.3460 C.3   176  ASP176      0.1805
    112  C        -20.5290    6.6370   -0.0450 C.2   176  ASP176      0.2598
    113  O        -19.4780    7.0130    0.5290 O.2   176  ASP176     -0.2718
    114  CB       -22.4910    6.6600    1.6400 C.3   176  ASP176      0.1424
    115  CG       -22.8050    5.1480    1.5160 C.2   176  ASP176      0.3668
    116  OD1      -23.1020    4.6770    0.3990 O.co2 176  ASP176     -0.2456
    117  OD2      -22.7730    4.4300    2.5480 O.co2 176  ASP176     -0.2456
    118  N        -20.5390    5.8480   -1.1090 N.am  177  ALA177     -0.1966
    119  CA       -19.3360    5.2760   -1.7120 C.3   177  ALA177      0.1728
    120  C        -18.6450    6.2570   -2.6530 C.2   177  ALA177      0.2616
    121  O        -19.3210    7.0360   -3.2920 O.2   177  ALA177     -0.2715
    122  CB       -19.7120    3.9970   -2.5660 C.3   177  ALA177      0.0334
    123  N        -17.3520    6.0820   -2.8480 N.am  178  LEU178     -0.1977
    124  CA       -16.5050    7.0280   -3.5820 C.3   178  LEU178      0.1596
    125  C        -17.0520    7.4800   -4.9490 C.2   178  LEU178      0.2287
    126  O        -17.3000    8.6680   -5.1790 O.2   178  LEU178     -0.2864
    127  CB       -15.0970    6.4400   -3.7910 C.3   178  LEU178      0.0297
    128  CG       -14.1130    7.3660   -4.5400 C.3   178  LEU178      0.0022
    129  CD1      -13.7130    8.5580   -3.6740 C.3   178  LEU178      0.0001
    130  CD2      -12.8740    6.5910   -5.0360 C.3   178  LEU178      0.0001
    131  N        -20.3340    9.2010   -4.7670 N.3   181  ARG181     -0.1231
    132  CA       -20.1960   10.4160   -3.9470 C.3   181  ARG181      0.1694
    133  C        -19.5930   11.5020   -4.7860 C.2   181  ARG181      0.2591
    134  O        -20.1340   12.6000   -4.8190 O.2   181  ARG181     -0.2718
    135  CB       -19.4220   10.1870   -2.6550 C.3   181  ARG181      0.0321
    136  CG       -19.6110   11.3540   -1.6780 C.3   181  ARG181      0.0489
    137  CD       -19.4810   10.9570   -0.2230 C.3   181  ARG181      0.2205
    138  NE       -19.3720   12.1690    0.6020 N.pl3 181  ARG181     -0.0865
    139  CZ       -18.3390   12.4560    1.3540 C.cat 181  ARG181      0.5346
    140  NH1      -17.4330   11.5860    1.3750 N.pl3 181  ARG181      0.1354
    141  NH2      -18.1910   13.5480    2.1020 N.pl3 181  ARG181      0.1354
    142  N        -18.5230   11.1740   -5.5060 N.am  182  LEU182     -0.1980
    143  CA       -17.8420   12.1330   -6.3680 C.3   182  LEU182      0.1596
    144  C        -18.7760   12.6570   -7.4430 C.2   182  LEU182      0.2287
    145  O        -18.8430   13.8650   -7.6750 O.2   182  LEU182     -0.2864
    146  CB       -16.6300   11.4870   -7.0190 C.3   182  LEU182      0.0297
    147  CG       -15.4820   11.1430   -6.0620 C.3   182  LEU182      0.0022
    148  CD1      -14.2460   10.7530   -6.8260 C.3   182  LEU182      0.0001
    149  CD2      -15.1870   12.2750   -5.1030 C.3   182  LEU182      0.0001
    150  N        -14.7210   15.7100   -3.1240 N.3   193  PRO193     -0.2102
    151  CA       -14.2010   15.4960   -1.7580 C.3   193  PRO193      0.1504
    152  C        -13.1530   14.3910   -1.6850 C.2   193  PRO193      0.2576
    153  O        -13.3950   13.2920   -2.1900 O.2   193  PRO193     -0.2718
    154  CB       -15.4350   15.1090   -0.9430 C.3   193  PRO193      0.0282
    155  CG       -16.4740   14.7170   -1.9410 C.3   193  PRO193      0.0208
    156  CD       -16.1210   15.2760   -3.2770 C.3   193  PRO193      0.0893
    157  N        -12.0050   14.6950   -1.0900 N.am  194  VAL194     -0.1966
    158  CA       -10.9580   13.6940   -0.8560 C.3   194  VAL194      0.1727
    159  C        -10.6850   13.5850    0.6400 C.2   194  VAL194      0.2616
    160  O        -10.3250   14.5670    1.2840 O.2   194  VAL194     -0.2715
    161  CB        -9.6480   14.0220   -1.6030 C.3   194  VAL194      0.0290
    162  CG1       -8.5910   13.0000   -1.3040 C.3   194  VAL194      0.0023
    163  CG2       -9.8980   14.0560   -3.0820 C.3   194  VAL194      0.0023
    164  N        -10.8830   12.3830    1.1780 N.am  195  GLU195     -0.1977
    165  CA       -10.6410   12.1200    2.5810 C.3   195  GLU195      0.1602
    166  C         -9.1720   11.7630    2.7250 C.2   195  GLU195      0.2287
    167  O         -8.7270   10.7900    2.1110 O.2   195  GLU195     -0.2864
    168  CB       -11.5620   10.9850    3.0530 C.3   195  GLU195      0.0415
    169  CG       -13.0180   11.3950    3.0780 C.3   195  GLU195      0.1163
    170  CD       -13.9600   10.2800    3.4480 C.2   195  GLU195      0.3649
    171  OE1      -13.5240    9.1280    3.6480 O.co2 195  GLU195     -0.2457
    172  OE2      -15.1740   10.5400    3.5280 O.co2 195  GLU195     -0.2457
    173  N         -4.4750    6.6580   -0.9560 N.3   200  GLN200     -0.1245
    174  CA        -5.0370    5.3470   -0.6290 C.3   200  GLN200      0.1566
    175  C         -5.6270    4.7340   -1.8980 C.2   200  GLN200      0.2260
    176  O         -6.1320    5.4810   -2.7700 O.2   200  GLN200     -0.2867
    177  CB        -6.0730    5.4330    0.4900 C.3   200  GLN200      0.0367
    178  CG        -7.3890    6.1790    0.1500 C.3   200  GLN200      0.0905
    179  CD        -7.2990    7.6820    0.5010 C.2   200  GLN200      0.2608
    180  OE1       -6.2350    8.2660    0.4300 O.2   200  GLN200     -0.2717
    181  NE2       -8.4240    8.2780    0.9090 N.am  200  GLN200     -0.0878
    182  N         -7.7560    1.4440   -4.0860 N.3   202  ARG202     -0.1245
    183  CA        -8.8160    0.4590   -4.0600 C.3   202  ARG202      0.1563
    184  C         -8.8240   -0.2830   -5.3850 C.2   202  ARG202      0.2260
    185  O         -8.2890    0.1970   -6.4090 O.2   202  ARG202     -0.2867
    186  CB       -10.1870    1.1290   -3.8110 C.3   202  ARG202      0.0307
    187  CG       -10.3330    1.7610   -2.4450 C.3   202  ARG202      0.0489
    188  CD       -10.2560    0.7310   -1.3130 C.3   202  ARG202      0.2205
    189  NE       -10.5220    1.3070    0.0280 N.pl3 202  ARG202     -0.0865
    190  CZ        -9.6080    1.8160    0.8560 C.cat 202  ARG202      0.5346
    191  NH1       -8.3350    1.9270    0.4900 N.pl3 202  ARG202      0.1354
    192  NH2       -9.9960    2.2770    2.0650 N.pl3 202  ARG202      0.1354
    193  N        -11.2190   -1.5450   -8.0820 N.3   204  PHE204     -0.1241
    194  CA       -12.5850   -1.2400   -8.5660 C.3   204  PHE204      0.1605
    195  C        -13.0610   -2.2270   -9.6260 C.2   204  PHE204      0.2264
    196  O        -12.3010   -2.5740  -10.5510 O.2   204  PHE204     -0.2867
    197  CB       -12.6370    0.1720   -9.1700 C.3   204  PHE204      0.0534
    198  CG       -12.3970    1.2670   -8.1580 C.ar  204  PHE204     -0.0203
    199  CD1      -13.4130    1.6980   -7.3180 C.ar  204  PHE204     -0.0042
    200  CD2      -11.1120    1.7990   -7.9780 C.ar  204  PHE204     -0.0042
    201  CE1      -13.1800    2.7020   -6.3430 C.ar  204  PHE204     -0.0003
    202  CE2      -10.8740    2.8130   -7.0150 C.ar  204  PHE204     -0.0003
    203  CZ       -11.9390    3.2620   -6.2020 C.ar  204  PHE204     -0.0000
    204  N         -7.4110    6.9750   -4.8930 N.3   236  VAL236     -0.1245
    205  CA        -8.4760    7.9920   -4.8890 C.3   236  VAL236      0.1561
    206  C         -8.1380    9.1940   -5.8400 C.2   236  VAL236      0.2260
    207  O         -8.9990    9.6180   -6.6370 O.2   236  VAL236     -0.2867
    208  CB        -8.8530    8.4350   -3.4450 C.3   236  VAL236      0.0252
    209  CG1       -9.8610    9.6110   -3.4600 C.3   236  VAL236      0.0019
    210  CG2       -9.4200    7.2220   -2.6470 C.3   236  VAL236      0.0019
    211  N         -9.8840    8.9830    7.0380 N.3   258  ARG258     -0.1245
    212  CA       -10.6050    8.0450    7.8210 C.3   258  ARG258      0.1563
    213  C         -9.7420    7.5070    8.9480 C.2   258  ARG258      0.2260
    214  O         -8.5620    7.4320    8.8150 O.2   258  ARG258     -0.2867
    215  CB       -11.0700    6.8900    6.9440 C.3   258  ARG258      0.0307
    216  CG       -12.1060    7.2840    5.9640 C.3   258  ARG258      0.0489
    217  CD       -13.1280    6.2240    5.9090 C.3   258  ARG258      0.2205
    218  NE       -14.2150    6.5380    4.9920 N.pl3 258  ARG258     -0.0865
    219  CZ       -14.5850    5.7390    3.9970 C.cat 258  ARG258      0.5346
    220  NH1      -13.9630    4.5990    3.8010 N.pl3 258  ARG258      0.1354
    221  NH2      -15.5770    6.0780    3.2050 N.pl3 258  ARG258      0.1354
    222  N         -7.3650    3.8390    8.4130 N.3   261  GLU261     -0.1245
    223  CA        -7.4960    3.8090    6.9500 C.3   261  GLU261      0.1567
    224  C         -6.6470    2.6890    6.3870 C.2   261  GLU261      0.2260
    225  O         -5.6060    2.3470    6.9530 O.2   261  GLU261     -0.2867
    226  CB        -7.0510    5.1580    6.3290 C.3   261  GLU261      0.0388
    227  CG        -7.2130    5.2650    4.7920 C.3   261  GLU261      0.1160
    228  CD        -8.6480    4.8960    4.2730 C.2   261  GLU261      0.3649
    229  OE1       -9.0700    3.7180    4.3250 O.co2 261  GLU261     -0.2457
    230  OE2       -9.3480    5.8090    3.7530 O.co2 261  GLU261     -0.2457
    231  N         -6.1760   -1.9140   -1.1010 N.3   265  PHE265     -0.1241
    232  CA        -6.7660   -3.2290   -1.3590 C.3   265  PHE265      0.1605
    233  C         -6.4740   -3.5740   -2.8200 C.2   265  PHE265      0.2264
    234  O         -6.5880   -2.7020   -3.6930 O.2   265  PHE265     -0.2867
    235  CB        -8.2660   -3.2280   -1.2220 C.3   265  PHE265      0.0534
    236  CG        -8.7590   -3.1380    0.1650 C.ar  265  PHE265     -0.0203
    237  CD1       -8.5960   -4.2010    1.0840 C.ar  265  PHE265     -0.0042
    238  CD2       -9.4380   -1.9910    0.5640 C.ar  265  PHE265     -0.0042
    239  CE1       -9.1260   -4.0930    2.4050 C.ar  265  PHE265     -0.0003
    240  CE2       -9.9540   -1.8680    1.8780 C.ar  265  PHE265     -0.0003
    241  CZ        -9.8030   -2.9550    2.8030 C.ar  265  PHE265     -0.0000
@<TRIPOS>BOND
     1   196   195    2
     2   195   194    1
     3   197   194    1
     4   197   198    1
     5   194   193    1
     6   198   200   ar
     7   198   199   ar
     8   200   202   ar
     9    99    98    1
    10   145   144    2
    11   144   143    1
    12   199   201   ar
    13   101   102    1
    14   146   143    1
    15   146   147    1
    16   202   203   ar
    17    96    95    1
    18    96    97    2
    19   148   147    1
    20    89    88    2
    21    95    98    1
    22    95    94    1
    23   207   206    2
    24    98   100    1
    25   185   184    2
    26   143   142    1
    27   201   203   ar
    28   105   102    1
    29   105   106    1
    30   147   149    1
    31   102   103    1
    32   104   103    2
    33   206   205    1
    34   108   107   ar
    35    88    94   am
    36    88    87    1
    37   142   133   am
    38   184   183    1
    39    72    70   ar
    40    72    74   ar
    41   126   125    2
    42   130   128    1
    43   125   124    1
    44   107   106    1
    45   107   109   ar
    46   204   205    1
    47   205   208    1
    48   134   133    2
    49    70    69   ar
    50   133   132    1
    51   131   132    1
    52   128   127    1
    53   128   129    1
    54    90    87    1
    55    90    91    1
    56    87    86    1
    57    79    80    1
    58    79    76    1
    59    86    77   am
    60    74    73   ar
    61   182   183    1
    62   183   186    1
    63    77    78    2
    64    77    76    1
    65   132   135    1
    66   186   187    1
    67   127   124    1
    68    75    76    1
    69    75    66   am
    70    80    82   ar
    71    80    81   ar
    72   234   233    2
    73    82    84   ar
    74   124   123    1
    75   209   208    1
    76   208   210    1
    77    69    68    1
    78    69    71   ar
    79   121   120    2
    80   156   150    1
    81   156   155    1
    82    81    83   ar
    83   150   151    1
    84    91    92    2
    85    91    93   am
    86   163   161    1
    87    65    68    1
    88    65    66    1
    89    65    64    1
    90    84    85   ar
    91    73    71   ar
    92   123   120   am
    93   233   232    1
    94   176   175    2
    95    66    67    2
    96   135   136    1
    97   120   119    1
    98    83    85   ar
    99   122   119    1
   100   187   188    1
   101   153   152    2
   102   155   154    1
   103   175   174    1
   104   151   152    1
   105   151   154    1
   106   119   118    1
   107   152   157   am
   108   136   137    1
   109   161   162    1
   110   161   158    1
   111   232   235    1
   112   232   231    1
   113   188   189    1
   114   235   236    1
   115     9     8    1
   116   118   112   am
   117   157   158    1
   118   173   174    1
   119   158   159    1
   120   110   111    1
   121   174   177    1
   122    42    41    1
   123   137   138    1
   124    41    38    1
   125   112   111    1
   126   112   113    2
   127   189   190    2
   128   178   177    1
   129   178   179    1
   130   236   238   ar
   131   236   237   ar
   132     8     7    1
   133   111   114    1
   134   116   115   ar
   135   180   179    2
   136   191   190    1
   137   179   181   am
   138   238   240   ar
   139   138   139    2
   140   159   164   am
   141   159   160    2
   142   190   192    1
   143    37    38    1
   144    37    32   am
   145     7     6    1
   146   237   239   ar
   147    38    39    1
   148   164   165    1
   149   139   140    1
   150   139   141    1
   151   115   114    1
   152   115   117   ar
   153    31    32    1
   154    31    30    1
   155    31    34    1
   156    32    33    2
   157   240   241   ar
   158    35    34    1
   159   167   166    2
   160    34    36    1
   161     6     5    1
   162   239   241   ar
   163    39    40    2
   164    39    43   am
   165   165   166    1
   166   165   168    1
   167    51    49   ar
   168   168   169    1
   169   169   170    1
   170    43    44    1
   171     5     2    1
   172   221   219    1
   173   170   172   ar
   174   170   171   ar
   175    63    62    1
   176   230   228   ar
   177   220   219    1
   178    48    49    1
   179    48    47    1
   180    49    50   ar
   181   219   218    2
   182     4     3    2
   183   228   229   ar
   184   228   227    1
   185    44    47    1
   186    44    45    1
   187     2     3    1
   188     2     1    1
   189     3    10   am
   190   227   226    1
   191    62    61   ar
   192    62    60   ar
   193   218   217    1
   194    61    59   ar
   195    22    20    1
   196    45    46    2
   197    10    11    1
   198    60    58   ar
   199    11    14    1
   200    11    12    1
   201   217   216    1
   202   216   215    1
   203    14    15    1
   204    16    12   am
   205    16    17    1
   206    29    28    1
   207    29    23    1
   208    20    17    1
   209    20    21    1
   210   226   223    1
   211   224   223    1
   212   224   225    2
   213    28    27    1
   214    59    57   ar
   215    12    13    2
   216   215   212    1
   217   223   222    1
   218    58    57   ar
   219   211   212    1
   220    17    18    1
   221    57    56    1
   222    23    18   am
   223    23    24    1
   224    27    24    1
   225   212   213    1
   226    18    19    2
   227    24    25    1
   228    56    53    1
   229   214   213    2
   230    55    54    2
   231    54    53    1
   232    25    26    2
   233    53    52    1
