@<TRIPOS>MOLECULE
tmp/3vq1C02.pdb
 81 76 0 0 0
SMALL
GASTEIGER

@<TRIPOS>ATOM
      1  N        -19.5510   -2.5680    9.7800 N.3   500  SER500     -0.1202
      2  CA       -19.1360   -3.8780   10.2570 C.3   500  SER500      0.2020
      3  C        -17.8090   -3.7770   10.9960 C.2   500  SER500      0.2618
      4  O        -17.0840   -2.7950   10.8430 O.2   500  SER500     -0.2717
      5  CB       -19.0400   -4.8770    9.1010 C.3   500  SER500      0.2103
      6  OG       -18.1430   -4.4170    8.1150 O.3   500  SER500     -0.2182
      7  N        -17.5110   -4.7840   11.8130 N.am  501  HIS501     -0.1975
      8  CA       -16.2450   -4.8510   12.5350 C.3   501  HIS501      0.1656
      9  C        -15.9950   -3.6260   13.3650 C.2   501  HIS501      0.2291
     10  O        -14.9010   -3.0390   13.3130 O.2   501  HIS501     -0.2864
     11  CB       -15.0730   -5.0770   11.5840 C.3   501  HIS501      0.0771
     12  CG       -15.0710   -6.4270   10.9260 C.ar  501  HIS501      0.0820
     13  ND1      -15.5260   -6.6220    9.6720 N.ar  501  HIS501     -0.2267
     14  CD2      -14.6280   -7.6670   11.3840 C.ar  501  HIS501      0.1154
     15  CE1      -15.3950   -7.9270    9.3440 C.ar  501  HIS501      0.1986
     16  NE2      -14.8440   -8.5640   10.3940 N.ar  501  HIS501     -0.2212
     17  N        -28.4810   -1.1170    1.5920 N.3   520  THR520     -0.1218
     18  CA       -27.5490   -1.9600    2.3620 C.3   520  THR520      0.1862
     19  C        -27.0630   -1.3220    3.6790 C.2   520  THR520      0.2287
     20  O        -26.5320   -0.2030    3.6840 O.2   520  THR520     -0.2866
     21  CB       -26.3370   -2.3910    1.5090 C.3   520  THR520      0.1770
     22  OG1      -26.7980   -3.0650    0.3340 O.3   520  THR520     -0.2211
     23  CG2      -25.4240   -3.3400    2.2910 C.3   520  THR520      0.0375
     24  N        -24.6460   -2.6990    6.7570 N.3   522  ASP522     -0.1239
     25  CA       -23.7960   -3.7620    7.2640 C.3   522  ASP522      0.1674
     26  C        -23.3760   -3.4740    8.6930 C.2   522  ASP522      0.2266
     27  O        -22.5570   -2.5960    8.9430 O.2   522  ASP522     -0.2867
     28  CB       -22.5680   -3.9100    6.3780 C.3   522  ASP522      0.1410
     29  CG       -21.9000   -5.2660    6.5220 C.2   522  ASP522      0.3668
     30  OD1      -21.0730   -5.5930    5.6480 O.co2 522  ASP522     -0.2456
     31  OD2      -22.1970   -6.0060    7.4910 O.co2 522  ASP522     -0.2456
     32  N        -22.5110   -6.1920   10.7930 N.3   524  SER524     -0.1202
     33  CA       -21.9910   -7.4710   11.2550 C.3   524  SER524      0.2020
     34  C        -20.6910   -7.2920   12.0210 C.2   524  SER524      0.2618
     35  O        -20.0390   -6.2500   11.9230 O.2   524  SER524     -0.2717
     36  CB       -21.8030   -8.4340   10.0840 C.3   524  SER524      0.2103
     37  OG       -21.1670   -7.7760    9.0090 O.3   524  SER524     -0.2182
     38  N        -20.3380   -8.3100   12.7980 N.am  525  PHE525     -0.1975
     39  CA       -19.0870   -8.3320   13.5500 C.3   525  PHE525      0.1639
     40  C        -18.9450   -7.1510   14.4810 C.2   525  PHE525      0.2290
     41  O        -17.8780   -6.5520   14.5950 O.2   525  PHE525     -0.2864
     42  CB       -17.8780   -8.4380   12.6240 C.3   525  PHE525      0.0560
     43  CG       -17.7420   -9.7730   11.9680 C.ar  525  PHE525     -0.0200
     44  CD1      -18.2380   -9.9880   10.6910 C.ar  525  PHE525     -0.0042
     45  CD2      -17.1220  -10.8270   12.6310 C.ar  525  PHE525     -0.0042
     46  CE1      -18.1060  -11.2350   10.0780 C.ar  525  PHE525     -0.0003
     47  CE2      -16.9930  -12.0700   12.0290 C.ar  525  PHE525     -0.0003
     48  CZ       -17.4830  -12.2740   10.7490 C.ar  525  PHE525     -0.0000
     49  N        -30.6050   -5.4450    2.3020 N.3   544  PHE544     -0.1241
     50  CA       -29.5810   -6.2750    2.9360 C.3   544  PHE544      0.1605
     51  C        -29.0980   -5.6330    4.2330 C.2   544  PHE544      0.2264
     52  O        -28.2360   -4.7490    4.2290 O.2   544  PHE544     -0.2867
     53  CB       -28.4170   -6.5710    1.9740 C.3   544  PHE544      0.0534
     54  CG       -28.8540   -7.0920    0.6300 C.ar  544  PHE544     -0.0203
     55  CD1      -29.0090   -6.2210   -0.4540 C.ar  544  PHE544     -0.0042
     56  CD2      -29.1260   -8.4420    0.4440 C.ar  544  PHE544     -0.0042
     57  CE1      -29.4220   -6.6920   -1.6990 C.ar  544  PHE544     -0.0003
     58  CE2      -29.5340   -8.9190   -0.7960 C.ar  544  PHE544     -0.0003
     59  CZ       -29.6850   -8.0450   -1.8680 C.ar  544  PHE544     -0.0000
     60  N        -27.2530   -6.6610    7.3860 N.3   546  ASN546     -0.1240
     61  CA       -26.3730   -7.7320    7.8340 C.3   546  ASN546      0.1653
     62  C        -26.1260   -7.5780    9.3270 C.2   546  ASN546      0.2266
     63  O        -25.5020   -6.6120    9.7690 O.2   546  ASN546     -0.2867
     64  CB       -25.0570   -7.7460    7.0260 C.3   546  ASN546      0.1155
     65  CG       -24.2850   -9.0640    7.1590 C.2   546  ASN546      0.2627
     66  OD1      -24.4180   -9.7660    8.1690 O.2   546  ASN546     -0.2716
     67  ND2      -23.4790   -9.4160    6.1390 N.am  546  ASN546     -0.0877
     68  N        -25.2480  -10.5720   11.1490 N.3   548  THR548     -0.1218
     69  CA       -24.5300  -11.8070   11.5060 C.3   548  THR548      0.1862
     70  C        -23.3610  -11.5310   12.4450 C.2   548  THR548      0.2287
     71  O        -22.8850  -10.3980   12.5210 O.2   548  THR548     -0.2866
     72  CB       -23.9610  -12.5280   10.2620 C.3   548  THR548      0.1770
     73  OG1      -22.9350  -11.7270    9.6550 O.3   548  THR548     -0.2211
     74  CG2      -25.0510  -12.8350    9.2440 C.3   548  THR548      0.0375
     75  N        -29.7260  -10.9060    6.5300 N.3   573  VAL573     -0.1245
     76  CA       -28.9470  -11.9150    5.7950 C.3   573  VAL573      0.1561
     77  C        -28.3440  -12.9930    6.7100 C.2   573  VAL573      0.2260
     78  O        -27.8900  -12.6990    7.8250 O.2   573  VAL573     -0.2867
     79  CB       -27.9200  -11.2840    4.8090 C.3   573  VAL573      0.0252
     80  CG1      -26.6030  -10.9540    5.4930 C.3   573  VAL573      0.0019
     81  CG2      -27.6990  -12.1970    3.6030 C.3   573  VAL573      0.0019
@<TRIPOS>BOND
     1    59    57   ar
     2    59    58   ar
     3    57    55   ar
     4    58    56   ar
     5    55    54   ar
     6    22    21    1
     7    56    54   ar
     8    54    53    1
     9    21    23    1
    10    21    18    1
    11    17    18    1
    12    53    50    1
    13    49    50    1
    14    18    19    1
    15    50    51    1
    16    81    79    1
    17    19    20    2
    18    52    51    2
    19    79    80    1
    20    79    76    1
    21    30    29   ar
    22    76    75    1
    23    76    77    1
    24    67    65   am
    25    28    29    1
    26    28    25    1
    27    29    31   ar
    28    77    78    2
    29    24    25    1
    30    64    65    1
    31    64    61    1
    32    65    66    2
    33    25    26    1
    34    60    61    1
    35    61    62    1
    36     6     5    1
    37    26    27    2
    38    37    36    1
    39     5     2    1
    40    74    72    1
    41    62    63    2
    42    15    13   ar
    43    15    16   ar
    44    73    72    1
    45    13    12   ar
    46     1     2    1
    47    46    44   ar
    48    46    48   ar
    49    36    33    1
    50     2     3    1
    51    72    69    1
    52    16    14   ar
    53    44    43   ar
    54    48    47   ar
    55    32    33    1
    56     4     3    2
    57    12    14   ar
    58    12    11    1
    59     3     7   am
    60    68    69    1
    61    33    34    1
    62    69    70    1
    63    11     8    1
    64     7     8    1
    65    35    34    2
    66    43    42    1
    67    43    45   ar
    68    34    38   am
    69    47    45   ar
    70    70    71    2
    71     8     9    1
    72    42    39    1
    73    38    39    1
    74    10     9    2
    75    39    40    1
    76    40    41    2
