@<TRIPOS>MOLECULE
tmp/3vq1C01.pdb
 106 98 0 0 0
SMALL
GASTEIGER

@<TRIPOS>ATOM
      1  N         -7.5620    3.0800    6.1440 N.3   428  TYR428     -0.1241
      2  CA        -6.2660    2.6210    6.6940 C.3   428  TYR428      0.1605
      3  C         -5.1740    3.6760    6.5860 C.2   428  TYR428      0.2264
      4  O         -4.0650    3.3870    6.1490 O.2   428  TYR428     -0.2867
      5  CB        -5.8280    1.2870    6.0750 C.3   428  TYR428      0.0534
      6  CG        -6.9920    0.3680    5.8490 C.ar  428  TYR428     -0.0201
      7  CD1       -7.6430    0.3420    4.6100 C.ar  428  TYR428     -0.0009
      8  CD2       -7.4850   -0.4380    6.8720 C.ar  428  TYR428     -0.0009
      9  CE1       -8.7400   -0.4670    4.3890 C.ar  428  TYR428      0.0417
     10  CE2       -8.5920   -1.2560    6.6590 C.ar  428  TYR428      0.0417
     11  CZ        -9.2100   -1.2640    5.4130 C.ar  428  TYR428      0.1957
     12  OH       -10.3140   -2.0500    5.1660 O.3   428  TYR428     -0.2866
     13  N        -12.5160    3.1690    6.0680 N.3   451  ALA451     -0.1245
     14  CA       -12.3640    2.0160    6.9420 C.3   451  ALA451      0.1562
     15  C        -10.9980    2.0280    7.6340 C.2   451  ALA451      0.2260
     16  O        -10.0420    2.6270    7.1360 O.2   451  ALA451     -0.2867
     17  CB       -12.5590    0.7290    6.1570 C.3   451  ALA451      0.0290
     18  N        -22.4710    6.0720   -0.8290 N.3   472  PHE472     -0.1241
     19  CA       -21.6650    4.9610   -0.3110 C.3   472  PHE472      0.1605
     20  C        -20.8110    5.4530    0.8590 C.2   472  PHE472      0.2264
     21  O        -20.0070    6.3780    0.6910 O.2   472  PHE472     -0.2867
     22  CB       -20.7740    4.4350   -1.4350 C.3   472  PHE472      0.0534
     23  CG       -19.9940    3.1970   -1.0900 C.ar  472  PHE472     -0.0203
     24  CD1      -20.4680    1.9370   -1.4490 C.ar  472  PHE472     -0.0042
     25  CD2      -18.7490    3.2860   -0.4450 C.ar  472  PHE472     -0.0042
     26  CE1      -19.7340    0.7910   -1.1490 C.ar  472  PHE472     -0.0003
     27  CE2      -18.0170    2.1420   -0.1420 C.ar  472  PHE472     -0.0003
     28  CZ       -18.5070    0.8930   -0.4950 C.ar  472  PHE472     -0.0000
     29  N        -18.3470    3.7720    3.9610 N.3   474  ASP474     -0.1239
     30  CA       -17.6650    2.6760    4.6560 C.3   474  ASP474      0.1674
     31  C        -16.9860    3.1810    5.9320 C.2   474  ASP474      0.2266
     32  O        -16.0030    3.9170    5.8790 O.2   474  ASP474     -0.2867
     33  CB       -16.6380    1.9910    3.7380 C.3   474  ASP474      0.1410
     34  CG       -16.1770    0.6380    4.2750 C.2   474  ASP474      0.3668
     35  OD1      -16.2760    0.4260    5.5010 O.co2 474  ASP474     -0.2456
     36  OD2      -15.7320   -0.2270    3.4760 O.co2 474  ASP474     -0.2456
     37  N        -16.3020    0.8020    8.4260 N.3   476  SER476     -0.1202
     38  CA       -15.9140   -0.4610    9.0510 C.3   476  SER476      0.2020
     39  C        -14.5300   -0.3950    9.6840 C.2   476  SER476      0.2618
     40  O        -13.6610    0.3460    9.2240 O.2   476  SER476     -0.2717
     41  CB       -15.9860   -1.6210    8.0480 C.3   476  SER476      0.2103
     42  OG       -15.1280   -1.3930    6.9510 O.3   476  SER476     -0.2182
     43  N        -14.3510   -1.1660   10.7540 N.am  477  LYS477     -0.1979
     44  CA       -13.0690   -1.3070   11.4460 C.3   477  LYS477      0.1596
     45  C        -12.5450   -0.0040   12.0260 C.2   477  LYS477      0.2287
     46  O        -11.3350    0.2200   12.0380 O.2   477  LYS477     -0.2864
     47  CB       -12.0170   -1.9290   10.5240 C.3   477  LYS477      0.0298
     48  CG       -12.1800   -3.4220   10.3190 C.3   477  LYS477      0.0038
     49  CD       -11.2050   -3.9420    9.2820 C.3   477  LYS477      0.0206
     50  CE       -11.4590   -5.4090    8.9790 C.3   477  LYS477      0.1093
     51  NZ       -10.5220   -5.9120    7.9320 N.3   477  LYS477     -0.1314
     52  N        -25.5100    2.4240    0.5410 N.3   496  LEU496     -0.1245
     53  CA       -24.7830    1.4330    1.3310 C.3   496  LEU496      0.1561
     54  C        -24.1100    2.1000    2.5240 C.2   496  LEU496      0.2260
     55  O        -23.4950    3.1490    2.3910 O.2   496  LEU496     -0.2867
     56  CB       -23.7800    0.6530    0.4660 C.3   496  LEU496      0.0270
     57  CG       -22.9290   -0.4610    1.1060 C.3   496  LEU496      0.0019
     58  CD1      -22.5820   -1.5590    0.1170 C.3   496  LEU496      0.0001
     59  CD2      -21.6570    0.0860    1.7370 C.3   496  LEU496      0.0001
     60  N        -21.6320    0.8330    5.6260 N.3   498  ASN498     -0.1240
     61  CA       -20.8660   -0.2400    6.2640 C.3   498  ASN498      0.1653
     62  C        -20.3410    0.1740    7.6280 C.2   498  ASN498      0.2266
     63  O        -19.5530    1.1100    7.7610 O.2   498  ASN498     -0.2867
     64  CB       -19.7220   -0.7280    5.3680 C.3   498  ASN498      0.1155
     65  CG       -19.2260   -2.1220    5.7460 C.2   498  ASN498      0.2627
     66  OD1      -19.4530   -2.5990    6.8610 O.2   498  ASN498     -0.2716
     67  ND2      -18.5390   -2.7820    4.8050 N.am  498  ASN498     -0.0877
     68  N        -19.5510   -2.5680    9.7800 N.3   500  SER500     -0.1202
     69  CA       -19.1360   -3.8780   10.2570 C.3   500  SER500      0.2020
     70  C        -17.8090   -3.7770   10.9960 C.2   500  SER500      0.2618
     71  O        -17.0840   -2.7950   10.8430 O.2   500  SER500     -0.2717
     72  CB       -19.0400   -4.8770    9.1010 C.3   500  SER500      0.2103
     73  OG       -18.1430   -4.4170    8.1150 O.3   500  SER500     -0.2182
     74  N        -17.5110   -4.7840   11.8130 N.am  501  HIS501     -0.1975
     75  CA       -16.2450   -4.8510   12.5350 C.3   501  HIS501      0.1656
     76  C        -15.9950   -3.6260   13.3650 C.2   501  HIS501      0.2291
     77  O        -14.9010   -3.0390   13.3130 O.2   501  HIS501     -0.2864
     78  CB       -15.0730   -5.0770   11.5840 C.3   501  HIS501      0.0771
     79  CG       -15.0710   -6.4270   10.9260 C.ar  501  HIS501      0.0820
     80  ND1      -15.5260   -6.6220    9.6720 N.ar  501  HIS501     -0.2267
     81  CD2      -14.6280   -7.6670   11.3840 C.ar  501  HIS501      0.1154
     82  CE1      -15.3950   -7.9270    9.3440 C.ar  501  HIS501      0.1986
     83  NE2      -14.8440   -8.5640   10.3940 N.ar  501  HIS501     -0.2212
     84  N        -28.4810   -1.1170    1.5920 N.3   520  THR520     -0.1218
     85  CA       -27.5490   -1.9600    2.3620 C.3   520  THR520      0.1862
     86  C        -27.0630   -1.3220    3.6790 C.2   520  THR520      0.2287
     87  O        -26.5320   -0.2030    3.6840 O.2   520  THR520     -0.2866
     88  CB       -26.3370   -2.3910    1.5090 C.3   520  THR520      0.1770
     89  OG1      -26.7980   -3.0650    0.3340 O.3   520  THR520     -0.2211
     90  CG2      -25.4240   -3.3400    2.2910 C.3   520  THR520      0.0375
     91  N        -24.6460   -2.6990    6.7570 N.3   522  ASP522     -0.1239
     92  CA       -23.7960   -3.7620    7.2640 C.3   522  ASP522      0.1674
     93  C        -23.3760   -3.4740    8.6930 C.2   522  ASP522      0.2266
     94  O        -22.5570   -2.5960    8.9430 O.2   522  ASP522     -0.2867
     95  CB       -22.5680   -3.9100    6.3780 C.3   522  ASP522      0.1410
     96  CG       -21.9000   -5.2660    6.5220 C.2   522  ASP522      0.3668
     97  OD1      -21.0730   -5.5930    5.6480 O.co2 522  ASP522     -0.2456
     98  OD2      -22.1970   -6.0060    7.4910 O.co2 522  ASP522     -0.2456
     99  N        -27.2530   -6.6610    7.3860 N.3   546  ASN546     -0.1240
    100  CA       -26.3730   -7.7320    7.8340 C.3   546  ASN546      0.1653
    101  C        -26.1260   -7.5780    9.3270 C.2   546  ASN546      0.2266
    102  O        -25.5020   -6.6120    9.7690 O.2   546  ASN546     -0.2867
    103  CB       -25.0570   -7.7460    7.0260 C.3   546  ASN546      0.1155
    104  CG       -24.2850   -9.0640    7.1590 C.2   546  ASN546      0.2627
    105  OD1      -24.4180   -9.7660    8.1690 O.2   546  ASN546     -0.2716
    106  ND2      -23.4790   -9.4160    6.1390 N.am  546  ASN546     -0.0877
@<TRIPOS>BOND
     1    24    26   ar
     2    24    23   ar
     3    22    23    1
     4    22    19    1
     5    26    28   ar
     6    23    25   ar
     7    18    19    1
     8    28    27   ar
     9    25    27   ar
    10    19    20    1
    11    58    57    1
    12    89    88    1
    13    56    57    1
    14    56    53    1
    15    52    53    1
    16    21    20    2
    17    57    59    1
    18    53    54    1
    19    88    90    1
    20    88    85    1
    21    84    85    1
    22    85    86    1
    23    55    54    2
    24    36    34   ar
    25    86    87    2
    26    33    34    1
    27    33    30    1
    28    29    30    1
    29    34    35   ar
    30     9     7   ar
    31     9    11   ar
    32     7     6   ar
    33    30    31    1
    34    67    65   am
    35    12    11    1
    36    64    65    1
    37    64    61    1
    38    11    10   ar
    39    60    61    1
    40    97    96   ar
    41    65    66    2
    42     6     5    1
    43     6     8   ar
    44    32    31    2
    45    13    14    1
    46     5     2    1
    47   106   104   am
    48     1     2    1
    49     4     3    2
    50    17    14    1
    51    61    62    1
    52    95    96    1
    53    95    92    1
    54    96    98   ar
    55     3     2    1
    56    10     8   ar
    57    91    92    1
    58    14    15    1
    59    42    41    1
    60   103   104    1
    61   103   100    1
    62    16    15    2
    63   104   105    2
    64    92    93    1
    65    99   100    1
    66    62    63    2
    67   100   101    1
    68    51    50    1
    69    41    38    1
    70    73    72    1
    71    37    38    1
    72    93    94    2
    73    50    49    1
    74    38    39    1
    75    72    69    1
    76    40    39    2
    77    49    48    1
    78   101   102    2
    79    82    80   ar
    80    82    83   ar
    81    80    79   ar
    82    39    43   am
    83    68    69    1
    84    69    70    1
    85    48    47    1
    86    83    81   ar
    87    47    44    1
    88    43    44    1
    89    71    70    2
    90    79    81   ar
    91    79    78    1
    92    70    74   am
    93    44    45    1
    94    78    75    1
    95    74    75    1
    96    45    46    2
    97    75    76    1
    98    77    76    2
