@<TRIPOS>MOLECULE
tmp/3vq4B00.pdb
 86 84 0 0 0
SMALL
GASTEIGER

@<TRIPOS>ATOM
      1  N         14.0350   36.8600   11.4420 N.3    27  TYR27      -0.1241
      2  CA        15.0570   35.8350   11.3650 C.3    27  TYR27       0.1605
      3  C         15.6020   35.7450    9.9530 C.2    27  TYR27       0.2264
      4  O         14.8300   35.8120    8.9970 O.2    27  TYR27      -0.2867
      5  CB        14.4080   34.4890   11.7240 C.3    27  TYR27       0.0534
      6  CG        15.2540   33.2530   11.5590 C.ar   27  TYR27      -0.0201
      7  CD1       16.1350   32.8530   12.5530 C.ar   27  TYR27      -0.0009
      8  CD2       15.1840   32.4740   10.4060 C.ar   27  TYR27      -0.0009
      9  CE1       16.8760   31.7010   12.4350 C.ar   27  TYR27       0.0417
     10  CE2       15.9270   31.3830   10.2570 C.ar   27  TYR27       0.0417
     11  CZ        16.7560   30.9550   11.2710 C.ar   27  TYR27       0.1957
     12  OH        17.4860   29.8230   11.1380 O.3    27  TYR27      -0.2866
     13  N         12.5170   25.0360    7.2810 N.3    52  TRP52      -0.1241
     14  CA        11.4470   25.8570    7.8550 C.3    52  TRP52       0.1605
     15  C         10.1740   25.7030    7.0190 C.2    52  TRP52       0.2264
     16  O         10.2780   25.4170    5.8290 O.2    52  TRP52      -0.2867
     17  CB        11.8760   27.3300    7.9540 C.3    52  TRP52       0.0550
     18  CG        13.0250   27.6100    8.8230 C.ar   52  TRP52       0.0003
     19  CD1       14.2950   27.8690    8.4400 C.ar   52  TRP52       0.0946
     20  CD2       13.0060   27.7060   10.2440 C.ar   52  TRP52       0.0152
     21  NE1       15.0870   28.0510    9.5450 N.ar   52  TRP52      -0.2442
     22  CE2       14.3080   27.9840   10.6650 C.ar   52  TRP52       0.0810
     23  CE3       12.0000   27.5240   11.2110 C.ar   52  TRP52       0.0012
     24  CZ2       14.6570   28.0980   12.0180 C.ar   52  TRP52       0.0191
     25  CZ3       12.3510   27.6720   12.5940 C.ar   52  TRP52       0.0001
     26  CH2       13.6550   27.9510   12.9520 C.ar   52  TRP52       0.0015
     27  N         20.6830   36.7300   14.4360 N.3   116  ASN116     -0.1225
     28  CA        19.6390   35.8150   14.8090 C.3   116  ASN116      0.1785
     29  C         19.6480   35.5640   16.3090 C.2   116  ASN116      0.2597
     30  O         18.6300   35.2210   16.8370 O.2   116  ASN116     -0.2718
     31  CB        19.7560   34.4840   14.0830 C.3   116  ASN116      0.1169
     32  CG        19.1590   34.5110   12.6070 C.2   116  ASN116      0.2627
     33  OD1       18.4300   35.4390   12.2230 O.2   116  ASN116     -0.2716
     34  ND2       19.5440   33.5180   11.8020 N.am  116  ASN116     -0.0877
     35  N         20.7970   35.7800   16.9540 N.am  117  HIS117     -0.1975
     36  CA        20.9530   35.6090   18.4130 C.3   117  HIS117      0.1656
     37  C         20.7170   36.8350   19.2580 C.2   117  HIS117      0.2291
     38  O         20.6200   36.7340   20.4810 O.2   117  HIS117     -0.2864
     39  CB        22.3770   35.0680   18.7390 C.3   117  HIS117      0.0771
     40  CG        22.4890   33.5950   18.5540 C.ar  117  HIS117      0.0820
     41  ND1       22.8130   33.0290   17.3420 N.ar  117  HIS117     -0.2267
     42  CD2       22.3280   32.5640   19.4130 C.ar  117  HIS117      0.1154
     43  CE1       22.7140   31.7160   17.4290 C.ar  117  HIS117      0.1986
     44  NE2       22.4550   31.4050   18.6800 N.ar  117  HIS117     -0.2212
     45  N         15.2930   37.3830   20.8360 N.3   127  SER127     -0.1217
     46  CA        16.0580   37.4010   19.5990 C.3   127  SER127      0.1889
     47  C         15.1230   36.9920   18.4430 C.2   127  SER127      0.2288
     48  O         13.9630   36.4760   18.6200 O.2   127  SER127     -0.2866
     49  CB        17.2780   36.4620   19.7010 C.3   127  SER127      0.2089
     50  OG        16.7550   35.1490   19.7690 O.3   127  SER127     -0.2183
     51  N         15.6080   34.6330   16.2720 N.3   129  GLY129     -0.1210
     52  CA        15.6100   33.1980   16.4740 C.3   129  GLY129      0.1956
     53  C         14.5680   32.6570   17.4340 C.2   129  GLY129      0.2611
     54  O         13.8470   31.6960   17.1190 O.2   129  GLY129     -0.2717
     55  N         14.5400   33.2130   18.6430 N.am  130  GLU130     -0.1979
     56  CA        13.4440   32.9600   19.5820 C.3   130  GLU130      0.1602
     57  C         12.0490   33.2370   18.9960 C.2   130  GLU130      0.2287
     58  O         11.1840   32.3780   19.1640 O.2   130  GLU130     -0.2864
     59  CB        13.6210   33.7230   20.9020 C.3   130  GLU130      0.0415
     60  CG        14.6470   33.0790   21.7270 C.3   130  GLU130      0.1163
     61  CD        15.2680   33.9870   22.8320 C.2   130  GLU130      0.3649
     62  OE1       14.9360   35.1720   22.9360 O.co2 130  GLU130     -0.2457
     63  OE2       16.0860   33.4260   23.6030 O.co2 130  GLU130     -0.2457
     64  N         10.8580   33.4250   15.7590 N.3   132  ILE132     -0.1231
     65  CA        10.4520   32.4330   14.7320 C.3   132  ILE132      0.1692
     66  C         10.0430   31.0900   15.3330 C.2   132  ILE132      0.2592
     67  O          8.9930   30.5690   14.9750 O.2   132  ILE132     -0.2718
     68  CB        11.5290   32.2600   13.5630 C.3   132  ILE132      0.0266
     69  CG1       10.9770   31.3750   12.4450 C.3   132  ILE132      0.0019
     70  CG2       12.8250   31.5450   14.0300 C.3   132  ILE132      0.0020
     71  CD1       11.8490   31.3860   11.1310 C.3   132  ILE132      0.0001
     72  N         10.8350   30.5060   16.2370 N.am  133  VAL133     -0.1966
     73  CA        10.3930   29.2360   16.8830 C.3   133  VAL133      0.1727
     74  C          9.0820   29.3750   17.6500 C.2   133  VAL133      0.2616
     75  O          8.2350   28.4750   17.5680 O.2   133  VAL133     -0.2715
     76  CB        11.5190   28.6280   17.7380 C.3   133  VAL133      0.0290
     77  CG1       11.0440   27.4500   18.5330 C.3   133  VAL133      0.0023
     78  CG2       12.5810   28.1660   16.7920 C.3   133  VAL133      0.0023
     79  N          8.8950   30.5120   18.3540 N.am  134  ASP134     -0.1971
     80  CA         7.6650   30.7610   19.1180 C.3   134  ASP134      0.1709
     81  C          6.4700   30.9290   18.1590 C.2   134  ASP134      0.2293
     82  O          5.3910   30.3900   18.3830 O.2   134  ASP134     -0.2864
     83  CB         7.7830   32.0320   19.9940 C.3   134  ASP134      0.1436
     84  CG         8.7950   31.8500   21.2210 C.2   134  ASP134      0.3671
     85  OD1        9.2400   30.7150   21.4930 O.co2 134  ASP134     -0.2456
     86  OD2        9.1390   32.8810   21.8390 O.co2 134  ASP134     -0.2456
@<TRIPOS>BOND
     1    16    15    2
     2    15    14    1
     3    13    14    1
     4    14    17    1
     5    17    18    1
     6    19    18   ar
     7    19    21   ar
     8    18    20   ar
     9     4     3    2
    10    21    22   ar
    11     3     2    1
    12    20    22   ar
    13    20    23   ar
    14    10     8   ar
    15    10    11   ar
    16     8     6   ar
    17    22    24   ar
    18    71    69    1
    19    12    11    1
    20    23    25   ar
    21    11     9   ar
    22     2     1    1
    23     2     5    1
    24     6     5    1
    25     6     7   ar
    26    34    32   am
    27    24    26   ar
    28    33    32    2
    29     9     7   ar
    30    69    68    1
    31    25    26   ar
    32    32    31    1
    33    68    70    1
    34    68    65    1
    35    31    28    1
    36    27    28    1
    37    65    66    1
    38    65    64    1
    39    28    29    1
    40    67    66    2
    41    66    72   am
    42    72    73    1
    43    51    52    1
    44    29    30    2
    45    29    35   am
    46    52    53    1
    47    78    76    1
    48    73    74    1
    49    73    76    1
    50    35    36    1
    51    54    53    2
    52    41    43   ar
    53    41    40   ar
    54    43    44   ar
    55    53    55   am
    56    75    74    2
    57    74    79   am
    58    76    77    1
    59    81    82    2
    60    81    80    1
    61    79    80    1
    62    36    39    1
    63    36    37    1
    64    47    48    2
    65    47    46    1
    66    40    39    1
    67    40    42   ar
    68    55    56    1
    69    44    42   ar
    70    57    58    2
    71    57    56    1
    72    80    83    1
    73    37    38    2
    74    56    59    1
    75    46    49    1
    76    46    45    1
    77    49    50    1
    78    83    84    1
    79    59    60    1
    80    84    85   ar
    81    84    86   ar
    82    60    61    1
    83    61    62   ar
    84    61    63   ar
