@<TRIPOS>MOLECULE
tmp/3vq5B00.pdb
 109 107 0 0 0
SMALL
GASTEIGER

@<TRIPOS>ATOM
      1  N          2.2010   11.9370   -2.3210 N.3    27  TYR27      -0.1241
      2  CA         0.9690   11.6940   -1.5420 C.3    27  TYR27       0.1605
      3  C          0.1540   10.5760   -2.2050 C.2    27  TYR27       0.2264
      4  O          0.0700   10.5100   -3.4510 O.2    27  TYR27      -0.2867
      5  CB         0.1930   13.0180   -1.5140 C.3    27  TYR27       0.0534
      6  CG        -1.1810   12.9830   -0.8460 C.ar   27  TYR27      -0.0201
      7  CD1       -2.2970   12.6920   -1.6070 C.ar   27  TYR27      -0.0009
      8  CD2       -1.3420   13.3090    0.5190 C.ar   27  TYR27      -0.0009
      9  CE1       -3.5990   12.7040   -1.0610 C.ar   27  TYR27       0.0417
     10  CE2       -2.6360   13.2750    1.0760 C.ar   27  TYR27       0.0417
     11  CZ        -3.7450   13.0090    0.2490 C.ar   27  TYR27       0.1957
     12  OH        -5.0530   13.0440    0.7510 O.3    27  TYR27      -0.2866
     13  N         -9.2870   16.0530   -5.0760 N.3    52  TRP52      -0.1241
     14  CA        -8.0850   16.8220   -5.5110 C.3    52  TRP52       0.1605
     15  C         -8.2540   17.2500   -6.9390 C.2    52  TRP52       0.2264
     16  O         -9.0150   16.6560   -7.6430 O.2    52  TRP52      -0.2867
     17  CB        -6.8510   15.8820   -5.3980 C.3    52  TRP52       0.0550
     18  CG        -6.5390   15.5590   -4.0020 C.ar   52  TRP52       0.0003
     19  CD1       -6.7530   14.3480   -3.3360 C.ar   52  TRP52       0.0946
     20  CD2       -5.8190   16.4170   -3.0500 C.ar   52  TRP52       0.0152
     21  NE1       -6.3440   14.4770   -2.0340 N.ar   52  TRP52      -0.2442
     22  CE2       -5.7560   15.7010   -1.8030 C.ar   52  TRP52       0.0810
     23  CE3       -5.3590   17.7340   -3.0910 C.ar   52  TRP52       0.0012
     24  CZ2       -5.1530   16.2710   -0.6400 C.ar   52  TRP52       0.0191
     25  CZ3       -4.7430   18.2750   -1.9520 C.ar   52  TRP52       0.0001
     26  CH2       -4.6550   17.5480   -0.7490 C.ar   52  TRP52       0.0015
     27  N          1.4800    9.1180    4.2740 N.3   114  ASN114     -0.1225
     28  CA         1.2520   10.5270    4.0540 C.3   114  ASN114      0.1785
     29  C          1.7000   11.4950    5.1480 C.2   114  ASN114      0.2597
     30  O          1.9450   12.6860    4.8800 O.2   114  ASN114     -0.2718
     31  CB        -0.2740   10.7200    3.8060 C.3   114  ASN114      0.1169
     32  CG        -0.6960   10.2200    2.4010 C.2   114  ASN114      0.2627
     33  OD1        0.1330   10.0650    1.5050 O.2   114  ASN114     -0.2716
     34  ND2       -2.0250   10.0040    2.2100 N.am  114  ASN114     -0.0877
     35  N          1.7930   10.9980    6.3810 N.am  115  HIS115     -0.1975
     36  CA         2.2340   11.8720    7.5100 C.3   115  HIS115      0.1656
     37  C          3.6830   11.7710    7.8710 C.2   115  HIS115      0.2291
     38  O          4.1590   12.6480    8.5940 O.2   115  HIS115     -0.2864
     39  CB         1.4850   11.5000    8.7820 C.3   115  HIS115      0.0771
     40  CG         0.0460   11.9060    8.7570 C.ar  115  HIS115      0.0820
     41  ND1       -0.4060   12.9840    9.4670 N.ar  115  HIS115     -0.2267
     42  CD2       -1.0630   11.2790    8.2190 C.ar  115  HIS115      0.1154
     43  CE1       -1.7670   13.0970    9.2820 C.ar  115  HIS115      0.1986
     44  NE2       -2.1560   12.0750    8.4930 N.ar  115  HIS115     -0.2212
     45  N          7.4340   12.2010    8.3250 N.3   117  ARG117     -0.1245
     46  CA         8.3190   13.3260    7.9300 C.3   117  ARG117      0.1563
     47  C          9.7860   12.9330    8.0390 C.2   117  ARG117      0.2260
     48  O         10.1080   12.3500    9.0720 O.2   117  ARG117     -0.2867
     49  CB         8.0560   14.5090    8.8400 C.3   117  ARG117      0.0307
     50  CG         9.1730   15.5590    8.7920 C.3   117  ARG117      0.0489
     51  CD         8.9080   16.7190    9.7360 C.3   117  ARG117      0.2205
     52  NE         7.5730   17.2770    9.5170 N.pl3 117  ARG117     -0.0865
     53  CZ         6.4480   16.7500    9.9810 C.cat 117  ARG117      0.5346
     54  NH1        6.4570   15.6500   10.7170 N.pl3 117  ARG117      0.1354
     55  NH2        5.3050   17.3360    9.7150 N.pl3 117  ARG117      0.1354
     56  N          9.4900   17.8040    5.1170 N.3   119  TYR119     -0.1227
     57  CA         8.0340   17.8380    4.9400 C.3   119  TYR119      0.1736
     58  C          7.4560   16.4530    4.6580 C.2   119  TYR119      0.2596
     59  O          8.1180   15.5760    4.1130 O.2   119  TYR119     -0.2718
     60  CB         7.6450   18.8220    3.8300 C.3   119  TYR119      0.0548
     61  CG         8.0620   20.2360    4.1380 C.ar  119  TYR119     -0.0200
     62  CD1        9.3090   20.7170    3.7140 C.ar  119  TYR119     -0.0009
     63  CD2        7.2210   21.0990    4.8440 C.ar  119  TYR119     -0.0009
     64  CE1        9.7320   22.0160    3.9950 C.ar  119  TYR119      0.0417
     65  CE2        7.6360   22.4130    5.1300 C.ar  119  TYR119      0.0417
     66  CZ         8.8910   22.8630    4.7020 C.ar  119  TYR119      0.1957
     67  OH         9.3270   24.1530    4.9700 O.3   119  TYR119     -0.2866
     68  N          6.2140   16.2400    5.0750 N.am  120  SER120     -0.1952
     69  CA         5.5790   14.9750    4.7030 C.3   120  SER120      0.1924
     70  C          4.9620   15.1250    3.2980 C.2   120  SER120      0.2314
     71  O          4.7780   16.2260    2.8100 O.2   120  SER120     -0.2863
     72  CB         4.4180   14.6780    5.6700 C.3   120  SER120      0.2116
     73  OG         3.4730   15.7630    5.6330 O.3   120  SER120     -0.2180
     74  N          1.8760   14.7470    2.6340 N.3   122  GLY122     -0.1210
     75  CA         0.7260   15.5910    2.8370 C.3   122  GLY122      0.1956
     76  C          0.9740   17.0430    2.8840 C.2   122  GLY122      0.2611
     77  O          0.2550   17.8100    2.2790 O.2   122  GLY122     -0.2717
     78  N          2.0530   17.4430    3.5720 N.am  123  GLU123     -0.1979
     79  CA         2.4110   18.8630    3.5260 C.3   123  GLU123      0.1602
     80  C          2.8290   19.2650    2.1420 C.2   123  GLU123      0.2287
     81  O          2.4870   20.3590    1.7160 O.2   123  GLU123     -0.2864
     82  CB         3.5890   19.1420    4.4700 C.3   123  GLU123      0.0415
     83  CG         3.1910   19.0180    5.9180 C.3   123  GLU123      0.1163
     84  CD         4.4120   18.9740    6.8560 C.2   123  GLU123      0.3649
     85  OE1        5.3470   18.1770    6.6910 O.co2 123  GLU123     -0.2457
     86  OE2        4.4340   19.8060    7.7750 O.co2 123  GLU123     -0.2457
     87  N          1.8900   17.9690   -0.8910 N.3   125  ILE125     -0.1231
     88  CA         0.8150   18.1570   -1.8700 C.3   125  ILE125      0.1692
     89  C          0.0450   19.4650   -1.6420 C.2   125  ILE125      0.2592
     90  O         -0.3020   20.1540   -2.6100 O.2   125  ILE125     -0.2718
     91  CB        -0.1650   16.9760   -1.9780 C.3   125  ILE125      0.0266
     92  CG1       -1.1000   17.1460   -3.2130 C.3   125  ILE125      0.0019
     93  CG2       -0.9250   16.7530   -0.6600 C.3   125  ILE125      0.0020
     94  CD1       -1.9860   15.8850   -3.4610 C.3   125  ILE125      0.0001
     95  N         -0.2180   19.8160   -0.3890 N.am  126  VAL126     -0.1966
     96  CA        -1.0120   21.0370   -0.1240 C.3   126  VAL126      0.1727
     97  C         -0.2010   22.2470   -0.5930 C.2   126  VAL126      0.2616
     98  O         -0.7220   23.1700   -1.2430 O.2   126  VAL126     -0.2715
     99  CB        -1.2990   21.0490    1.3780 C.3   126  VAL126      0.0290
    100  CG1       -1.7350   22.4080    1.9040 C.3   126  VAL126      0.0023
    101  CG2       -2.3250   19.9450    1.7070 C.3   126  VAL126      0.0023
    102  N          1.0930   22.2310   -0.2930 N.am  127  ASP127     -0.1971
    103  CA         1.9880   23.3610   -0.6810 C.3   127  ASP127      0.1709
    104  C          2.0330   23.5490   -2.2130 C.2   127  ASP127      0.2293
    105  O          1.7980   24.6610   -2.7310 O.2   127  ASP127     -0.2864
    106  CB         3.3770   23.1400   -0.0810 C.3   127  ASP127      0.1436
    107  CG         4.3600   24.2670   -0.4350 C.2   127  ASP127      0.3671
    108  OD1        4.1610   25.3880    0.0470 O.co2 127  ASP127     -0.2456
    109  OD2        5.3070   24.0370   -1.2100 O.co2 127  ASP127     -0.2456
@<TRIPOS>BOND
     1    16    15    2
     2    15    14    1
     3    14    17    1
     4    14    13    1
     5    17    18    1
     6    18    19   ar
     7    18    20   ar
     8    94    92    1
     9     4     3    2
    10    19    21   ar
    11    92    91    1
    12    23    20   ar
    13    23    25   ar
    14    20    22   ar
    15   105   104    2
    16    90    89    2
    17     1     2    1
    18   104   103    1
    19     3     2    1
    20    21    22   ar
    21    91    88    1
    22    91    93    1
    23    25    26   ar
    24    88    89    1
    25    88    87    1
    26    22    24   ar
    27    89    95   am
    28     7     9   ar
    29     7     6   ar
    30     2     5    1
    31     5     6    1
    32    98    97    2
    33   109   107   ar
    34     9    11   ar
    35     6     8   ar
    36    26    24   ar
    37   103   102    1
    38   103   106    1
    39    97   102   am
    40    97    96    1
    41   107   106    1
    42   107   108   ar
    43    95    96    1
    44    96    99    1
    45    11    12    1
    46    11    10   ar
    47     8    10   ar
    48    99   101    1
    49    99   100    1
    50    33    32    2
    51    81    80    2
    52    80    79    1
    53    34    32   am
    54    77    76    2
    55    32    31    1
    56    74    75    1
    57    71    70    2
    58    75    76    1
    59    76    78   am
    60    70    69    1
    61    79    78    1
    62    79    82    1
    63    62    64   ar
    64    62    61   ar
    65    31    28    1
    66    60    61    1
    67    60    57    1
    68    64    66   ar
    69    28    27    1
    70    28    29    1
    71    59    58    2
    72    61    63   ar
    73    82    83    1
    74    58    57    1
    75    58    68   am
    76    66    67    1
    77    66    65   ar
    78    69    68    1
    79    69    72    1
    80    63    65   ar
    81    30    29    2
    82    57    56    1
    83    29    35   am
    84    73    72    1
    85    83    84    1
    86    35    36    1
    87    85    84   ar
    88    84    86   ar
    89    36    37    1
    90    36    39    1
    91    37    38    2
    92    46    47    1
    93    46    45    1
    94    46    49    1
    95    47    48    2
    96    42    44   ar
    97    42    40   ar
    98    44    43   ar
    99    40    39    1
   100    40    41   ar
   101    50    49    1
   102    50    51    1
   103    43    41   ar
   104    52    51    1
   105    52    53    2
   106    55    53    1
   107    53    54    1
