@<TRIPOS>MOLECULE
tmp/3vqbA00.pdb
 89 87 0 0 0
SMALL
GASTEIGER

@<TRIPOS>ATOM
      1  N         15.2950   16.2590   13.7160 N.3    27  TYR27      -0.1241
      2  CA        15.4080   17.2420   12.6250 C.3    27  TYR27       0.1605
      3  C         16.8070   17.2880   12.0640 C.2    27  TYR27       0.2264
      4  O         17.7950   17.2310   12.8280 O.2    27  TYR27      -0.2867
      5  CB        14.9530   18.6150   13.1230 C.3    27  TYR27       0.0534
      6  CG        15.1950   19.8270   12.2210 C.ar   27  TYR27      -0.0201
      7  CD1       14.1590   20.3390   11.4410 C.ar   27  TYR27      -0.0009
      8  CD2       16.4300   20.4590   12.1610 C.ar   27  TYR27      -0.0009
      9  CE1       14.3070   21.4710   10.6320 C.ar   27  TYR27       0.0417
     10  CE2       16.5920   21.6080   11.3560 C.ar   27  TYR27       0.0417
     11  CZ        15.5080   22.0640   10.5750 C.ar   27  TYR27       0.1957
     12  OH        15.5870   23.1820    9.7960 O.3    27  TYR27      -0.2866
     13  N         20.2740   27.7620   14.3250 N.3    52  TRP52      -0.1241
     14  CA        19.6210   27.0720   15.5120 C.3    52  TRP52       0.1605
     15  C         20.4710   27.2730   16.7500 C.2    52  TRP52       0.2264
     16  O         21.6910   27.5050   16.6510 O.2    52  TRP52      -0.2867
     17  CB        19.4500   25.5850   15.2900 C.3    52  TRP52       0.0550
     18  CG        18.5650   25.2480   14.1580 C.ar   52  TRP52       0.0003
     19  CD1       18.9310   24.8610   12.8800 C.ar   52  TRP52       0.0946
     20  CD2       17.1020   25.3070   14.1600 C.ar   52  TRP52       0.0152
     21  NE1       17.7950   24.6520   12.1130 N.ar   52  TRP52      -0.2442
     22  CE2       16.6780   24.9190   12.8380 C.ar   52  TRP52       0.0810
     23  CE3       16.1370   25.6300   15.1270 C.ar   52  TRP52       0.0012
     24  CZ2       15.3470   24.8550   12.4900 C.ar   52  TRP52       0.0191
     25  CZ3       14.7900   25.5820   14.7650 C.ar   52  TRP52       0.0001
     26  CH2       14.4020   25.1830   13.4820 C.ar   52  TRP52       0.0015
     27  N         14.2690   18.1090    2.9040 N.3   115  PHE115     -0.1241
     28  CA        12.8460   18.5410    2.9030 C.3   115  PHE115      0.1605
     29  C         11.8560   17.3950    3.2700 C.2   115  PHE115      0.2264
     30  O         11.0410   17.5450    4.1680 O.2   115  PHE115     -0.2867
     31  CB        12.5120   19.1290    1.5270 C.3   115  PHE115      0.0534
     32  CG        11.1280   19.6450    1.3980 C.ar  115  PHE115     -0.0203
     33  CD1       10.9100   21.0490    1.2250 C.ar  115  PHE115     -0.0042
     34  CD2       10.0190   18.7810    1.3770 C.ar  115  PHE115     -0.0042
     35  CE1        9.5990   21.5170    1.0710 C.ar  115  PHE115     -0.0003
     36  CE2        8.7210   19.2610    1.2280 C.ar  115  PHE115     -0.0003
     37  CZ         8.4930   20.6550    1.0810 C.ar  115  PHE115     -0.0000
     38  N         12.2830   16.2410    7.0810 N.3   118  ASN118     -0.1225
     39  CA        11.8330   17.1710    8.1040 C.3   118  ASN118      0.1785
     40  C         10.3320   17.4470    8.0950 C.2   118  ASN118      0.2597
     41  O          9.8240   18.0200    9.0590 O.2   118  ASN118     -0.2718
     42  CB        12.5700   18.4650    7.9670 C.3   118  ASN118      0.1169
     43  CG        14.0360   18.3430    8.3750 C.2   118  ASN118      0.2627
     44  OD1       14.4050   17.4250    9.0970 O.2   118  ASN118     -0.2716
     45  ND2       14.8360   19.3310    8.0080 N.am  118  ASN118     -0.0877
     46  N          9.6810   17.1380    6.9660 N.am  119  HIS119     -0.1975
     47  CA         8.2320   17.2340    6.8170 C.3   119  HIS119      0.1656
     48  C          7.4850   15.9570    7.1460 C.2   119  HIS119      0.2291
     49  O          6.2890   16.0000    7.2140 O.2   119  HIS119     -0.2864
     50  CB         7.8500   17.6910    5.3900 C.3   119  HIS119      0.0771
     51  CG         8.1030   19.1730    5.1240 C.ar  119  HIS119      0.0820
     52  ND1        9.3190   19.6530    4.7440 N.ar  119  HIS119     -0.2267
     53  CD2        7.2240   20.2770    5.1340 C.ar  119  HIS119      0.1154
     54  CE1        9.2470   21.0110    4.6020 C.ar  119  HIS119      0.1986
     55  NE2        7.9570   21.3850    4.8110 N.ar  119  HIS119     -0.2212
     56  N          5.7670   16.1180   12.6860 N.3   129  SER129     -0.1217
     57  CA         7.0260   15.9740   11.9300 C.3   129  SER129      0.1889
     58  C          8.2250   16.4330   12.7930 C.2   129  SER129      0.2288
     59  O          8.0250   17.1660   13.7840 O.2   129  SER129     -0.2866
     60  CB         6.9470   16.8900   10.7270 C.3   129  SER129      0.2089
     61  OG         7.1680   18.1890   11.2120 O.3   129  SER129     -0.2183
     62  N         10.2880   18.7740   11.9800 N.3   131  GLY131     -0.1210
     63  CA        10.2310   20.2450   11.9250 C.3   131  GLY131      0.1956
     64  C          9.3010   20.8530   12.9880 C.2   131  GLY131      0.2611
     65  O          9.5940   21.9290   13.5940 O.2   131  GLY131     -0.2717
     66  N          8.1650   20.1800   13.2010 N.am  132  GLU132     -0.1979
     67  CA         7.2250   20.5570   14.2630 C.3   132  GLU132      0.1602
     68  C          7.7880   20.3060   15.6300 C.2   132  GLU132      0.2287
     69  O          7.6240   21.1320   16.5230 O.2   132  GLU132     -0.2864
     70  CB         5.8950   19.8010   14.0970 C.3   132  GLU132      0.0415
     71  CG         5.0760   20.4020   12.9600 C.3   132  GLU132      0.1163
     72  CD         3.9140   19.4920   12.5480 C.2   132  GLU132      0.3649
     73  OE1        3.9550   18.2690   12.7220 O.co2 132  GLU132     -0.2457
     74  OE2        2.9470   20.0360   12.0380 O.co2 132  GLU132     -0.2457
     75  N         11.0660   20.1460   16.5610 N.3   134  ILE134     -0.1231
     76  CA        12.1790   21.0120   16.9270 C.3   134  ILE134      0.1692
     77  C         11.6830   22.4130   17.3840 C.2   134  ILE134      0.2591
     78  O         12.1480   22.8990   18.4480 O.2   134  ILE134     -0.2718
     79  CB        13.2640   21.1350   15.8590 C.3   134  ILE134      0.0266
     80  CG1       14.5140   21.8630   16.4490 C.3   134  ILE134      0.0019
     81  CG2       12.6780   21.8630   14.6450 C.3   134  ILE134      0.0020
     82  CD1       15.7890   21.8210   15.5510 C.3   134  ILE134      0.0001
     83  N         10.7210   23.0420   16.6840 N.am  135  VAL135     -0.1980
     84  CA        10.2460   24.3810   17.1470 C.3   135  VAL135      0.1595
     85  C          9.5430   24.2650   18.5050 C.2   135  VAL135      0.2287
     86  O          9.7930   25.0740   19.3650 O.2   135  VAL135     -0.2864
     87  CB         9.4330   25.2260   16.1170 C.3   135  VAL135      0.0276
     88  CG1       10.1620   25.2040   14.7700 C.3   135  VAL135      0.0022
     89  CG2        8.0070   24.7320   15.9800 C.3   135  VAL135      0.0022
@<TRIPOS>BOND
     1    35    37   ar
     2    35    33   ar
     3    37    36   ar
     4    33    32   ar
     5    36    34   ar
     6    34    32   ar
     7    32    31    1
     8    31    28    1
     9    28    27    1
    10    28    29    1
    11    29    30    2
    12    54    52   ar
    13    54    55   ar
    14    52    51   ar
    15    55    53   ar
    16    51    53   ar
    17    51    50    1
    18    50    47    1
    19    47    46    1
    20    47    48    1
    21    46    40   am
    22    38    39    1
    23    48    49    2
    24    42    39    1
    25    42    43    1
    26    45    43   am
    27    40    39    1
    28    40    41    2
    29    43    44    2
    30    12    11    1
    31    11     9   ar
    32    11    10   ar
    33     9     7   ar
    34    60    61    1
    35    60    57    1
    36    10     8   ar
    37     7     6   ar
    38    63    62    1
    39    63    64    1
    40    57    56    1
    41    57    58    1
    42    74    72   ar
    43     3     2    1
    44     3     4    2
    45    21    22   ar
    46    21    19   ar
    47     8     6   ar
    48     6     5    1
    49    24    22   ar
    50    24    26   ar
    51    72    73   ar
    52    72    71    1
    53     2     5    1
    54     2     1    1
    55    58    59    2
    56    22    20   ar
    57    19    18   ar
    58    71    70    1
    59    64    66   am
    60    64    65    2
    61    66    67    1
    62    26    25   ar
    63    70    67    1
    64    18    20   ar
    65    18    17    1
    66    20    23   ar
    67    67    68    1
    68    13    14    1
    69    81    79    1
    70    25    23   ar
    71    88    87    1
    72    17    14    1
    73    14    15    1
    74    82    80    1
    75    68    69    2
    76    79    80    1
    77    79    76    1
    78    89    87    1
    79    87    84    1
    80    75    76    1
    81    16    15    2
    82    83    84    1
    83    83    77   am
    84    76    77    1
    85    84    85    1
    86    77    78    2
    87    85    86    2
