@<TRIPOS>MOLECULE
tmp/3vqcA00.pdb
 89 86 0 0 0
SMALL
GASTEIGER

@<TRIPOS>ATOM
      1  N          0.1610   29.7140   34.1250 N.3    27  TYR27      -0.1241
      2  CA         1.1150   29.6550   33.0330 C.3    27  TYR27       0.1605
      3  C          1.1230   28.2690   32.4430 C.2    27  TYR27       0.2264
      4  O          1.0830   27.2620   33.1840 O.2    27  TYR27      -0.2867
      5  CB         2.4870   29.9620   33.5790 C.3    27  TYR27       0.0534
      6  CG         3.6440   29.7120   32.6580 C.ar   27  TYR27      -0.0201
      7  CD1        4.1790   30.7610   31.9110 C.ar   27  TYR27      -0.0009
      8  CD2        4.2650   28.4750   32.5850 C.ar   27  TYR27      -0.0009
      9  CE1        5.2870   30.6050   31.1130 C.ar   27  TYR27       0.0417
     10  CE2        5.3760   28.2950   31.7710 C.ar   27  TYR27       0.0417
     11  CZ         5.8550   29.3850   31.0240 C.ar   27  TYR27       0.1957
     12  OH         6.9420   29.3060   30.2070 O.3    27  TYR27      -0.2866
     13  N         11.9350   25.2040   34.9340 N.3    52  TRP52      -0.1241
     14  CA        11.3690   25.8350   36.0740 C.3    52  TRP52       0.1605
     15  C         11.6890   25.0240   37.3000 C.2    52  TRP52       0.2264
     16  O         12.0810   23.8510   37.1930 O.2    52  TRP52      -0.2867
     17  CB         9.8650   25.9480   35.9070 C.3    52  TRP52       0.0550
     18  CG         9.4520   26.7790   34.7220 C.ar   52  TRP52       0.0003
     19  CD1        9.0720   26.3320   33.4500 C.ar   52  TRP52       0.0946
     20  CD2        9.3350   28.2320   34.6700 C.ar   52  TRP52       0.0152
     21  NE1        8.7330   27.3880   32.6340 N.ar   52  TRP52      -0.2442
     22  CE2        8.8670   28.5620   33.3110 C.ar   52  TRP52       0.0810
     23  CE3        9.5520   29.2620   35.5810 C.ar   52  TRP52       0.0012
     24  CZ2        8.6460   29.8630   32.9100 C.ar   52  TRP52       0.0191
     25  CZ3        9.3250   30.5770   35.1590 C.ar   52  TRP52       0.0001
     26  CH2        8.8730   30.8640   33.8550 C.ar   52  TRP52       0.0015
     27  N         -0.1470   32.5940   27.5340 N.3   118  ASN118     -0.1225
     28  CA         0.7930   33.1710   28.4750 C.3   118  ASN118      0.1785
     29  C          0.9120   34.7240   28.4760 C.2   118  ASN118      0.2597
     30  O          1.2280   35.3330   29.5120 O.2   118  ASN118     -0.2718
     31  CB         2.1490   32.4720   28.2970 C.3   118  ASN118      0.1169
     32  CG         2.1150   31.0330   28.8100 C.2   118  ASN118      0.2627
     33  OD1        1.2030   30.6440   29.5360 O.2   118  ASN118     -0.2716
     34  ND2        3.0900   30.2490   28.4370 N.am  118  ASN118     -0.0877
     35  N          0.6560   35.3590   27.3320 N.am  119  HIS119     -0.1975
     36  CA         0.7300   36.8390   27.2390 C.3   119  HIS119      0.1656
     37  C         -0.5450   37.6180   27.5150 C.2   119  HIS119      0.2291
     38  O         -0.4960   38.8180   27.6700 O.2   119  HIS119     -0.2864
     39  CB         1.2730   37.2280   25.8840 C.3   119  HIS119      0.0771
     40  CG         2.7470   36.9150   25.7090 C.ar  119  HIS119      0.0820
     41  ND1        3.2000   35.6910   25.3350 N.ar  119  HIS119     -0.2267
     42  CD2        3.8630   37.7180   25.8350 C.ar  119  HIS119      0.1154
     43  CE1        4.5330   35.7220   25.2240 C.ar  119  HIS119      0.1986
     44  NE2        4.9410   36.9640   25.5350 N.ar  119  HIS119     -0.2212
     45  N         -3.5060   39.5050   29.2060 N.3   121  ARG121     -0.1245
     46  CA        -3.8120   40.2240   30.4560 C.3   121  ARG121      0.1563
     47  C         -5.0440   39.5940   31.0400 C.2   121  ARG121      0.2260
     48  O         -6.0350   39.4220   30.3410 O.2   121  ARG121     -0.2867
     49  CB        -4.0610   41.7280   30.2470 C.3   121  ARG121      0.0307
     50  CG        -2.8800   42.5080   29.6860 C.3   121  ARG121      0.0489
     51  CD        -1.6270   42.3920   30.5620 C.3   121  ARG121      0.2205
     52  NE        -0.9470   43.6750   30.7780 N.pl3 121  ARG121     -0.0865
     53  CZ        -1.5530   44.7810   31.2070 C.cat 121  ARG121      0.5346
     54  NH1       -0.8600   45.8990   31.3960 N.pl3 121  ARG121      0.1354
     55  NH2       -2.8630   44.7700   31.4370 N.pl3 121  ARG121      0.1354
     56  N         -0.3840   39.1300   33.1240 N.3   129  SER129     -0.1217
     57  CA        -0.5970   37.9190   32.3510 C.3   129  SER129      0.1889
     58  C         -0.0420   36.7230   33.1480 C.2   129  SER129      0.2288
     59  O          0.7260   36.9180   34.1090 O.2   129  SER129     -0.2866
     60  CB         0.1910   38.0550   31.0610 C.3   129  SER129      0.2089
     61  OG         1.5630   38.1640   31.4220 O.3   129  SER129     -0.2183
     62  N          2.3630   34.7920   32.1470 N.3   131  GLY131     -0.1210
     63  CA         3.8040   34.8180   32.0450 C.3   131  GLY131      0.1956
     64  C          4.3280   35.7150   33.1470 C.2   131  GLY131      0.2611
     65  O          5.3540   35.4250   33.7550 O.2   131  GLY131     -0.2717
     66  N          3.5970   36.7910   33.4350 N.am  132  GLU132     -0.1979
     67  CA         4.0580   37.7010   34.4870 C.3   132  GLU132      0.1602
     68  C          3.8910   37.1070   35.8710 C.2   132  GLU132      0.2287
     69  O          4.7970   37.2120   36.6740 O.2   132  GLU132     -0.2864
     70  CB         3.4010   39.0770   34.4000 C.3   132  GLU132      0.0415
     71  CG         4.0060   39.8980   33.2670 C.3   132  GLU132      0.1163
     72  CD         3.1180   41.0260   32.7020 C.2   132  GLU132      0.3649
     73  OE1        1.8910   41.1070   32.9830 O.co2 132  GLU132     -0.2457
     74  OE2        3.6780   41.8460   31.9240 O.co2 132  GLU132     -0.2457
     75  N          3.9570   34.0410   37.0120 N.3   134  ILE134     -0.1231
     76  CA         4.7640   32.8850   37.4020 C.3   134  ILE134      0.1692
     77  C          6.1190   33.3780   37.8700 C.2   134  ILE134      0.2591
     78  O          6.5110   33.0460   38.9720 O.2   134  ILE134     -0.2718
     79  CB         4.8680   31.7430   36.3420 C.3   134  ILE134      0.0266
     80  CG1        5.7310   30.5980   36.9020 C.3   134  ILE134      0.0019
     81  CG2        5.4800   32.2480   35.0280 C.3   134  ILE134      0.0020
     82  CD1        5.6780   29.3450   36.0310 C.3   134  ILE134      0.0001
     83  N          6.7770   34.2220   37.0710 N.am  135  VAL135     -0.1980
     84  CA         8.0430   34.8730   37.4590 C.3   135  VAL135      0.1595
     85  C          7.9530   35.6710   38.7800 C.2   135  VAL135      0.2287
     86  O          8.8420   35.6120   39.6190 O.2   135  VAL135     -0.2864
     87  CB         8.6760   35.7690   36.3460 C.3   135  VAL135      0.0276
     88  CG1        8.9200   34.9860   35.0450 C.3   135  VAL135      0.0022
     89  CG2        7.8510   37.0320   36.1060 C.3   135  VAL135      0.0022
@<TRIPOS>BOND
     1    43    41   ar
     2    43    44   ar
     3    41    40   ar
     4    44    42   ar
     5    40    42   ar
     6    40    39    1
     7    39    36    1
     8    36    35    1
     9    36    37    1
    10    35    29   am
    11    37    38    2
    12    27    28    1
    13    31    28    1
    14    31    32    1
    15    34    32   am
    16    28    29    1
    17    29    30    2
    18    32    33    2
    19    45    46    1
    20    50    49    1
    21    50    51    1
    22    12    11    1
    23    49    46    1
    24    48    47    2
    25    46    47    1
    26    51    52    1
    27    52    53    2
    28    11     9   ar
    29    11    10   ar
    30    60    61    1
    31    60    57    1
    32     9     7   ar
    33    53    54    1
    34    53    55    1
    35    10     8   ar
    36     7     6   ar
    37    74    72   ar
    38    63    62    1
    39    63    64    1
    40    57    56    1
    41    57    58    1
    42     3     2    1
    43     3     4    2
    44     8     6   ar
    45    21    22   ar
    46    21    19   ar
    47     6     5    1
    48    72    73   ar
    49    72    71    1
    50    24    22   ar
    51    24    26   ar
    52     2     5    1
    53     2     1    1
    54    64    66   am
    55    64    65    2
    56    58    59    2
    57    71    70    1
    58    22    20   ar
    59    66    67    1
    60    19    18   ar
    61    26    25   ar
    62    70    67    1
    63    67    68    1
    64    20    18   ar
    65    20    23   ar
    66    18    17    1
    67    13    14    1
    68    81    79    1
    69    88    87    1
    70    25    23   ar
    71    68    69    2
    72    17    14    1
    73    82    80    1
    74    14    15    1
    75    89    87    1
    76    79    80    1
    77    79    76    1
    78    87    84    1
    79    75    76    1
    80    83    84    1
    81    83    77   am
    82    16    15    2
    83    76    77    1
    84    84    85    1
    85    77    78    2
    86    85    86    2
