@<TRIPOS>MOLECULE
tmp/3vqgA00.pdb
 112 108 0 0 0
SMALL
GASTEIGER

@<TRIPOS>ATOM
      1  N        -26.8430    2.7890    7.6990 N.3    14  GLN14      -0.1231
      2  CA       -26.0680    3.4130    6.6410 C.3    14  GLN14       0.1698
      3  C        -24.6340    3.6220    7.1010 C.2    14  GLN14       0.2592
      4  O        -24.3670    3.7630    8.2910 O.2    14  GLN14      -0.2718
      5  CB       -26.6880    4.7520    6.2530 C.3    14  GLN14       0.0381
      6  CG       -28.1000    4.6390    5.7510 C.3    14  GLN14       0.0905
      7  CD       -28.8860    5.9100    5.9650 C.2    14  GLN14       0.2608
      8  OE1      -28.5950    6.7010    6.8710 O.2    14  GLN14      -0.2717
      9  NE2      -29.8950    6.1140    5.1360 N.am   14  GLN14      -0.0878
     10  N        -23.7110    3.6500    6.1490 N.am   15  LEU15      -0.1966
     11  CA       -22.3080    3.9030    6.4620 C.3    15  LEU15       0.1728
     12  C        -22.0350    5.3820    6.7220 C.2    15  LEU15       0.2617
     13  O        -21.0030    5.7460    7.2910 O.2    15  LEU15      -0.2715
     14  CB       -21.4270    3.4270    5.3150 C.3    15  LEU15       0.0311
     15  CG       -21.5620    1.9500    4.9490 C.3    15  LEU15       0.0022
     16  CD1      -20.6170    1.6240    3.8040 C.3    15  LEU15       0.0001
     17  CD2      -21.2790    1.0820    6.1570 C.3    15  LEU15       0.0001
     18  N        -22.9470    6.2400    6.2870 N.am   16  GLY16      -0.1940
     19  CA       -22.7490    7.6710    6.4240 C.3    16  GLY16       0.2014
     20  C        -21.7470    8.1800    5.4060 C.2    16  GLY16       0.2639
     21  O        -20.7960    8.8820    5.7480 O.2    16  GLY16      -0.2714
     22  N        -21.9470    7.8130    4.1470 N.am   17  ILE17      -0.1963
     23  CA       -21.1230    8.3040    3.0510 C.3    17  ILE17       0.1727
     24  C        -22.0610    8.7470    1.9480 C.2    17  ILE17       0.2616
     25  O        -22.9930    8.0220    1.6020 O.2    17  ILE17      -0.2715
     26  CB       -20.2160    7.1970    2.4720 C.3    17  ILE17       0.0290
     27  CG1      -19.4070    6.5170    3.5780 C.3    17  ILE17       0.0022
     28  CG2      -19.2900    7.7670    1.3960 C.3    17  ILE17       0.0023
     29  CD1      -18.7410    5.2180    3.1370 C.3    17  ILE17       0.0001
     30  N        -21.8330    9.9250    1.3880 N.am   18  LYS18      -0.1963
     31  CA       -22.5490   10.3210    0.1870 C.3    18  LYS18       0.1728
     32  C        -21.6570   10.0830   -1.0220 C.2    18  LYS18       0.2616
     33  O        -20.4990   10.5080   -1.0420 O.2    18  LYS18      -0.2715
     34  CB       -23.0330   11.7720    0.2700 C.3    18  LYS18       0.0311
     35  CG       -24.1580   11.9240    1.2930 C.3    18  LYS18       0.0038
     36  CD       -24.7160   13.3290    1.4010 C.3    18  LYS18       0.0206
     37  CE       -25.8970   13.3600    2.3690 C.3    18  LYS18       0.1093
     38  NZ       -26.3950   14.7410    2.6150 N.3    18  LYS18      -0.1314
     39  N        -22.2040    9.3750   -2.0050 N.am   19  LEU19      -0.1963
     40  CA       -21.4900    9.0220   -3.2230 C.3    19  LEU19       0.1728
     41  C        -22.0140    9.8080   -4.4130 C.2    19  LEU19       0.2616
     42  O        -23.2010   10.1440   -4.4760 O.2    19  LEU19      -0.2715
     43  CB       -21.6390    7.5280   -3.5070 C.3    19  LEU19       0.0311
     44  CG       -21.0920    6.5930   -2.4290 C.3    19  LEU19       0.0022
     45  CD1      -21.4160    5.1420   -2.7800 C.3    19  LEU19       0.0001
     46  CD2      -19.5980    6.7930   -2.2390 C.3    19  LEU19       0.0001
     47  N        -21.1290   10.0900   -5.3650 N.am   20  VAL20      -0.1963
     48  CA       -21.5150   10.8170   -6.5680 C.3    20  VAL20       0.1727
     49  C        -20.8700   10.2330   -7.8100 C.2    20  VAL20       0.2616
     50  O        -19.8580    9.5340   -7.7380 O.2    20  VAL20      -0.2715
     51  CB       -21.1130   12.3040   -6.5030 C.3    20  VAL20       0.0290
     52  CG1      -21.9100   13.0280   -5.4470 C.3    20  VAL20       0.0023
     53  CG2      -19.6130   12.4520   -6.2680 C.3    20  VAL20       0.0023
     54  N        -21.4690   10.5290   -8.9540 N.am   21  ARG21      -0.1977
     55  CA       -20.8270   10.2670  -10.2300 C.3    21  ARG21       0.1597
     56  C        -20.3340   11.5920  -10.7950 C.2    21  ARG21       0.2287
     57  O        -20.7010   12.6560  -10.3040 O.2    21  ARG21      -0.2864
     58  CB       -21.8090    9.6130  -11.1890 C.3    21  ARG21       0.0334
     59  CG       -22.9450   10.5070  -11.6130 C.3    21  ARG21       0.0492
     60  CD       -24.1250    9.6700  -12.0440 C.3    21  ARG21       0.2205
     61  NE       -25.2180    9.7480  -11.0870 N.pl3  21  ARG21      -0.0865
     62  CZ       -26.0270    8.7350  -10.8090 C.cat  21  ARG21       0.5346
     63  NH1      -27.0010    8.8900   -9.9250 N.pl3  21  ARG21       0.1354
     64  NH2      -25.8500    7.5630  -11.4120 N.pl3  21  ARG21       0.1354
     65  N        -18.4090   11.9950   -2.0340 N.3    31  PHE31      -0.1241
     66  CA       -18.7290   13.4160   -1.9820 C.3    31  PHE31       0.1605
     67  C        -18.4900   13.9570   -0.5870 C.2    31  PHE31       0.2264
     68  O        -17.8950   15.0240   -0.4170 O.2    31  PHE31      -0.2867
     69  CB       -20.1870   13.6290   -2.3830 C.3    31  PHE31       0.0534
     70  CG       -20.6410   15.0520   -2.2790 C.ar   31  PHE31      -0.0203
     71  CD1      -20.3570   15.9470   -3.2890 C.ar   31  PHE31      -0.0042
     72  CD2      -21.3570   15.4930   -1.1740 C.ar   31  PHE31      -0.0042
     73  CE1      -20.7780   17.2670   -3.2000 C.ar   31  PHE31      -0.0003
     74  CE2      -21.7810   16.8050   -1.0800 C.ar   31  PHE31      -0.0003
     75  CZ       -21.4860   17.6910   -2.0920 C.ar   31  PHE31      -0.0000
     76  N        -20.2550   11.6110    6.5400 N.3    34  LEU34      -0.1245
     77  CA       -21.0940   12.2330    7.5570 C.3    34  LEU34       0.1561
     78  C        -20.4660   12.1290    8.9380 C.2    34  LEU34       0.2260
     79  O        -20.0180   11.0660    9.3450 O.2    34  LEU34      -0.2867
     80  CB       -22.4880   11.5970    7.5510 C.3    34  LEU34       0.0270
     81  CG       -23.4410   12.0280    6.4290 C.3    34  LEU34       0.0019
     82  CD1      -22.9510   11.6580    5.0310 C.3    34  LEU34       0.0001
     83  CD2      -24.8090   11.4350    6.6700 C.3    34  LEU34       0.0001
     84  N        -23.4340    5.0600   -8.3320 N.3    64  PRO64      -0.2102
     85  CA       -23.7160    5.1930   -6.9010 C.3    64  PRO64       0.1504
     86  C        -24.9290    4.3500   -6.4850 C.2    64  PRO64       0.2575
     87  O        -24.9770    3.8450   -5.3620 O.2    64  PRO64      -0.2718
     88  CB       -23.9970    6.6930   -6.7430 C.3    64  PRO64       0.0282
     89  CG       -23.2050    7.3310   -7.8720 C.3    64  PRO64       0.0208
     90  CD       -23.3490    6.3670   -9.0120 C.3    64  PRO64       0.0893
     91  N        -25.8970    4.1930   -7.3810 N.am   65  GLU65      -0.1980
     92  CA       -27.0820    3.4050   -7.0560 C.3    65  GLU65       0.1602
     93  C        -26.7120    1.9440   -6.8180 C.2    65  GLU65       0.2287
     94  O        -27.2160    1.3110   -5.8870 O.2    65  GLU65      -0.2864
     95  CB       -28.1480    3.5140   -8.1510 C.3    65  GLU65       0.0415
     96  CG       -28.7940    4.8910   -8.2880 C.3    65  GLU65       0.1163
     97  CD       -28.0000    5.8440   -9.1650 C.2    65  GLU65       0.3649
     98  OE1      -26.9170    5.4800   -9.6750 O.co2  65  GLU65      -0.2457
     99  OE2      -28.4800    6.9740   -9.3570 O.co2  65  GLU65      -0.2457
    100  N        -25.0270    1.6600   -3.4350 N.3    68  ALA68      -0.1245
    101  CA       -26.0020    1.6690   -2.3500 C.3    68  ALA68       0.1562
    102  C        -26.6580    0.3070   -2.1790 C.2    68  ALA68       0.2260
    103  O        -26.8230   -0.1800   -1.0610 O.2    68  ALA68      -0.2867
    104  CB       -27.0650    2.7450   -2.6080 C.3    68  ALA68       0.0290
    105  N        -24.1520   -2.1770   -0.6630 N.3    71  ILE71      -0.1245
    106  CA       -23.9170   -1.8950    0.7480 C.3    71  ILE71       0.1561
    107  C        -25.0910   -2.3760    1.5910 C.2    71  ILE71       0.2260
    108  O        -24.9070   -2.9960    2.6340 O.2    71  ILE71      -0.2867
    109  CB       -23.6130   -0.4030    0.9600 C.3    71  ILE71       0.0252
    110  CG1      -22.2440   -0.0890    0.3480 C.3    71  ILE71       0.0019
    111  CG2      -23.6380   -0.0320    2.4410 C.3    71  ILE71       0.0019
    112  CD1      -21.9810    1.3860    0.1200 C.3    71  ILE71       0.0001
@<TRIPOS>BOND
     1    60    59    1
     2    60    61    1
     3    59    58    1
     4    64    62    1
     5    58    55    1
     6    61    62    2
     7    62    63    1
     8    56    57    2
     9    56    55    1
    10    55    54    1
    11    98    97   ar
    12    99    97   ar
    13    97    96    1
    14    90    84    1
    15    90    89    1
    16    54    49   am
    17    84    85    1
    18    96    95    1
    19    95    92    1
    20    89    88    1
    21    49    50    2
    22    49    48    1
    23    91    92    1
    24    91    86   am
    25    92    93    1
    26    85    88    1
    27    85    86    1
    28    93    94    2
    29    48    51    1
    30    48    47    1
    31    51    53    1
    32    51    52    1
    33    86    87    2
    34    47    41   am
    35    42    41    2
    36    41    40    1
    37    43    40    1
    38    43    44    1
    39   100   101    1
    40    71    73   ar
    41    71    70   ar
    42    40    39    1
    43    73    75   ar
    44    45    44    1
    45   104   101    1
    46    44    46    1
    47    69    70    1
    48    69    66    1
    49   101   102    1
    50    70    72   ar
    51   102   103    2
    52    75    74   ar
    53    65    66    1
    54    39    32   am
    55    66    67    1
    56    72    74   ar
    57    33    32    2
    58    32    31    1
    59   105   106    1
    60    67    68    2
    61   112   110    1
    62    31    34    1
    63    31    30    1
    64    34    35    1
    65   110   109    1
    66   106   109    1
    67   106   107    1
    68   109   111    1
    69    35    36    1
    70    30    24   am
    71    28    26    1
    72    36    37    1
    73   107   108    2
    74    25    24    2
    75    24    23    1
    76    37    38    1
    77    26    23    1
    78    26    27    1
    79    23    22    1
    80    29    27    1
    81    16    15    1
    82    22    20   am
    83    15    14    1
    84    15    17    1
    85    82    81    1
    86     9     7   am
    87    14    11    1
    88    20    21    2
    89    20    19    1
    90     6     7    1
    91     6     5    1
    92     7     8    2
    93    10    11    1
    94    10     3   am
    95     5     2    1
    96    18    19    1
    97    18    12   am
    98    81    83    1
    99    81    80    1
   100    11    12    1
   101    76    77    1
   102     2     3    1
   103     2     1    1
   104    12    13    2
   105     3     4    2
   106    80    77    1
   107    77    78    1
   108    78    79    2
