@<TRIPOS>MOLECULE
tmp/3vqiB00.pdb
 107 107 0 0 0
SMALL
GASTEIGER

@<TRIPOS>ATOM
      1  N         15.0040    6.9890   42.9290 N.3    44  TYR44      -0.1227
      2  CA        14.3160    8.2650   42.9370 C.3    44  TYR44       0.1736
      3  C         14.0290    8.7320   41.5150 C.2    44  TYR44       0.2595
      4  O         14.8310    8.4890   40.6140 O.2    44  TYR44      -0.2718
      5  CB        15.1840    9.2910   43.6520 C.3    44  TYR44       0.0548
      6  CG        15.3590    9.0360   45.1360 C.ar   44  TYR44      -0.0200
      7  CD1       14.3620    9.3900   46.0410 C.ar   44  TYR44      -0.0009
      8  CD2       16.5380    8.4780   45.6370 C.ar   44  TYR44      -0.0009
      9  CE1       14.5310    9.2120   47.4120 C.ar   44  TYR44       0.0417
     10  CE2       16.7160    8.2860   47.0010 C.ar   44  TYR44       0.0417
     11  CZ        15.7090    8.6640   47.8880 C.ar   44  TYR44       0.1957
     12  OH        15.9020    8.5470   49.2460 O.3    44  TYR44      -0.2866
     13  N         12.8900    9.3950   41.3110 N.am   45  LEU45      -0.1966
     14  CA        12.5110    9.9130   39.9890 C.3    45  LEU45       0.1728
     15  C         13.6020   10.7880   39.4000 C.2    45  LEU45       0.2616
     16  O         13.8510   10.7720   38.1940 O.2    45  LEU45      -0.2715
     17  CB        11.2290   10.7470   40.0760 C.3    45  LEU45       0.0311
     18  CG         9.9290    9.9590   40.1980 C.3    45  LEU45       0.0022
     19  CD1        8.7610   10.9100   40.3950 C.3    45  LEU45       0.0001
     20  CD2        9.7520    9.1100   38.9420 C.3    45  LEU45       0.0001
     21  N         14.2370   11.5680   40.2670 N.am   46  GLY46      -0.1955
     22  CA        15.3030   12.4440   39.8430 C.3    46  GLY46       0.1869
     23  C         16.4100   11.6800   39.1580 C.2    46  GLY46       0.2309
     24  O         17.1700   12.2790   38.3940 O.2    46  GLY46      -0.2863
     25  N          8.8440   13.9370   44.4390 N.3    82  TRP82      -0.1227
     26  CA         9.9540   13.0550   44.1770 C.3    82  TRP82       0.1737
     27  C         11.0320   12.8180   45.2460 C.2    82  TRP82       0.2595
     28  O         12.0140   12.1340   44.9840 O.2    82  TRP82      -0.2718
     29  CB        10.6160   13.4690   42.8700 C.3    82  TRP82       0.0564
     30  CG        10.9860   14.9150   42.7760 C.ar   82  TRP82       0.0003
     31  CD1       11.0020   15.8380   43.7870 C.ar   82  TRP82       0.0946
     32  CD2       11.4210   15.6040   41.5990 C.ar   82  TRP82       0.0152
     33  NE1       11.4180   17.0580   43.3100 N.ar   82  TRP82      -0.2442
     34  CE2       11.6820   16.9410   41.9670 C.ar   82  TRP82       0.0810
     35  CE3       11.6180   15.2200   40.2660 C.ar   82  TRP82       0.0012
     36  CZ2       12.1290   17.8940   41.0520 C.ar   82  TRP82       0.0191
     37  CZ3       12.0620   16.1620   39.3600 C.ar   82  TRP82       0.0001
     38  CH2       12.3130   17.4850   39.7550 C.ar   82  TRP82       0.0015
     39  N         10.8730   13.3610   46.4420 N.am   83  GLU83      -0.1979
     40  CA        11.8770   13.1000   47.4680 C.3    83  GLU83       0.1602
     41  C         11.6410   11.7140   48.0650 C.2    83  GLU83       0.2287
     42  O         12.4230   11.2530   48.8810 O.2    83  GLU83      -0.2864
     43  CB        11.8730   14.1640   48.5750 C.3    83  GLU83       0.0415
     44  CG        10.5830   14.3180   49.3590 C.3    83  GLU83       0.1163
     45  CD         9.5990   15.3050   48.7330 C.2    83  GLU83       0.3649
     46  OE1        8.7300   15.8110   49.4800 O.co2  83  GLU83      -0.2457
     47  OE2        9.6760   15.5640   47.5100 O.co2  83  GLU83      -0.2457
     48  N          9.6250   20.1650   46.0760 N.3   116  LEU116     -0.1231
     49  CA        11.0160   20.5460   46.3400 C.3   116  LEU116      0.1678
     50  C         11.7710   20.6460   45.0240 C.2   116  LEU116      0.2434
     51  O         11.7730   19.7160   44.2180 O.2   116  LEU116     -0.2733
     52  CB        11.7140   19.5170   47.2340 C.3   116  LEU116      0.0284
     53  CG        11.2090   19.2760   48.6570 C.3   116  LEU116      0.0019
     54  CD1       11.8810   18.0210   49.1720 C.3   116  LEU116      0.0001
     55  CD2       11.5000   20.4720   49.5750 C.3   116  LEU116      0.0001
     56  N         12.3990   21.7910   44.7700 N.am  117  PRO117     -0.2718
     57  CA        13.1150   21.8500   43.5020 C.3   117  PRO117      0.1535
     58  C         14.3870   21.0110   43.5070 C.2   117  PRO117      0.2598
     59  O         15.1090   20.9780   44.4960 O.2   117  PRO117     -0.2715
     60  CB        13.3880   23.3490   43.3230 C.3   117  PRO117      0.0310
     61  CG        13.3430   23.8980   44.6980 C.3   117  PRO117      0.0237
     62  CD        12.2180   23.1360   45.3410 C.3   117  PRO117      0.0939
     63  N         14.6290   20.3070   42.4040 N.am  118  LEU118     -0.1978
     64  CA        15.8270   19.4960   42.2490 C.3   118  LEU118      0.1596
     65  C         16.7470   20.4080   41.4410 C.2   118  LEU118      0.2287
     66  O         16.4470   20.7370   40.2990 O.2   118  LEU118     -0.2864
     67  CB        15.5300   18.2160   41.4480 C.3   118  LEU118      0.0297
     68  CG        16.3220   16.9580   41.8420 C.3   118  LEU118      0.0022
     69  CD1       16.4620   16.0260   40.6530 C.3   118  LEU118      0.0001
     70  CD2       17.7000   17.3550   42.3670 C.3   118  LEU118      0.0001
     71  N         22.5080   16.4310   44.9920 N.3   124  GLN124     -0.1231
     72  CA        21.4060   16.8650   45.8350 C.3   124  GLN124      0.1698
     73  C         20.6130   15.6720   46.3310 C.2   124  GLN124      0.2592
     74  O         20.2220   15.6160   47.4970 O.2   124  GLN124     -0.2718
     75  CB        20.4910   17.8110   45.0720 C.3   124  GLN124      0.0381
     76  CG        19.3840   18.3830   45.9210 C.3   124  GLN124      0.0905
     77  CD        18.5030   19.3490   45.1490 C.2   124  GLN124      0.2608
     78  OE1       18.9270   19.9460   44.1460 O.2   124  GLN124     -0.2717
     79  NE2       17.2740   19.5230   45.6200 N.am  124  GLN124     -0.0878
     80  N         20.3620   14.7170   45.4460 N.am  125  ILE125     -0.1980
     81  CA        19.6370   13.5210   45.8500 C.3   125  ILE125      0.1595
     82  C         20.4770   12.7440   46.8740 C.2   125  ILE125      0.2287
     83  O         19.9500   12.2730   47.8840 O.2   125  ILE125     -0.2864
     84  CB        19.3320   12.6370   44.6420 C.3   125  ILE125      0.0276
     85  CG1       18.3580   13.3680   43.7120 C.3   125  ILE125      0.0022
     86  CG2       18.7600   11.3090   45.1020 C.3   125  ILE125      0.0022
     87  CD1       18.1340   12.6720   42.3900 C.3   125  ILE125      0.0001
     88  N         22.6310   13.8610   49.0050 N.3   127  ASP127     -0.1225
     89  CA        22.5070   14.6120   50.2520 C.3   127  ASP127      0.1805
     90  C         21.2340   14.3110   51.0170 C.2   127  ASP127      0.2597
     91  O         21.2560   14.0440   52.2200 O.2   127  ASP127     -0.2718
     92  CB        22.5010   16.1010   49.9600 C.3   127  ASP127      0.1424
     93  CG        23.7700   16.7600   50.3440 C.2   127  ASP127      0.3668
     94  OD1       24.8080   16.3830   49.7530 O.co2 127  ASP127     -0.2456
     95  OD2       23.7170   17.6460   51.2350 O.co2 127  ASP127     -0.2456
     96  N         20.1170   14.3880   50.3120 N.am  128  TYR128     -0.1976
     97  CA        18.8210   14.1630   50.9200 C.3   128  TYR128      0.1639
     98  C         18.6740   12.7440   51.4430 C.2   128  TYR128      0.2290
     99  O         18.2160   12.5270   52.5620 O.2   128  TYR128     -0.2864
    100  CB        17.7160   14.5060   49.9090 C.3   128  TYR128      0.0560
    101  CG        16.3180   14.2470   50.4180 C.ar  128  TYR128     -0.0198
    102  CD1       15.7260   12.9990   50.2630 C.ar  128  TYR128     -0.0009
    103  CD2       15.6120   15.2310   51.1240 C.ar  128  TYR128     -0.0009
    104  CE1       14.4710   12.7300   50.8020 C.ar  128  TYR128      0.0417
    105  CE2       14.3530   14.9670   51.6640 C.ar  128  TYR128      0.0417
    106  CZ        13.7950   13.7140   51.4990 C.ar  128  TYR128      0.1957
    107  OH        12.5690   13.4300   52.0440 O.3   128  TYR128     -0.2866
@<TRIPOS>BOND
     1    16    15    2
     2    24    23    2
     3    20    18    1
     4    23    22    1
     5    37    38   ar
     6    37    35   ar
     7    15    14    1
     8    15    21   am
     9    38    36   ar
    10    22    21    1
    11    14    17    1
    12    14    13    1
    13    17    18    1
    14    18    19    1
    15    35    32   ar
    16    66    65    2
    17     4     3    2
    18    69    68    1
    19    36    34   ar
    20    13     3   am
    21    65    64    1
    22    67    68    1
    23    67    64    1
    24     3     2    1
    25    32    34   ar
    26    32    30   ar
    27    68    70    1
    28    34    33   ar
    29    64    63    1
    30    87    85    1
    31    63    58   am
    32    30    29    1
    33    30    31   ar
    34    29    26    1
    35     1     2    1
    36     2     5    1
    37    33    31   ar
    38    60    57    1
    39    60    61    1
    40    57    58    1
    41    57    56    1
    42    58    59    2
    43     5     6    1
    44    85    84    1
    45    78    77    2
    46    26    25    1
    47    26    27    1
    48    51    50    2
    49    84    86    1
    50    84    81    1
    51    61    62    1
    52    56    50   am
    53    56    62    1
    54    28    27    2
    55    71    72    1
    56    50    49    1
    57    75    72    1
    58    75    76    1
    59     6     8   ar
    60     6     7   ar
    61    77    79   am
    62    77    76    1
    63    27    39   am
    64    80    81    1
    65    80    73   am
    66     8    10   ar
    67    72    73    1
    68    81    82    1
    69     7     9   ar
    70    48    49    1
    71    73    74    2
    72    49    52    1
    73    39    40    1
    74    82    83    2
    75    10    11   ar
    76    52    53    1
    77     9    11   ar
    78    40    41    1
    79    40    43    1
    80    47    45   ar
    81    11    12    1
    82    41    42    2
    83    43    44    1
    84    53    54    1
    85    53    55    1
    86    45    44    1
    87    45    46   ar
    88    88    89    1
    89    94    93   ar
    90   100   101    1
    91   100    97    1
    92    92    89    1
    93    92    93    1
    94    89    90    1
    95   102   101   ar
    96   102   104   ar
    97    96    97    1
    98    96    90   am
    99    93    95   ar
   100   101   103   ar
   101   104   106   ar
   102    97    98    1
   103    90    91    2
   104   103   105   ar
   105    98    99    2
   106   106   105   ar
   107   106   107    1
