@<TRIPOS>MOLECULE
tmp/3vqmA00.pdb
 129 123 0 0 0
SMALL
GASTEIGER

@<TRIPOS>ATOM
      1  N         -5.4660  -72.1130   -1.1650 N.3    43  LYS43      -0.1231
      2  CA        -6.5540  -72.4410   -0.2490 C.3    43  LYS43       0.1693
      3  C         -6.1920  -72.1980    1.2170 C.2    43  LYS43       0.2591
      4  O         -7.0710  -72.0580    2.0650 O.2    43  LYS43      -0.2718
      5  CB        -7.0180  -73.8820   -0.4610 C.3    43  LYS43       0.0285
      6  CG        -5.9480  -74.9300   -0.2140 C.3    43  LYS43       0.0035
      7  CD        -6.3990  -76.2790   -0.7440 C.3    43  LYS43       0.0206
      8  CE        -7.7740  -76.6340   -0.2140 C.3    43  LYS43       0.1093
      9  NZ        -8.5670  -77.4110   -1.2090 N.3    43  LYS43      -0.1314
     10  N         -4.8960  -72.1370    1.5060 N.am   44  GLU44      -0.1979
     11  CA        -4.4260  -71.8360    2.8530 C.3    44  GLU44       0.1602
     12  C         -4.2690  -70.3270    3.0520 C.2    44  GLU44       0.2287
     13  O         -3.6250  -69.8790    4.0010 O.2    44  GLU44      -0.2864
     14  CB        -3.1060  -72.5590    3.1380 C.3    44  GLU44       0.0415
     15  CG        -3.1980  -73.6390    4.2120 C.3    44  GLU44       0.1163
     16  CD        -4.0800  -74.8080    3.8070 C.2    44  GLU44       0.3649
     17  OE1       -3.7170  -75.5310    2.8550 O.co2  44  GLU44      -0.2457
     18  OE2       -5.1360  -75.0060    4.4450 O.co2  44  GLU44      -0.2457
     19  N         -7.2360  -68.4550    1.8590 N.3    46  ILE46      -0.1231
     20  CA        -8.6510  -68.1120    1.8260 C.3    46  ILE46       0.1692
     21  C         -9.2190  -68.1480    3.2390 C.2    46  ILE46       0.2592
     22  O         -9.1990  -69.1880    3.8960 O.2    46  ILE46      -0.2718
     23  CB        -9.4490  -69.0850    0.9320 C.3    46  ILE46       0.0266
     24  CG1       -8.8320  -69.1560   -0.4660 C.3    46  ILE46       0.0019
     25  CG2      -10.9070  -68.6650    0.8530 C.3    46  ILE46       0.0020
     26  CD1       -9.5670  -70.0830   -1.4130 C.3    46  ILE46       0.0001
     27  N         -9.7180  -67.0090    3.7050 N.am   47  LYS47      -0.1966
     28  CA       -10.2380  -66.9070    5.0640 C.3    47  LYS47       0.1728
     29  C        -11.7170  -66.5460    5.0770 C.2    47  LYS47       0.2616
     30  O        -12.0850  -65.3940    4.8540 O.2    47  LYS47      -0.2715
     31  CB        -9.4400  -65.8800    5.8700 C.3    47  LYS47       0.0311
     32  CG        -7.9920  -66.2750    6.1180 C.3    47  LYS47       0.0038
     33  CD        -7.2680  -65.2310    6.9550 C.3    47  LYS47       0.0206
     34  CE        -5.8310  -65.6480    7.2340 C.3    47  LYS47       0.1093
     35  NZ        -5.1030  -64.6410    8.0570 N.3    47  LYS47      -0.1314
     36  N        -12.5580  -67.5390    5.3430 N.am   48  ALA48      -0.1963
     37  CA       -13.9980  -67.3270    5.4160 C.3    48  ALA48       0.1728
     38  C        -14.5160  -67.5610    6.8320 C.2    48  ALA48       0.2616
     39  O        -14.1660  -68.5500    7.4790 O.2    48  ALA48      -0.2715
     40  CB       -14.7210  -68.2280    4.4280 C.3    48  ALA48       0.0334
     41  N        -15.3070  -66.6970    7.3210 N.am   49  ARG49      -0.1963
     42  CA       -15.9320  -66.8080    8.6330 C.3    49  ARG49       0.1729
     43  C        -17.2810  -66.1020    8.6320 C.2    49  ARG49       0.2616
     44  O        -17.5090  -65.1690    7.8520 O.2    49  ARG49      -0.2715
     45  CB       -15.0340  -66.2030    9.7180 C.3    49  ARG49       0.0348
     46  CG       -14.8110  -64.7220    9.5610 C.3    49  ARG49       0.0492
     47  CD       -13.9860  -64.1450   10.6860 C.3    49  ARG49       0.2205
     48  NE       -13.3980  -62.8720   10.2810 N.pl3  49  ARG49      -0.0865
     49  CZ       -13.8470  -61.6710   10.6440 C.cat  49  ARG49       0.5346
     50  NH1      -14.9020  -61.5640   11.4550 N.pl3  49  ARG49       0.1354
     51  NH2      -13.2260  -60.5730   10.2010 N.pl3  49  ARG49       0.1354
     52  N        -18.1760  -66.5590    9.5020 N.am   50  VAL50      -0.1977
     53  CA       -19.4400  -65.8740    9.7350 C.3    50  VAL50       0.1596
     54  C        -19.3000  -64.9920   10.9580 C.2    50  VAL50       0.2287
     55  O        -19.1430  -65.4970   12.0590 O.2    50  VAL50      -0.2864
     56  CB       -20.5760  -66.8710    9.9920 C.3    50  VAL50       0.0276
     57  CG1      -21.8990  -66.1380   10.1620 C.3    50  VAL50       0.0022
     58  CG2      -20.6650  -67.8570    8.8590 C.3    50  VAL50       0.0022
     59  N        -21.4160  -63.7370    6.2390 N.3    56  LEU56      -0.1245
     60  CA       -20.2850  -64.4600    5.6920 C.3    56  LEU56       0.1561
     61  C        -19.2560  -63.4380    5.1890 C.2    56  LEU56       0.2260
     62  O        -19.5950  -62.5180    4.4430 O.2    56  LEU56      -0.2867
     63  CB       -20.7540  -65.3290    4.5280 C.3    56  LEU56       0.0270
     64  CG       -20.0470  -66.6620    4.2580 C.3    56  LEU56       0.0019
     65  CD1      -19.9360  -66.9060    2.7680 C.3    56  LEU56       0.0001
     66  CD2      -18.6830  -66.7580    4.9400 C.3    56  LEU56       0.0001
     67  N        -19.6100  -75.8540    9.3890 N.3    95  ILE95      -0.1231
     68  CA       -19.5580  -75.2830    8.0500 C.3    95  ILE95       0.1692
     69  C        -18.4350  -75.9020    7.2250 C.2    95  ILE95       0.2593
     70  O        -17.2770  -75.9000    7.6380 O.2    95  ILE95      -0.2718
     71  CB       -19.3570  -73.7560    8.0990 C.3    95  ILE95       0.0266
     72  CG1      -20.3170  -73.1210    9.1050 C.3    95  ILE95       0.0019
     73  CG2      -19.5470  -73.1490    6.7230 C.3    95  ILE95       0.0020
     74  CD1      -20.1840  -71.6180    9.1980 C.3    95  ILE95       0.0001
     75  N        -18.7840  -76.4290    6.0560 N.am   96  SER96      -0.1938
     76  CA       -17.7890  -76.9960    5.1520 C.3    96  SER96       0.2055
     77  C        -17.3850  -75.9950    4.0720 C.2    96  SER96       0.2644
     78  O        -18.1590  -75.1110    3.7020 O.2    96  SER96      -0.2714
     79  CB       -18.3130  -78.2800    4.5050 C.3    96  SER96       0.2130
     80  OG       -19.3800  -78.0060    3.6130 O.3    96  SER96      -0.2179
     81  N        -16.1630  -76.1430    3.5740 N.am   97  GLY97      -0.1939
     82  CA       -15.6580  -75.2890    2.5170 C.3    97  GLY97       0.2014
     83  C        -14.7380  -76.0560    1.5900 C.2    97  GLY97       0.2639
     84  O        -13.8550  -76.7830    2.0410 O.2    97  GLY97      -0.2714
     85  N        -14.9500  -75.9040    0.2870 N.am   98  LYS98      -0.1963
     86  CA       -14.1080  -76.5700   -0.6980 C.3    98  LYS98       0.1728
     87  C        -13.6350  -75.5870   -1.7600 C.2    98  LYS98       0.2616
     88  O        -14.3830  -74.7110   -2.1930 O.2    98  LYS98      -0.2715
     89  CB       -14.8440  -77.7470   -1.3470 C.3    98  LYS98       0.0311
     90  CG       -16.1050  -77.3590   -2.0980 C.3    98  LYS98       0.0038
     91  CD       -16.7500  -78.5580   -2.7820 C.3    98  LYS98       0.0206
     92  CE       -15.8520  -79.1420   -3.8580 C.3    98  LYS98       0.1093
     93  NZ       -16.5390  -80.2270   -4.6150 N.3    98  LYS98      -0.1314
     94  N        -12.3800  -75.7350   -2.1680 N.am   99  TYR99      -0.1974
     95  CA       -11.8080  -74.8830   -3.1970 C.3    99  TYR99       0.1639
     96  C        -11.3480  -75.7360   -4.3690 C.2    99  TYR99       0.2290
     97  O        -10.2890  -76.3620   -4.3190 O.2    99  TYR99      -0.2864
     98  CB       -10.6400  -74.0780   -2.6290 C.3    99  TYR99       0.0560
     99  CG       -10.1000  -73.0290   -3.5710 C.ar   99  TYR99      -0.0198
    100  CD1      -10.9400  -72.0870   -4.1440 C.ar   99  TYR99      -0.0009
    101  CD2       -8.7480  -72.9720   -3.8740 C.ar   99  TYR99      -0.0009
    102  CE1      -10.4510  -71.1220   -5.0000 C.ar   99  TYR99       0.0417
    103  CE2       -8.2500  -72.0120   -4.7280 C.ar   99  TYR99       0.0417
    104  CZ        -9.1050  -71.0880   -5.2890 C.ar   99  TYR99       0.1957
    105  OH        -8.6090  -70.1290   -6.1430 O.3    99  TYR99      -0.2866
    106  N        -14.8430  -71.4840   -4.7920 N.3   104  LEU104     -0.1245
    107  CA       -15.0640  -71.7310   -3.3730 C.3   104  LEU104      0.1561
    108  C        -16.5430  -72.0240   -3.1260 C.2   104  LEU104      0.2260
    109  O        -17.4120  -71.2170   -3.4610 O.2   104  LEU104     -0.2867
    110  CB       -14.6200  -70.5270   -2.5400 C.3   104  LEU104      0.0270
    111  CG       -14.8350  -70.6260   -1.0260 C.3   104  LEU104      0.0019
    112  CD1      -13.8910  -71.6460   -0.4170 C.3   104  LEU104      0.0001
    113  CD2      -14.6660  -69.2690   -0.3550 C.3   104  LEU104      0.0001
    114  N        -19.2210  -72.9540   -0.1300 N.3   106  ILE106     -0.1245
    115  CA       -19.4490  -73.0100    1.3070 C.3   106  ILE106      0.1561
    116  C        -20.8570  -73.5010    1.6180 C.2   106  ILE106      0.2260
    117  O        -21.8420  -72.9110    1.1730 O.2   106  ILE106     -0.2867
    118  CB       -19.2270  -71.6330    1.9590 C.3   106  ILE106      0.0252
    119  CG1      -17.7490  -71.2440    1.8830 C.3   106  ILE106      0.0019
    120  CG2      -19.7100  -71.6370    3.4010 C.3   106  ILE106      0.0019
    121  CD1      -17.4180  -69.9430    2.5830 C.3   106  ILE106      0.0001
    122  N        -23.6490  -74.1410    4.4650 N.3   108  ILE108     -0.1245
    123  CA       -24.0670  -73.7950    5.8190 C.3   108  ILE108      0.1561
    124  C        -25.3730  -74.4900    6.1880 C.2   108  ILE108      0.2260
    125  O        -26.3860  -74.3220    5.5080 O.2   108  ILE108     -0.2867
    126  CB       -24.2430  -72.2740    5.9910 C.3   108  ILE108      0.0252
    127  CG1      -22.9500  -71.5410    5.6250 C.3   108  ILE108      0.0019
    128  CG2      -24.6610  -71.9440    7.4150 C.3   108  ILE108      0.0019
    129  CD1      -23.0530  -70.0350    5.7310 C.3   108  ILE108      0.0001
@<TRIPOS>BOND
     1   105   104    1
     2   104   102   ar
     3   104   103   ar
     4   102   100   ar
     5   106   107    1
     6   103   101   ar
     7    93    92    1
     8    96    97    2
     9    96    95    1
    10   100    99   ar
    11   101    99   ar
    12    92    91    1
    13    99    98    1
    14   109   108    2
    15   107   108    1
    16   107   110    1
    17    95    98    1
    18    95    94    1
    19    91    90    1
    20   110   111    1
    21    88    87    2
    22    94    87   am
    23    90    89    1
    24    87    86    1
    25    26    24    1
    26    89    86    1
    27     9     8    1
    28     1     2    1
    29   111   112    1
    30   111   113    1
    31     7     8    1
    32     7     6    1
    33    86    85    1
    34    24    23    1
    35     5     2    1
    36     5     6    1
    37     2     3    1
    38   114   115    1
    39    85    83   am
    40    25    23    1
    41    23    20    1
    42   117   116    2
    43     3    10   am
    44     3     4    2
    45   115   116    1
    46   115   118    1
    47    10    11    1
    48    83    84    2
    49    83    82    1
    50    20    19    1
    51    20    21    1
    52   119   118    1
    53   119   121    1
    54   118   120    1
    55    82    81    1
    56    65    64    1
    57    11    12    1
    58    11    14    1
    59    17    16   ar
    60    12    13    2
    61    14    15    1
    62    21    27   am
    63    21    22    2
    64    81    77   am
    65    80    79    1
    66    78    77    2
    67    27    28    1
    68    16    15    1
    69    16    18   ar
    70    77    76    1
    71    64    63    1
    72    64    66    1
    73    40    37    1
    74    62    61    2
    75   122   123    1
    76    79    76    1
    77    63    60    1
    78    30    29    2
    79    28    29    1
    80    28    31    1
    81    29    36   am
    82    76    75    1
    83    61    60    1
    84    36    37    1
    85    37    38    1
    86   125   124    2
    87   127   129    1
    88   127   126    1
    89    60    59    1
    90   123   126    1
    91   123   124    1
    92    31    32    1
    93   126   128    1
    94    75    69   am
    95    32    33    1
    96    73    71    1
    97    38    41   am
    98    38    39    2
    99    33    34    1
   100    69    70    2
   101    69    68    1
   102    34    35    1
   103    41    42    1
   104    44    43    2
   105    68    71    1
   106    68    67    1
   107    71    72    1
   108    43    42    1
   109    43    52   am
   110    42    45    1
   111    58    56    1
   112    72    74    1
   113    52    53    1
   114    46    45    1
   115    46    47    1
   116    53    56    1
   117    53    54    1
   118    56    57    1
   119    51    49    1
   120    48    49    2
   121    48    47    1
   122    49    50    1
   123    54    55    2
