@<TRIPOS>MOLECULE
tmp/3vqmM00.pdb
 112 107 0 0 0
SMALL
GASTEIGER

@<TRIPOS>ATOM
      1  N         -8.7270  -11.8440    7.9860 N.3    40  LYS40      -0.1245
      2  CA        -7.9770  -10.6900    8.4730 C.3    40  LYS40       0.1561
      3  C         -7.4190   -9.8530    7.3250 C.2    40  LYS40       0.2260
      4  O         -7.2370   -8.6430    7.4600 O.2    40  LYS40      -0.2867
      5  CB        -6.8330  -11.1360    9.3880 C.3    40  LYS40       0.0271
      6  CG        -7.2650  -11.5860   10.7760 C.3    40  LYS40       0.0035
      7  CD        -6.0650  -12.0370   11.5980 C.3    40  LYS40       0.0206
      8  CE        -6.4340  -12.2540   13.0580 C.3    40  LYS40       0.1093
      9  NZ        -5.2560  -12.6720   13.8690 N.3    40  LYS40      -0.1314
     10  N        -10.4390   -7.4260    5.7100 N.3    43  ILE43      -0.1231
     11  CA       -11.1110   -6.4280    6.5330 C.3    43  ILE43       0.1692
     12  C        -10.3690   -5.1020    6.4130 C.2    43  ILE43       0.2592
     13  O         -9.3370   -4.8970    7.0520 O.2    43  ILE43      -0.2718
     14  CB       -11.1670   -6.8560    8.0120 C.3    43  ILE43       0.0266
     15  CG1      -11.8660   -8.2090    8.1490 C.3    43  ILE43       0.0019
     16  CG2      -11.8820   -5.8040    8.8480 C.3    43  ILE43       0.0020
     17  CD1      -11.8450   -8.7680    9.5540 C.3    43  ILE43       0.0001
     18  N        -10.8940   -4.2080    5.5830 N.am   44  LYS44      -0.1966
     19  CA       -10.2200   -2.9450    5.3010 C.3    44  LYS44       0.1728
     20  C        -10.8010   -1.7680    6.0860 C.2    44  LYS44       0.2616
     21  O        -11.6230   -1.0050    5.5770 O.2    44  LYS44      -0.2715
     22  CB       -10.2150   -2.6620    3.7930 C.3    44  LYS44       0.0311
     23  CG       -11.5460   -2.8990    3.0910 C.3    44  LYS44       0.0038
     24  CD       -11.3430   -3.1490    1.6040 C.3    44  LYS44       0.0206
     25  CE       -12.6470   -3.0350    0.8310 C.3    44  LYS44       0.1093
     26  NZ       -13.7400   -3.8550    1.4240 N.3    44  LYS44      -0.1314
     27  N        -10.3620   -1.6300    7.3330 N.am   45  ALA45      -0.1963
     28  CA       -10.7890   -0.5250    8.1810 C.3    45  ALA45       0.1728
     29  C         -9.8870    0.6870    7.9720 C.2    45  ALA45       0.2616
     30  O         -8.6690    0.5500    7.8680 O.2    45  ALA45      -0.2715
     31  CB       -10.7850   -0.9460    9.6420 C.3    45  ALA45       0.0334
     32  N        -10.4910    1.8700    7.9000 N.am   46  ARG46      -0.1963
     33  CA        -9.7440    3.1130    7.7210 C.3    46  ARG46       0.1729
     34  C        -10.3340    4.2250    8.5850 C.2    46  ARG46       0.2616
     35  O        -11.5250    4.2130    8.8960 O.2    46  ARG46      -0.2715
     36  CB        -9.7520    3.5470    6.2500 C.3    46  ARG46       0.0348
     37  CG        -9.1660    2.5340    5.2730 C.3    46  ARG46       0.0492
     38  CD        -9.1690    3.0730    3.8500 C.3    46  ARG46       0.2205
     39  NE        -8.7690    2.0640    2.8720 N.pl3  46  ARG46      -0.0865
     40  CZ        -8.6060    2.3040    1.5750 C.cat  46  ARG46       0.5346
     41  NH1       -8.8040    3.5240    1.0920 N.pl3  46  ARG46       0.1354
     42  NH2       -8.2410    1.3240    0.7590 N.pl3  46  ARG46       0.1354
     43  N         -9.5000    5.1860    8.9710 N.am   47  VAL47      -0.1977
     44  CA        -9.9700    6.3400    9.7320 C.3    47  VAL47       0.1596
     45  C         -9.8370    7.6080    8.8920 C.2    47  VAL47       0.2287
     46  O         -8.8200    8.3000    8.9420 O.2    47  VAL47      -0.2864
     47  CB        -9.2040    6.4990   11.0570 C.3    47  VAL47       0.0276
     48  CG1       -9.8300    7.5980   11.9030 C.3    47  VAL47       0.0022
     49  CG2       -9.2040    5.1850   11.8180 C.3    47  VAL47       0.0022
     50  N        -14.5360    6.9250   11.7740 N.3    53  LEU53      -0.1245
     51  CA       -13.9370    5.6170   11.5380 C.3    53  LEU53       0.1561
     52  C        -14.7620    4.8770   10.4910 C.2    53  LEU53       0.2260
     53  O        -15.9890    4.8290   10.5790 O.2    53  LEU53      -0.2867
     54  CB       -13.8950    4.8010   12.8330 C.3    53  LEU53       0.0270
     55  CG       -12.6740    3.9180   13.1160 C.3    53  LEU53       0.0019
     56  CD1      -12.9280    3.0410   14.3310 C.3    53  LEU53       0.0001
     57  CD2      -12.2820    3.0650   11.9180 C.3    53  LEU53       0.0001
     58  N         -2.9620    2.6850   15.0030 N.3    92  ILE92      -0.1231
     59  CA        -4.2350    2.0390   15.2800 C.3    92  ILE92       0.1692
     60  C         -4.1140    0.5280   15.0880 C.2    92  ILE92       0.2593
     61  O         -3.7420    0.0580   14.0120 O.2    92  ILE92      -0.2718
     62  CB        -5.3350    2.6070   14.3690 C.3    92  ILE92       0.0266
     63  CG1       -5.2470    4.1360   14.3450 C.3    92  ILE92       0.0019
     64  CG2       -6.7050    2.1480   14.8330 C.3    92  ILE92       0.0020
     65  CD1       -5.9250    4.7760   13.1590 C.3    92  ILE92       0.0001
     66  N         -4.4190   -0.2270   16.1390 N.am   93  SER93      -0.1938
     67  CA        -4.2540   -1.6770   16.1110 C.3    93  SER93       0.2055
     68  C         -5.5690   -2.4050   15.8530 C.2    93  SER93       0.2644
     69  O         -6.6170   -1.7780   15.6960 O.2    93  SER93      -0.2714
     70  CB        -3.6300   -2.1680   17.4200 C.3    93  SER93       0.2130
     71  OG        -4.4250   -1.7990   18.5340 O.3    93  SER93      -0.2179
     72  N         -5.5060   -3.7320   15.8100 N.am   94  GLY94      -0.1939
     73  CA        -6.6830   -4.5440   15.5650 C.3    94  GLY94       0.2014
     74  C         -6.5150   -6.0030   15.9460 C.2    94  GLY94       0.2639
     75  O         -5.3980   -6.5100   16.0410 O.2    94  GLY94      -0.2714
     76  N         -7.6390   -6.6740   16.1740 N.am   95  LYS95      -0.1963
     77  CA        -7.6540   -8.1020   16.4620 C.3    95  LYS95       0.1728
     78  C         -8.9000   -8.7200   15.8410 C.2    95  LYS95       0.2616
     79  O         -9.8250   -8.0040   15.4570 O.2    95  LYS95      -0.2715
     80  CB        -7.6260   -8.3460   17.9610 C.3    95  LYS95       0.0311
     81  CG        -6.2650   -8.1390   18.5970 C.3    95  LYS95       0.0038
     82  CD        -5.3400   -9.2850   18.2830 C.3    95  LYS95       0.0206
     83  CE        -5.9950  -10.5760   18.6830 C.3    95  LYS95       0.1093
     84  NZ        -5.0410  -11.7100   18.6870 N.3    95  LYS95      -0.1314
     85  N         -8.9290  -10.0440   15.7390 N.am   96  TYR96      -0.1974
     86  CA       -10.0690  -10.7190   15.1300 C.3    96  TYR96       0.1639
     87  C        -10.2220  -12.1520   15.6260 C.2    96  TYR96       0.2290
     88  O         -9.9820  -13.1060   14.8870 O.2    96  TYR96      -0.2864
     89  CB        -9.9550  -10.6910   13.6050 C.3    96  TYR96       0.0560
     90  CG       -11.2010  -11.1500   12.8850 C.ar   96  TYR96      -0.0198
     91  CD1      -12.4260  -10.5390   13.1200 C.ar   96  TYR96      -0.0009
     92  CD2      -11.1510  -12.1840   11.9600 C.ar   96  TYR96      -0.0009
     93  CE1      -13.5670  -10.9520   12.4630 C.ar   96  TYR96       0.0417
     94  CE2      -12.2880  -12.6040   11.2960 C.ar   96  TYR96       0.0417
     95  CZ       -13.4930  -11.9840   11.5510 C.ar   96  TYR96       0.1957
     96  OH       -14.6270  -12.4000   10.8900 O.3    96  TYR96      -0.2866
     97  N        -14.3590   -8.1650   15.6880 N.3   101  LEU101     -0.1245
     98  CA       -13.3740   -7.1670   15.2910 C.3   101  LEU101      0.1561
     99  C        -13.2930   -6.0770   16.3520 C.2   101  LEU101      0.2260
    100  O        -14.2420   -5.3140   16.5380 O.2   101  LEU101     -0.2867
    101  CB       -13.7570   -6.5460   13.9450 C.3   101  LEU101      0.0270
    102  CG       -12.8330   -5.4510   13.4040 C.3   101  LEU101      0.0019
    103  CD1      -11.6010   -6.0570   12.7470 C.3   101  LEU101      0.0001
    104  CD2      -13.5710   -4.5370   12.4390 C.3   101  LEU101      0.0001
    105  N        -11.0890   -2.7840   17.6650 N.3   103  ILE103     -0.1245
    106  CA       -10.0880   -1.7910   17.2790 C.3   103  ILE103      0.1561
    107  C         -9.8740   -0.7400   18.3710 C.2   103  ILE103      0.2260
    108  O        -10.8300   -0.2860   18.9990 O.2   103  ILE103     -0.2867
    109  CB       -10.5050   -1.0810   15.9700 C.3   103  ILE103      0.0252
    110  CG1      -10.8370   -2.1080   14.8850 C.3   103  ILE103      0.0019
    111  CG2       -9.4190   -0.1340   15.4930 C.3   103  ILE103      0.0019
    112  CD1      -11.2510   -1.4900   13.5650 C.3   103  ILE103      0.0001
@<TRIPOS>BOND
     1    42    40    1
     2    25    26    1
     3    25    24    1
     4    41    40    1
     5    40    39    2
     6    24    23    1
     7    39    38    1
     8    23    22    1
     9    22    19    1
    10    38    37    1
    11    37    36    1
    12    19    18    1
    13    19    20    1
    14    21    20    2
    15    18    12   am
    16    10    11    1
    17    20    27   am
    18    36    33    1
    19    12    11    1
    20    12    13    2
    21    11    14    1
    22     3     4    2
    23     3     2    1
    24    27    28    1
    25    33    32    1
    26    33    34    1
    27    30    29    2
    28    32    29   am
    29    29    28    1
    30     1     2    1
    31    14    15    1
    32    14    16    1
    33    15    17    1
    34    28    31    1
    35     2     5    1
    36    34    35    2
    37    34    43   am
    38    45    46    2
    39    45    44    1
    40    43    44    1
    41     5     6    1
    42    44    47    1
    43    52    53    2
    44    52    51    1
    45     6     7    1
    46    96    95    1
    47    47    49    1
    48    47    48    1
    49    94    95   ar
    50    94    92   ar
    51    51    50    1
    52    51    54    1
    53    95    93   ar
    54     7     8    1
    55    57    55    1
    56    92    90   ar
    57   104   102    1
    58    93    91   ar
    59   103   102    1
    60    54    55    1
    61    90    91   ar
    62    90    89    1
    63     8     9    1
    64    55    56    1
    65    65    63    1
    66   102   101    1
    67   112   110    1
    68    89    86    1
    69   101    98    1
    70    61    60    2
    71    63    62    1
    72    62    64    1
    73    62    59    1
    74   110   109    1
    75    88    87    2
    76    58    59    1
    77    60    59    1
    78    60    66   am
    79    86    87    1
    80    86    85    1
    81    98    97    1
    82    98    99    1
    83    79    78    2
    84   111   109    1
    85    73    72    1
    86    73    74    1
    87    69    68    2
    88    85    78   am
    89    72    68   am
    90    78    77    1
    91    68    67    1
    92    74    75    2
    93    74    76   am
    94   109   106    1
    95    67    66    1
    96    67    70    1
    97    76    77    1
    98    99   100    2
    99    77    80    1
   100   106   105    1
   101   106   107    1
   102    70    71    1
   103    80    81    1
   104    82    81    1
   105    82    83    1
   106   107   108    2
   107    83    84    1
