@<TRIPOS>MOLECULE
tmp/3vqtA00.pdb
 128 126 0 0 0
SMALL
GASTEIGER

@<TRIPOS>ATOM
      1  N        -18.4440    4.6570   24.9790 N.3    19  SER19      -0.1202
      2  CA       -17.5980    3.8940   24.0800 C.3    19  SER19       0.2020
      3  C        -17.1640    2.5980   24.7710 C.2    19  SER19       0.2619
      4  O        -17.2690    2.4860   26.0350 O.2    19  SER19      -0.2717
      5  CB       -16.3600    4.7180   23.7570 C.3    19  SER19       0.2103
      6  OG       -15.8120    5.1210   25.0200 O.3    19  SER19      -0.2182
      7  N        -16.6610    1.6650   23.9690 N.am   20  HIS20      -0.1961
      8  CA       -16.1670    0.3910   24.4900 C.3    20  HIS20       0.1772
      9  C        -14.6370    0.6550   24.6010 C.2    20  HIS20       0.2462
     10  O        -14.1130    1.5000   23.9340 O.2    20  HIS20      -0.2730
     11  CB       -16.4280   -0.6670   23.3980 C.3    20  HIS20       0.0785
     12  CG       -16.0910   -2.0610   23.8210 C.ar   20  HIS20       0.0821
     13  ND1      -16.9230   -2.8370   24.5970 N.ar   20  HIS20      -0.2267
     14  CD2      -14.9820   -2.8160   23.5870 C.ar   20  HIS20       0.1154
     15  CE1      -16.3540   -4.0140   24.8050 C.ar   20  HIS20       0.1986
     16  NE2      -15.1770   -4.0130   24.2130 N.ar   20  HIS20      -0.2212
     17  N        -13.9380   -0.0210   25.5200 N.am   21  PRO21      -0.2716
     18  CA       -12.5120    0.1840   25.7250 C.3    21  PRO21       0.1536
     19  C        -11.7540    0.0570   24.4140 C.2    21  PRO21       0.2599
     20  O        -12.0790   -0.8030   23.5830 O.2    21  PRO21      -0.2715
     21  CB       -12.0860   -0.9880   26.6260 C.3    21  PRO21       0.0310
     22  CG       -13.3520   -1.3900   27.3140 C.3    21  PRO21       0.0237
     23  CD       -14.5220   -1.0080   26.4350 C.3    21  PRO21       0.0939
     24  N        -10.7690    0.9260   24.2770 N.am   22  ASP22      -0.1958
     25  CA        -9.9290    1.0430   23.1110 C.3    22  ASP22       0.1840
     26  C        -10.5370    1.6280   21.8060 C.2    22  ASP22       0.2622
     27  O         -9.7750    1.7070   20.8110 O.2    22  ASP22      -0.2715
     28  CB        -9.1880   -0.2470   22.8770 C.3    22  ASP22       0.1450
     29  CG        -8.1830   -0.5790   24.0520 C.2    22  ASP22       0.3671
     30  OD1       -7.9590   -1.7900   24.3020 O.co2  22  ASP22      -0.2456
     31  OD2       -7.6720    0.3680   24.7050 O.co2  22  ASP22      -0.2456
     32  N        -11.7930    2.1080   21.8540 N.am   23  ALA23      -0.1963
     33  CA       -12.4730    2.8020   20.7410 C.3    23  ALA23       0.1728
     34  C        -11.7660    4.1370   20.3860 C.2    23  ALA23       0.2617
     35  O        -11.7580    4.5630   19.1950 O.2    23  ALA23      -0.2715
     36  CB       -13.9670    3.0170   21.0310 C.3    23  ALA23       0.0334
     37  N        -11.1420    4.8020   21.3790 N.am   24  GLY24      -0.1940
     38  CA       -10.5930    6.1280   21.0830 C.3    24  GLY24       0.2014
     39  C        -11.0300    7.2570   21.9780 C.2    24  GLY24       0.2639
     40  O        -10.7230    8.4400   21.6860 O.2    24  GLY24      -0.2714
     41  N        -11.7150    6.9340   23.0640 N.am   25  LYS25      -0.1963
     42  CA       -12.1870    8.0030   23.9350 C.3    25  LYS25       0.1728
     43  C        -11.0860    8.9550   24.4750 C.2    25  LYS25       0.2617
     44  O        -11.2780   10.2000   24.4630 O.2    25  LYS25      -0.2715
     45  CB       -13.0480    7.4220   25.0800 C.3    25  LYS25       0.0311
     46  CG       -13.2940    8.3780   26.2730 C.3    25  LYS25       0.0038
     47  CD       -14.4070    7.7810   27.1640 C.3    25  LYS25       0.0206
     48  CE       -13.8340    6.7370   28.1180 C.3    25  LYS25       0.1093
     49  NZ       -13.2210    7.4350   29.2560 N.3    25  LYS25      -0.1314
     50  N        -10.0160    8.3800   25.0000 N.am   26  THR26      -0.1937
     51  CA        -8.9180    9.1670   25.5900 C.3    26  THR26       0.2028
     52  C         -8.3010   10.0220   24.5260 C.2    26  THR26       0.2642
     53  O         -8.0580   11.2210   24.7130 O.2    26  THR26      -0.2714
     54  CB        -7.8650    8.2560   26.2760 C.3    26  THR26       0.1808
     55  OG1       -8.5420    7.4710   27.2480 O.3    26  THR26      -0.2208
     56  CG2       -6.7710    9.1130   26.9890 C.3    26  THR26       0.0379
     57  N         -8.0670    9.4070   23.3640 N.am   27  THR27      -0.1950
     58  CA        -7.4730   10.1160   22.2350 C.3    27  THR27       0.1897
     59  C         -8.3630   11.2530   21.7430 C.2    27  THR27       0.2313
     60  O         -7.9230   12.3720   21.5580 O.2    27  THR27      -0.2863
     61  CB        -7.2100    9.1360   21.0490 C.3    27  THR27       0.1794
     62  OG1       -6.3980    8.0530   21.5060 O.3    27  THR27      -0.2208
     63  CG2       -6.4840    9.8600   19.9010 C.3    27  THR27       0.0378
     64  N        -12.5990    0.5620   31.2310 N.3    71  HIS71      -0.1241
     65  CA       -11.5650   -0.4400   31.4740 C.3    71  HIS71       0.1621
     66  C        -11.8190   -1.0410   32.9000 C.2    71  HIS71       0.2264
     67  O        -12.9770   -1.2790   33.3200 O.2    71  HIS71      -0.2867
     68  CB       -10.0980    0.1360   31.2900 C.3    71  HIS71       0.0745
     69  CG        -9.8170    0.7120   29.9170 C.ar   71  HIS71       0.0817
     70  ND1       -9.1860   -0.0080   28.9130 N.ar   71  HIS71      -0.2268
     71  CD2      -10.0440    1.9490   29.3980 C.ar   71  HIS71       0.1154
     72  CE1       -9.0840    0.7440   27.8250 C.ar   71  HIS71       0.1986
     73  NE2       -9.5940    1.9370   28.0930 N.ar   71  HIS71      -0.2212
     74  N        -14.4960    6.3110   14.6110 N.3   121  ASN121     -0.1225
     75  CA       -13.0500    6.5910   14.7200 C.3   121  ASN121      0.1785
     76  C        -12.1790    5.5500   13.9670 C.2   121  ASN121      0.2597
     77  O        -12.6190    4.4960   13.6010 O.2   121  ASN121     -0.2718
     78  CB       -12.6650    6.6460   16.2000 C.3   121  ASN121      0.1169
     79  CG       -11.2560    7.1750   16.4330 C.2   121  ASN121      0.2627
     80  OD1      -10.7940    8.0380   15.6970 O.2   121  ASN121     -0.2716
     81  ND2      -10.5800    6.6630   17.4740 N.am  121  ASN121     -0.0877
     82  N        -10.9280    5.9030   13.7370 N.am  122  LYS122     -0.1980
     83  CA        -9.9390    4.9850   13.1370 C.3   122  LYS122      0.1596
     84  C        -10.1450    4.7090   11.6440 C.2   122  LYS122      0.2287
     85  O         -9.7650    3.6530   11.1680 O.2   122  LYS122     -0.2864
     86  CB        -9.8100    3.6620   13.9140 C.3   122  LYS122      0.0298
     87  CG        -9.8220    3.8170   15.4590 C.3   122  LYS122      0.0038
     88  CD        -9.1480    2.6200   16.1590 C.3   122  LYS122      0.0206
     89  CE        -9.2790    2.7170   17.6910 C.3   122  LYS122      0.1093
     90  NZ        -8.7710    1.4640   18.3660 N.3   122  LYS122     -0.1314
     91  N         -8.4630    5.8090    9.3840 N.3   124  ASP124     -0.1225
     92  CA        -7.1120    5.7240    8.7980 C.3   124  ASP124      0.1805
     93  C         -6.5980    4.2670    8.7640 C.2   124  ASP124      0.2597
     94  O         -5.4950    4.0090    8.2160 O.2   124  ASP124     -0.2718
     95  CB        -6.1320    6.5660    9.5920 C.3   124  ASP124      0.1424
     96  CG        -6.0200    6.0930   11.0650 C.2   124  ASP124      0.3668
     97  OD1       -6.9840    6.2510   11.8130 O.co2 124  ASP124     -0.2456
     98  OD2       -5.0000    5.5100   11.4410 O.co2 124  ASP124     -0.2456
     99  N         -7.3530    3.3290    9.3620 N.am  125  ARG125     -0.1979
    100  CA        -7.0250    1.8810    9.2190 C.3   125  ARG125      0.1597
    101  C         -8.1930    1.1710    8.5440 C.2   125  ARG125      0.2287
    102  O         -9.2640    1.7250    8.4770 O.2   125  ARG125     -0.2864
    103  CB        -6.7240    1.2370   10.5770 C.3   125  ARG125      0.0334
    104  CG        -5.5700    1.9110   11.3890 C.3   125  ARG125      0.0492
    105  CD        -4.1530    1.7350   10.6360 C.3   125  ARG125      0.2205
    106  NE        -3.3660    0.7080   11.3440 N.pl3 125  ARG125     -0.0865
    107  CZ        -2.7330    0.9270   12.5060 C.cat 125  ARG125      0.5346
    108  NH1       -2.7230    2.1550   13.0590 N.pl3 125  ARG125      0.1354
    109  NH2       -2.1080   -0.0620   13.1460 N.pl3 125  ARG125      0.1354
    110  N        -10.4430   10.3100   12.3060 N.3   229  SER229     -0.1202
    111  CA        -9.2990    9.5640   12.8350 C.3   229  SER229      0.2020
    112  C         -8.8340   10.5000   13.9410 C.2   229  SER229      0.2619
    113  O         -8.2000   11.5510   13.6950 O.2   229  SER229     -0.2717
    114  CB        -8.2610    9.4180   11.7360 C.3   229  SER229      0.2103
    115  OG        -7.0820    8.9010   12.2810 O.3   229  SER229     -0.2182
    116  N         -9.2440   10.2020   15.1520 N.am  230  ALA230     -0.1965
    117  CA        -8.9010   11.0890   16.3040 C.3   230  ALA230      0.1728
    118  C         -7.3860   11.2100   16.5050 C.2   230  ALA230      0.2616
    119  O         -6.9220   12.2470   16.9400 O.2   230  ALA230     -0.2715
    120  CB        -9.5070   10.5790   17.5830 C.3   230  ALA230      0.0334
    121  N         -6.6340   10.1390   16.2150 N.am  231  ILE231     -0.1977
    122  CA        -5.1690   10.1300   16.4870 C.3   231  ILE231      0.1596
    123  C         -4.4680   11.1550   15.5940 C.2   231  ILE231      0.2287
    124  O         -3.3900   11.6630   15.9260 O.2   231  ILE231     -0.2864
    125  CB        -4.5280    8.7040   16.2680 C.3   231  ILE231      0.0276
    126  CG1       -3.2070    8.5290   17.0830 C.3   231  ILE231      0.0022
    127  CG2       -4.4040    8.3810   14.7510 C.3   231  ILE231      0.0022
    128  CD1       -3.4060    8.7010   18.5820 C.3   231  ILE231      0.0001
@<TRIPOS>BOND
     1    94    93    2
     2   102   101    2
     3   101   100    1
     4    93    92    1
     5    93    99   am
     6    92    91    1
     7    92    95    1
     8   100    99    1
     9   100   103    1
    10    95    96    1
    11   103   104    1
    12   105   106    1
    13   105   104    1
    14    96    98   ar
    15    96    97   ar
    16    85    84    2
    17   106   107    2
    18    84    83    1
    19   114   115    1
    20   114   111    1
    21   110   111    1
    22   107   108    1
    23   107   109    1
    24   111   112    1
    25    83    82    1
    26    83    86    1
    27    77    76    2
    28   113   112    2
    29    82    76   am
    30    86    87    1
    31   112   116   am
    32    76    75    1
    33    74    75    1
    34    75    78    1
    35   127   125    1
    36   116   117    1
    37    87    88    1
    38   123   124    2
    39   123   122    1
    40    80    79    2
    41    88    89    1
    42    78    79    1
    43   121   122    1
    44   121   118   am
    45   125   122    1
    46   125   126    1
    47   117   118    1
    48   117   120    1
    49    79    81   am
    50   118   119    2
    51   126   128    1
    52    89    90    1
    53    35    34    2
    54    63    61    1
    55    34    33    1
    56    34    37   am
    57    33    36    1
    58    33    32    1
    59    27    26    2
    60    61    62    1
    61    61    58    1
    62    38    37    1
    63    38    39    1
    64    60    59    2
    65    40    39    2
    66    59    58    1
    67    26    32   am
    68    26    25    1
    69    39    41   am
    70    58    57    1
    71    28    25    1
    72    28    29    1
    73    41    42    1
    74    25    24    1
    75    57    52   am
    76    11    12    1
    77    11     8    1
    78    20    19    2
    79    14    12   ar
    80    14    16   ar
    81     5     2    1
    82     5     6    1
    83    12    13   ar
    84    10     9    2
    85    42    43    1
    86    42    45    1
    87     7     8    1
    88     7     3   am
    89    29    30   ar
    90    29    31   ar
    91     2     3    1
    92     2     1    1
    93    16    15   ar
    94    24    19   am
    95    19    18    1
    96    44    43    2
    97    43    50   am
    98     8     9    1
    99    52    53    2
   100    52    51    1
   101    13    15   ar
   102     9    17   am
   103     3     4    2
   104    50    51    1
   105    45    46    1
   106    17    18    1
   107    17    23    1
   108    51    54    1
   109    18    21    1
   110    46    47    1
   111    54    56    1
   112    54    55    1
   113    23    22    1
   114    21    22    1
   115    47    48    1
   116    72    73   ar
   117    72    70   ar
   118    73    71   ar
   119    48    49    1
   120    70    69   ar
   121    71    69   ar
   122    69    68    1
   123    64    65    1
   124    68    65    1
   125    65    66    1
   126    66    67    2
