@<TRIPOS>MOLECULE
tmp/3vquA00.pdb
 169 157 0 0 0
SMALL
GASTEIGER

@<TRIPOS>ATOM
      1  N          6.6060  -34.6280   -1.0670 N.3    14  LYS14      -0.1245
      2  CA         6.6530  -36.0310   -1.4820 C.3    14  LYS14       0.1561
      3  C          6.7960  -36.1430   -3.0060 C.2    14  LYS14       0.2260
      4  O          6.5190  -35.1920   -3.7360 O.2    14  LYS14      -0.2867
      5  CB         5.4820  -36.8070   -0.8750 C.3    14  LYS14       0.0271
      6  CG         4.0940  -36.5020   -1.4460 C.3    14  LYS14       0.0035
      7  CD         3.1670  -37.7010   -1.1930 C.3    14  LYS14       0.0206
      8  CE         1.6980  -37.4280   -1.4830 C.3    14  LYS14       0.1093
      9  NZ         1.1310  -36.3240   -0.6570 N.3    14  LYS14      -0.1314
     10  N          5.4420  -37.6600   -6.4780 N.3    16  ILE16      -0.1231
     11  CA         4.1160  -38.0050   -6.9980 C.3    16  ILE16       0.1692
     12  C          4.1490  -38.5660   -8.4240 C.2    16  ILE16       0.2592
     13  O          3.1050  -38.8990   -8.9900 O.2    16  ILE16      -0.2718
     14  CB         3.1340  -36.8030   -6.9140 C.3    16  ILE16       0.0266
     15  CG1        3.7630  -35.5430   -7.5270 C.3    16  ILE16       0.0019
     16  CG2        2.7120  -36.5650   -5.4640 C.3    16  ILE16       0.0020
     17  CD1        2.8390  -34.3410   -7.6080 C.3    16  ILE16       0.0001
     18  N          5.3490  -38.6730   -8.9930 N.am   17  GLY17      -0.1957
     19  CA         5.5280  -39.1920  -10.3490 C.3    17  GLY17       0.1869
     20  C          6.9660  -39.5500  -10.6760 C.2    17  GLY17       0.2309
     21  O          7.9000  -39.0300  -10.0620 O.2    17  GLY17      -0.2863
     22  N          8.3670  -36.1970  -10.5790 N.3    24  VAL24      -0.1245
     23  CA         7.4500  -35.1260  -10.1760 C.3    24  VAL24       0.1561
     24  C          7.3110  -35.1100   -8.6520 C.2    24  VAL24       0.2260
     25  O          7.0680  -36.1470   -8.0310 O.2    24  VAL24      -0.2867
     26  CB         6.0580  -35.2550  -10.8610 C.3    24  VAL24       0.0252
     27  CG1        5.2120  -34.0100  -10.6150 C.3    24  VAL24       0.0019
     28  CG2        6.2130  -35.4770  -12.3590 C.3    24  VAL24       0.0019
     29  N          5.6610  -33.1630   -5.0610 N.3    26  GLN26      -0.1245
     30  CA         4.7120  -32.2750   -4.3970 C.3    26  GLN26       0.1566
     31  C          5.4980  -31.3660   -3.4530 C.2    26  GLN26       0.2260
     32  O          6.1050  -31.8370   -2.4880 O.2    26  GLN26      -0.2867
     33  CB         3.6660  -33.0880   -3.6290 C.3    26  GLN26       0.0367
     34  CG         2.4360  -32.2940   -3.2000 C.3    26  GLN26       0.0905
     35  CD         1.4370  -33.1280   -2.4160 C.2    26  GLN26       0.2608
     36  OE1        1.8130  -34.0060   -1.6380 O.2    26  GLN26      -0.2717
     37  NE2        0.1530  -32.8470   -2.6100 N.am   26  GLN26      -0.0878
     38  N          3.6430  -28.1950   -8.1090 N.3    36  ALA36      -0.1245
     39  CA         4.1960  -29.4400   -8.6350 C.3    36  ALA36       0.1562
     40  C          5.4680  -29.1690   -9.4330 C.2    36  ALA36       0.2260
     41  O          5.4460  -28.4310  -10.4220 O.2    36  ALA36      -0.2867
     42  CB         3.1640  -30.1660   -9.4900 C.3    36  ALA36       0.0290
     43  N          8.5310  -30.7190  -11.6890 N.3    38  LYS38      -0.1245
     44  CA         8.9780  -31.8230  -12.5290 C.3    38  LYS38       0.1561
     45  C         10.4860  -31.7300  -12.7680 C.2    38  LYS38       0.2260
     46  O         10.9750  -30.7670  -13.3650 O.2    38  LYS38      -0.2867
     47  CB         8.2050  -31.8210  -13.8550 C.3    38  LYS38       0.0271
     48  CG         8.4950  -33.0020  -14.7720 C.3    38  LYS38       0.0035
     49  CD         7.6580  -32.9180  -16.0400 C.3    38  LYS38       0.0206
     50  CE         7.9020  -34.1080  -16.9510 C.3    38  LYS38       0.1093
     51  NZ         6.9220  -34.1610  -18.0700 N.3    38  LYS38      -0.1314
     52  N         -2.8700  -27.2330  -17.9770 N.3    70  ILE70      -0.1245
     53  CA        -2.1440  -27.0750  -16.7130 C.3    70  ILE70       0.1561
     54  C         -1.2570  -25.8250  -16.6940 C.2    70  ILE70       0.2260
     55  O         -0.6890  -25.4350  -17.7190 O.2    70  ILE70      -0.2867
     56  CB        -1.3350  -28.3620  -16.3450 C.3    70  ILE70       0.0252
     57  CG1       -1.4220  -28.6680  -14.8450 C.3    70  ILE70       0.0019
     58  CG2        0.1140  -28.2700  -16.8190 C.3    70  ILE70       0.0019
     59  CD1       -2.7930  -29.1270  -14.3850 C.3    70  ILE70       0.0001
     60  N          4.8100  -25.9340  -11.6900 N.3    86  MET86      -0.1230
     61  CA         3.4750  -25.9430  -12.2880 C.3    86  MET86       0.1702
     62  C          2.3830  -26.2170  -11.2550 C.2    86  MET86       0.2592
     63  O          2.6730  -26.5830  -10.1120 O.2    86  MET86      -0.2718
     64  CB         3.4070  -26.9800  -13.4170 C.3    86  MET86       0.0401
     65  CG         4.6090  -27.9160  -13.4910 C.3    86  MET86       0.0596
     66  SD         4.4310  -29.2320  -14.7140 S.3    86  MET86      -0.1393
     67  CE         3.8520  -28.3130  -16.1390 C.3    86  MET86       0.0692
     68  N          1.1310  -26.0310  -11.6700 N.am   87  GLU87      -0.1966
     69  CA        -0.0300  -26.3130  -10.8310 C.3    87  GLU87       0.1733
     70  C          0.0290  -27.7570  -10.3310 C.2    87  GLU87       0.2616
     71  O          0.4230  -28.6640  -11.0690 O.2    87  GLU87      -0.2715
     72  CB        -1.3210  -26.0580  -11.6160 C.3    87  GLU87       0.0429
     73  CG        -2.5140  -25.6220  -10.7710 C.3    87  GLU87       0.1163
     74  CD        -3.7690  -25.3820  -11.5970 C.2    87  GLU87       0.3649
     75  OE1       -3.6790  -25.3540  -12.8440 O.co2  87  GLU87      -0.2457
     76  OE2       -4.8530  -25.2260  -10.9950 O.co2  87  GLU87      -0.2457
     77  N         -0.3600  -27.9540   -9.0720 N.am   88  CYS88      -0.1954
     78  CA        -0.2660  -29.2580   -8.4130 C.3    88  CYS88       0.1843
     79  C         -1.5830  -30.0330   -8.4320 C.2    88  CYS88       0.2626
     80  O         -1.5810  -31.2650   -8.4090 O.2    88  CYS88      -0.2714
     81  CB         0.2290  -29.0970   -6.9720 C.3    88  CYS88       0.0997
     82  SG         0.5870  -30.6570   -6.1280 S.3    88  CYS88      -0.0797
     83  N         -2.6970  -29.3050   -8.4680 N.am   89  GLY89      -0.1940
     84  CA        -4.0240  -29.9130   -8.4910 C.3    89  GLY89       0.2014
     85  C         -4.3010  -30.7920   -7.2870 C.2    89  GLY89       0.2639
     86  O         -3.5940  -30.7200   -6.2780 O.2    89  GLY89      -0.2714
     87  N         -5.3340  -31.6240   -7.3990 N.am   90  ASN90      -0.1958
     88  CA        -5.7360  -32.5190   -6.3180 C.3    90  ASN90       0.1819
     89  C         -5.2060  -33.9380   -6.5340 C.2    90  ASN90       0.2621
     90  O         -4.5510  -34.5020   -5.6540 O.2    90  ASN90      -0.2715
     91  CB        -7.2640  -32.5240   -6.1700 C.3    90  ASN90       0.1195
     92  CG        -7.7270  -33.0070   -4.8050 C.2    90  ASN90       0.2630
     93  OD1       -7.4300  -34.1280   -4.3890 O.2    90  ASN90      -0.2716
     94  ND2       -8.4730  -32.1600   -4.1060 N.am   90  ASN90      -0.0877
     95  N         -5.4900  -34.4960   -7.7110 N.am   91  ILE91      -0.1963
     96  CA        -5.0760  -35.8530   -8.0790 C.3    91  ILE91       0.1727
     97  C         -5.3330  -36.0950   -9.5700 C.2    91  ILE91       0.2616
     98  O         -6.2080  -35.4600  -10.1640 O.2    91  ILE91      -0.2715
     99  CB        -5.7850  -36.9360   -7.1940 C.3    91  ILE91       0.0290
    100  CG1       -5.1570  -38.3220   -7.4010 C.3    91  ILE91       0.0022
    101  CG2       -7.3070  -36.9400   -7.4230 C.3    91  ILE91       0.0023
    102  CD1       -6.0760  -39.4860   -7.0630 C.3    91  ILE91       0.0001
    103  N         -4.5550  -36.9930  -10.1740 N.am   92  ASP92      -0.1971
    104  CA        -4.7400  -37.3520  -11.5820 C.3    92  ASP92       0.1709
    105  C         -5.9900  -38.2130  -11.7680 C.2    92  ASP92       0.2293
    106  O         -6.3590  -38.9860  -10.8800 O.2    92  ASP92      -0.2864
    107  CB        -3.4970  -38.0510  -12.1490 C.3    92  ASP92       0.1436
    108  CG        -3.3940  -39.5070  -11.7270 C.2    92  ASP92       0.3671
    109  OD1       -3.5770  -40.3890  -12.5920 O.co2  92  ASP92      -0.2456
    110  OD2       -3.1320  -39.7700  -10.5340 O.co2  92  ASP92      -0.2456
    111  N         -5.8560  -42.2360  -11.0810 N.3    95  SER95      -0.1217
    112  CA        -5.8390  -42.6650   -9.6820 C.3    95  SER95       0.1889
    113  C         -7.2020  -42.4740   -9.0180 C.2    95  SER95       0.2288
    114  O         -7.6560  -43.3320   -8.2570 O.2    95  SER95      -0.2866
    115  CB        -4.7610  -41.9120   -8.8990 C.3    95  SER95       0.2089
    116  OG        -3.4760  -42.1330   -9.4570 O.3    95  SER95      -0.2183
    117  N         -4.4940  -40.7220  -17.0360 N.3   135  ALA135     -0.1245
    118  CA        -3.3040  -40.2370  -16.3330 C.3   135  ALA135      0.1562
    119  C         -2.8090  -38.8910  -16.8680 C.2   135  ALA135      0.2260
    120  O         -2.0100  -38.2120  -16.2150 O.2   135  ALA135     -0.2867
    121  CB        -2.1920  -41.2780  -16.3960 C.3   135  ALA135      0.0290
    122  N         -5.5790  -33.9520  -14.8230 N.3   138  LEU138     -0.1245
    123  CA        -5.4620  -33.6700  -13.3950 C.3   138  LEU138      0.1561
    124  C         -6.7250  -33.0060  -12.8510 C.2   138  LEU138      0.2260
    125  O         -7.2670  -32.0870  -13.4690 O.2   138  LEU138     -0.2867
    126  CB        -4.2390  -32.7810  -13.1280 C.3   138  LEU138      0.0270
    127  CG        -3.8980  -32.3950  -11.6840 C.3   138  LEU138      0.0019
    128  CD1       -3.2170  -33.5390  -10.9490 C.3   138  LEU138      0.0001
    129  CD2       -3.0210  -31.1600  -11.6650 C.3   138  LEU138      0.0001
    130  N         -2.4080  -32.2660  -18.5320 N.3   147  ILE147     -0.1245
    131  CA        -1.0690  -32.1810  -17.9440 C.3   147  ILE147      0.1561
    132  C          0.0170  -32.0040  -19.0130 C.2   147  ILE147      0.2260
    133  O          0.8180  -31.0710  -18.9370 O.2   147  ILE147     -0.2867
    134  CB        -0.7530  -33.4110  -17.0470 C.3   147  ILE147      0.0252
    135  CG1       -1.6870  -33.4470  -15.8300 C.3   147  ILE147      0.0019
    136  CG2        0.7100  -33.3930  -16.6020 C.3   147  ILE147      0.0019
    137  CD1       -1.8750  -34.8280  -15.2220 C.3   147  ILE147      0.0001
    138  N          5.2010  -39.9060  -18.4830 N.3   155  MET155     -0.1230
    139  CA         5.4730  -40.2870  -17.1000 C.3   155  MET155      0.1702
    140  C          4.2630  -40.9930  -16.4920 C.2   155  MET155      0.2592
    141  O          3.2290  -41.1480  -17.1480 O.2   155  MET155     -0.2718
    142  CB         5.7110  -39.0470  -16.2360 C.3   155  MET155      0.0401
    143  CG         6.9180  -38.2160  -16.6450 C.3   155  MET155      0.0596
    144  SD         7.7560  -37.4740  -15.2310 S.3   155  MET155     -0.1393
    145  CE         6.9440  -38.3130  -13.8720 C.3   155  MET155      0.0692
    146  N          4.3980  -41.4180  -15.2380 N.am  156  GLN156     -0.1966
    147  CA         3.3140  -42.0920  -14.5230 C.3   156  GLN156      0.1718
    148  C          3.1940  -41.7000  -13.0460 C.2   156  GLN156      0.2458
    149  O          4.2070  -41.5770  -12.3520 O.2   156  GLN156     -0.2730
    150  CB         3.5310  -43.6050  -14.6800 C.3   156  GLN156      0.0407
    151  CG         4.9160  -44.0420  -14.2310 C.3   156  GLN156      0.0908
    152  CD         5.0270  -45.5490  -14.1620 C.2   156  GLN156      0.2608
    153  OE1        4.3450  -46.3140  -14.8810 O.2   156  GLN156     -0.2717
    154  NE2        5.9080  -45.9870  -13.2780 N.am  156  GLN156     -0.0878
    155  N          1.9500  -41.4880  -12.5690 N.am  157  PRO157     -0.2716
    156  CA         1.6890  -41.0960  -11.1800 C.3   157  PRO157      0.1536
    157  C          2.0360  -42.1930  -10.1760 C.2   157  PRO157      0.2598
    158  O          1.9410  -43.3810  -10.4950 O.2   157  PRO157     -0.2715
    159  CB         0.1770  -40.8300  -11.1650 C.3   157  PRO157      0.0310
    160  CG        -0.1980  -40.6240  -12.5920 C.3   157  PRO157      0.0237
    161  CD         0.7070  -41.5260  -13.3590 C.3   157  PRO157      0.0939
    162  N          2.4380  -41.7840   -8.9740 N.am  158  ASP158     -0.1972
    163  CA         2.7900  -42.7150   -7.9050 C.3   158  ASP158      0.1709
    164  C          1.6030  -42.9690   -6.9810 C.2   158  ASP158      0.2293
    165  O          1.3960  -44.0890   -6.5140 O.2   158  ASP158     -0.2864
    166  CB         3.9810  -42.1850   -7.0990 C.3   158  ASP158      0.1436
    167  CG         5.2950  -42.2610   -7.8650 C.2   158  ASP158      0.3671
    168  OD1        5.2940  -42.6840   -9.0410 O.co2 158  ASP158     -0.2456
    169  OD2        6.3370  -41.8900   -7.2840 O.co2 158  ASP158     -0.2456
@<TRIPOS>BOND
     1   132   133    2
     2   132   131    1
     3   130   131    1
     4   138   139    1
     5    51    50    1
     6    52    53    1
     7   131   134    1
     8    55    54    2
     9   141   140    2
    10   139   140    1
    11   139   142    1
    12   134   136    1
    13   134   135    1
    14   117   118    1
    15    50    49    1
    16   119   118    1
    17   119   120    2
    18    58    56    1
    19    53    54    1
    20    53    56    1
    21   143   142    1
    22   143   144    1
    23   140   146   am
    24   121   118    1
    25    56    57    1
    26    67    66    1
    27    49    48    1
    28   135   137    1
    29   146   147    1
    30   144   145    1
    31   153   152    2
    32    57    59    1
    33   122   123    1
    34    48    47    1
    35    66    65    1
    36   150   147    1
    37   150   151    1
    38   147   148    1
    39   151   152    1
    40   152   154   am
    41    47    44    1
    42    65    64    1
    43   125   124    2
    44    64    61    1
    45   123   126    1
    46   123   124    1
    47    46    45    2
    48   161   160    1
    49   161   155    1
    50   126   127    1
    51   148   155   am
    52   148   149    2
    53    75    74   ar
    54    45    44    1
    55   109   108   ar
    56   160   159    1
    57   155   156    1
    58    44    43    1
    59    28    26    1
    60    61    60    1
    61    61    62    1
    62   107   108    1
    63   107   104    1
    64   105   104    1
    65   105   106    2
    66   108   110   ar
    67   127   129    1
    68   127   128    1
    69    68    62   am
    70    68    69    1
    71    72    69    1
    72    72    73    1
    73    74    76   ar
    74    74    73    1
    75   104   103    1
    76    62    63    2
    77   156   159    1
    78   156   157    1
    79   111   112    1
    80    71    70    2
    81    26    27    1
    82    26    23    1
    83    69    70    1
    84    20    19    1
    85    20    21    2
    86    22    23    1
    87   158   157    2
    88    41    40    2
    89    19    18    1
    90    70    77   am
    91    23    24    1
    92   157   162   am
    93   103    97   am
    94    98    97    2
    95   112   113    1
    96   112   115    1
    97    97    96    1
    98    42    39    1
    99   116   115    1
   100    40    39    1
   101    77    78    1
   102   168   167   ar
   103   113   114    2
   104    18    12   am
   105    13    12    2
   106   162   163    1
   107    24    25    2
   108    39    38    1
   109    84    83    1
   110    84    85    1
   111    83    79   am
   112    79    78    1
   113    79    80    2
   114    12    11    1
   115    78    81    1
   116    96    95    1
   117    96    99    1
   118   163   166    1
   119   163   164    1
   120   167   169   ar
   121   167   166    1
   122    95    89   am
   123    17    15    1
   124    15    14    1
   125   101    99    1
   126   100    99    1
   127   100   102    1
   128    87    85   am
   129    87    88    1
   130    85    86    2
   131    11    14    1
   132    11    10    1
   133   164   165    2
   134    81    82    1
   135    14    16    1
   136    89    88    1
   137    89    90    2
   138    88    91    1
   139    91    92    1
   140    29    30    1
   141    92    93    2
   142    92    94   am
   143    30    33    1
   144    30    31    1
   145     4     3    2
   146    33    34    1
   147    31    32    2
   148    34    35    1
   149     3     2    1
   150    37    35   am
   151    35    36    2
   152     8     7    1
   153     8     9    1
   154     2     1    1
   155     2     5    1
   156     6     7    1
   157     6     5    1
