@<TRIPOS>MOLECULE
tmp/3vqyA01.pdb
 149 139 0 0 0
SMALL
GASTEIGER

@<TRIPOS>ATOM
      1  N         40.1980   32.6850  -14.0170 N.3    85  MET85      -0.1245
      2  CA        39.6360   31.7960  -13.0100 C.3    85  MET85       0.1570
      3  C         39.4740   30.4150  -13.6280 C.2    85  MET85       0.2261
      4  O         38.9400   29.5060  -13.0060 O.2    85  MET85      -0.2867
      5  CB        38.2850   32.3140  -12.5110 C.3    85  MET85       0.0387
      6  CG        38.3860   33.3280  -11.3840 C.3    85  MET85       0.0595
      7  SD        39.3010   32.6870   -9.9530 S.3    85  MET85      -0.1393
      8  CE        38.3300   31.2880   -9.5460 C.3    85  MET85       0.0692
      9  N         31.1400   35.1270   -8.7370 N.3   109  MET109     -0.1245
     10  CA        31.7200   34.5340   -7.5400 C.3   109  MET109      0.1570
     11  C         32.6830   35.5410   -6.9180 C.2   109  MET109      0.2261
     12  O         32.9910   36.5700   -7.5220 O.2   109  MET109     -0.2867
     13  CB        32.4740   33.2630   -7.9070 C.3   109  MET109      0.0387
     14  CG        33.7620   33.5280   -8.6680 C.3   109  MET109      0.0595
     15  SD        34.1310   32.2300   -9.8410 S.3   109  MET109     -0.1393
     16  CE        34.4450   30.8580   -8.7180 C.3   109  MET109      0.0692
     17  N         35.8180   34.5220   -5.6050 N.3   111  ALA111     -0.1245
     18  CA        37.1720   33.9860   -5.7490 C.3   111  ALA111      0.1562
     19  C         38.2720   34.9250   -6.2380 C.2   111  ALA111      0.2260
     20  O         39.2710   35.1210   -5.5560 O.2   111  ALA111     -0.2867
     21  CB        37.1350   32.7510   -6.6330 C.3   111  ALA111      0.0290
     22  N         39.1510   37.7720   -3.6790 N.3   114  LEU114     -0.1231
     23  CA        39.7560   37.1910   -2.4860 C.3   114  LEU114      0.1693
     24  C         41.1650   36.6780   -2.8040 C.2   114  LEU114      0.2592
     25  O         42.0660   36.7500   -1.9690 O.2   114  LEU114     -0.2718
     26  CB        38.8660   36.0670   -1.9430 C.3   114  LEU114      0.0284
     27  CG        37.4700   36.5280   -1.4890 C.3   114  LEU114      0.0019
     28  CD1       36.7190   35.3820   -0.8310 C.3   114  LEU114      0.0001
     29  CD2       37.6080   37.6910   -0.5000 C.3   114  LEU114      0.0001
     30  N         41.3540   36.1650   -4.0170 N.am  115  TYR115     -0.1976
     31  CA        42.6630   35.6830   -4.4500 C.3   115  TYR115      0.1639
     32  C         43.6560   36.8380   -4.3610 C.2   115  TYR115      0.2290
     33  O         44.7600   36.6840   -3.8280 O.2   115  TYR115     -0.2864
     34  CB        42.6010   35.1960   -5.9000 C.3   115  TYR115      0.0560
     35  CG        42.7110   33.6930   -6.0720 C.ar  115  TYR115     -0.0198
     36  CD1       42.0210   33.0410   -7.1010 C.ar  115  TYR115     -0.0009
     37  CD2       43.5210   32.9260   -5.2320 C.ar  115  TYR115     -0.0009
     38  CE1       42.1350   31.6660   -7.2880 C.ar  115  TYR115      0.0417
     39  CE2       43.6410   31.5540   -5.4100 C.ar  115  TYR115      0.0417
     40  CZ        42.9430   30.9290   -6.4430 C.ar  115  TYR115      0.1957
     41  OH        43.0560   29.5690   -6.6390 O.3   115  TYR115     -0.2866
     42  N         44.5480   37.7630   -0.8000 N.3   118  LEU118     -0.1245
     43  CA        45.4410   36.7930   -0.1850 C.3   118  LEU118      0.1561
     44  C         46.8900   37.0660   -0.5800 C.2   118  LEU118      0.2260
     45  O         47.7920   37.0290    0.2610 O.2   118  LEU118     -0.2867
     46  CB        45.0530   35.3660   -0.5950 C.3   118  LEU118      0.0270
     47  CG        43.7790   34.7720    0.0190 C.3   118  LEU118      0.0019
     48  CD1       43.4390   33.4660   -0.6860 C.3   118  LEU118      0.0001
     49  CD2       43.9640   34.5410    1.5060 C.3   118  LEU118      0.0001
     50  N         24.6050   35.1450  -11.7820 N.3   139  ARG139     -0.1245
     51  CA        24.6900   34.0510  -12.7420 C.3   139  ARG139      0.1563
     52  C         23.3500   33.8780  -13.4590 C.2   139  ARG139      0.2260
     53  O         22.2810   34.0150  -12.8440 O.2   139  ARG139     -0.2867
     54  CB        25.0230   32.7400  -12.0370 C.3   139  ARG139      0.0307
     55  CG        26.3080   32.7450  -11.2490 C.3   139  ARG139      0.0489
     56  CD        26.6210   31.3550  -10.7200 C.3   139  ARG139      0.2205
     57  NE        27.8530   31.3490   -9.9350 N.pl3 139  ARG139     -0.0865
     58  CZ        28.3330   30.2790   -9.3080 C.cat 139  ARG139      0.5346
     59  NH1       27.6870   29.1240   -9.3760 N.pl3 139  ARG139      0.1354
     60  NH2       29.4490   30.3680   -8.5980 N.pl3 139  ARG139      0.1354
     61  N         26.5690   35.7730   -1.6220 N.3   153  MET153     -0.1245
     62  CA        27.5280   34.7590   -1.2550 C.3   153  MET153      0.1570
     63  C         28.4470   35.1230   -0.1200 C.2   153  MET153      0.2261
     64  O         28.7960   36.2930    0.0890 O.2   153  MET153     -0.2867
     65  CB        28.3790   34.3790   -2.4600 C.3   153  MET153      0.0387
     66  CG        27.8050   33.2200   -3.2270 C.3   153  MET153      0.0595
     67  SD        29.0240   31.9470   -3.3720 S.3   153  MET153     -0.1393
     68  CE        29.6640   32.2910   -5.0730 C.3   153  MET153      0.0692
     69  N         32.1340   33.8770    1.3140 N.3   155  ASN155     -0.1225
     70  CA        33.3320   33.1150    1.0210 C.3   155  ASN155      0.1785
     71  C         34.3570   33.4880    2.0620 C.2   155  ASN155      0.2597
     72  O         34.7370   34.6540    2.1740 O.2   155  ASN155     -0.2718
     73  CB        33.9060   33.4460   -0.3540 C.3   155  ASN155      0.1169
     74  CG        33.3460   32.5650   -1.4480 C.2   155  ASN155      0.2627
     75  OD1       32.1950   32.7090   -1.8600 O.2   155  ASN155     -0.2716
     76  ND2       34.1640   31.6380   -1.9220 N.am  155  ASN155     -0.0877
     77  N         34.7740   32.5080    2.8520 N.am  156  PHE156     -0.1962
     78  CA        35.8040   32.7380    3.8380 C.3   156  PHE156      0.1771
     79  C         36.9460   31.8130    3.4480 C.2   156  PHE156      0.2619
     80  O         36.7370   30.7960    2.7840 O.2   156  PHE156     -0.2715
     81  CB        35.3220   32.3940    5.2490 C.3   156  PHE156      0.0574
     82  CG        34.9910   30.9310    5.4520 C.ar  156  PHE156     -0.0200
     83  CD1       33.6760   30.4830    5.3790 C.ar  156  PHE156     -0.0042
     84  CD2       35.9940   30.0080    5.7410 C.ar  156  PHE156     -0.0042
     85  CE1       33.3640   29.1430    5.5960 C.ar  156  PHE156     -0.0003
     86  CE2       35.6900   28.6620    5.9580 C.ar  156  PHE156     -0.0003
     87  CZ        34.3760   28.2300    5.8870 C.ar  156  PHE156     -0.0000
     88  N         38.1580   32.1660    3.8440 N.am  157  CYS157     -0.1968
     89  CA        39.2900   31.3110    3.5510 C.3   157  CYS157      0.1712
     90  C         40.4680   31.6500    4.4280 C.2   157  CYS157      0.2296
     91  O         40.6010   32.7700    4.9130 O.2   157  CYS157     -0.2864
     92  CB        39.6880   31.4180    2.0830 C.3   157  CYS157      0.0983
     93  SG        40.1160   33.0660    1.6020 S.3   157  CYS157     -0.0798
     94  N         30.2030   24.7740   -1.2770 N.3   202  SER202     -0.1217
     95  CA        31.2730   24.0300   -1.9010 C.3   202  SER202      0.1889
     96  C         32.5280   24.5530   -1.2330 C.2   202  SER202      0.2288
     97  O         32.7460   25.7670   -1.1350 O.2   202  SER202     -0.2866
     98  CB        31.3200   24.2690   -3.4010 C.3   202  SER202      0.2089
     99  OG        30.3450   23.4690   -4.0320 O.3   202  SER202     -0.2183
    100  N         36.8880   23.8310   -0.7020 N.3   204  VAL204     -0.1245
    101  CA        38.0510   23.2240   -1.3170 C.3   204  VAL204      0.1561
    102  C         39.2620   23.3590   -0.4070 C.2   204  VAL204      0.2260
    103  O         39.4060   24.3400    0.3240 O.2   204  VAL204     -0.2867
    104  CB        38.3510   23.8500   -2.7260 C.3   204  VAL204      0.0252
    105  CG1       37.5170   25.0870   -2.9400 C.3   204  VAL204      0.0019
    106  CG2       39.8230   24.1860   -2.8650 C.3   204  VAL204      0.0019
    107  N         45.8240   24.3050   -5.1570 N.3   208  ILE208     -0.1245
    108  CA        45.2980   23.8020   -6.4280 C.3   208  ILE208      0.1561
    109  C         46.0660   24.5040   -7.5490 C.2   208  ILE208      0.2260
    110  O         46.5470   25.6220   -7.3780 O.2   208  ILE208     -0.2867
    111  CB        43.7770   24.0950   -6.6110 C.3   208  ILE208      0.0252
    112  CG1       43.5180   25.6010   -6.5470 C.3   208  ILE208      0.0019
    113  CG2       42.9590   23.3500   -5.5670 C.3   208  ILE208      0.0019
    114  CD1       42.1140   25.9740   -6.9340 C.3   208  ILE208      0.0001
    115  N         45.3110   26.2420  -10.0720 N.3   210  LEU210     -0.1245
    116  CA        44.8770   27.5970  -10.3910 C.3   210  LEU210      0.1561
    117  C         45.5740   28.6600   -9.5340 C.2   210  LEU210      0.2260
    118  O         45.7110   29.8120   -9.9480 O.2   210  LEU210     -0.2867
    119  CB        43.3600   27.6910  -10.2170 C.3   210  LEU210      0.0270
    120  CG        42.6360   28.9840  -10.5780 C.3   210  LEU210      0.0019
    121  CD1       42.8250   29.2800  -12.0560 C.3   210  LEU210      0.0001
    122  CD2       41.1490   28.8380  -10.2500 C.3   210  LEU210      0.0001
    123  N         45.8710   26.2930    1.6390 N.3   220  TRP220     -0.1241
    124  CA        44.7430   27.1130    2.0590 C.3   220  TRP220      0.1605
    125  C         43.4650   26.3030    2.0480 C.2   220  TRP220      0.2264
    126  O         43.3980   25.2470    1.4260 O.2   220  TRP220     -0.2867
    127  CB        44.5700   28.3220    1.1350 C.3   220  TRP220      0.0550
    128  CG        44.3080   27.9680   -0.2850 C.ar  220  TRP220      0.0003
    129  CD1       45.2380   27.7140   -1.2550 C.ar  220  TRP220      0.0946
    130  CD2       43.0270   27.8040   -0.9040 C.ar  220  TRP220      0.0152
    131  NE1       44.6130   27.4020   -2.4410 N.ar  220  TRP220     -0.2442
    132  CE2       43.2570   27.4470   -2.2530 C.ar  220  TRP220      0.0810
    133  CE3       41.7070   27.9220   -0.4510 C.ar  220  TRP220      0.0012
    134  CZ2       42.2120   27.2040   -3.1530 C.ar  220  TRP220      0.0191
    135  CZ3       40.6690   27.6830   -1.3470 C.ar  220  TRP220      0.0001
    136  CH2       40.9280   27.3280   -2.6820 C.ar  220  TRP220      0.0015
    137  N         38.9210   26.8890    2.1750 N.3   222  GLY222     -0.1210
    138  CA        37.8890   27.8910    1.9960 C.3   222  GLY222      0.1956
    139  C         36.5930   27.2930    1.5140 C.2   222  GLY222      0.2612
    140  O         36.5700   26.2100    0.9230 O.2   222  GLY222     -0.2717
    141  N         35.5070   28.0110    1.7670 N.am  223  ALA223     -0.1965
    142  CA        34.1870   27.5590    1.3670 C.3   223  ALA223      0.1728
    143  C         33.3350   28.7530    0.9840 C.2   223  ALA223      0.2616
    144  O         33.5410   29.8540    1.4900 O.2   223  ALA223     -0.2715
    145  CB        33.5280   26.8090    2.5170 C.3   223  ALA223      0.0334
    146  N         32.3770   28.5230    0.0910 N.am  224  GLY224     -0.1955
    147  CA        31.4740   29.5760   -0.3240 C.3   224  GLY224      0.1869
    148  C         30.0550   29.1260   -0.0250 C.2   224  GLY224      0.2309
    149  O         29.6810   28.0050   -0.3780 O.2   224  GLY224     -0.2863
@<TRIPOS>BOND
     1     1     2    1
     2     3     2    1
     3     3     4    2
     4    52    53    2
     5    52    51    1
     6     2     5    1
     7    51    54    1
     8    51    50    1
     9     5     6    1
    10   121   120    1
    11    54    55    1
    12     6     7    1
    13    55    56    1
    14    56    57    1
    15   120   122    1
    16   120   119    1
    17   116   119    1
    18   116   115    1
    19   116   117    1
    20     7     8    1
    21   118   117    2
    22    57    58    2
    23    15    16    1
    24    15    14    1
    25    59    58    1
    26    58    60    1
    27     9    10    1
    28    14    13    1
    29    13    10    1
    30   109   110    2
    31   109   108    1
    32    10    11    1
    33    12    11    2
    34    38    36   ar
    35    38    40   ar
    36    36    35   ar
    37   114   112    1
    38    41    40    1
    39    21    18    1
    40   111   112    1
    41   111   108    1
    42   111   113    1
    43    40    39   ar
    44   108   107    1
    45    19    18    1
    46    19    20    2
    47    35    34    1
    48    35    37   ar
    49    34    31    1
    50    18    17    1
    51    39    37   ar
    52    68    67    1
    53    31    32    1
    54    31    30    1
    55    32    33    2
    56    99    98    1
    57    30    24   am
    58    22    23    1
    59    98    95    1
    60    67    66    1
    61    66    65    1
    62   134   136   ar
    63   134   132   ar
    64   105   104    1
    65   106   104    1
    66    24    23    1
    67    24    25    2
    68   104   101    1
    69   136   135   ar
    70    23    26    1
    71    65    62    1
    72   131   132   ar
    73   131   129   ar
    74   132   130   ar
    75    26    27    1
    76    76    74   am
    77    95    94    1
    78    95    96    1
    79    75    74    2
    80    61    62    1
    81    27    28    1
    82    27    29    1
    83    74    73    1
    84   135   133   ar
    85   101   100    1
    86   101   102    1
    87   129   128   ar
    88    62    63    1
    89    96    97    2
    90   130   133   ar
    91   130   128   ar
    92    42    43    1
    93    48    47    1
    94    46    43    1
    95    46    47    1
    96    44    43    1
    97    44    45    2
    98   102   103    2
    99   149   148    2
   100    73    70    1
   101   147   148    1
   102   147   146    1
   103   128   127    1
   104    63    64    2
   105    47    49    1
   106   146   143   am
   107   140   139    2
   108   143   142    1
   109   143   144    2
   110    70    69    1
   111    70    71    1
   112   127   124    1
   113   142   141    1
   114   142   145    1
   115   126   125    2
   116   139   141   am
   117   139   138    1
   118    93    92    1
   119   123   124    1
   120   138   137    1
   121   125   124    1
   122    71    72    2
   123    71    77   am
   124    92    89    1
   125    80    79    2
   126    77    78    1
   127    79    78    1
   128    79    88   am
   129    89    88    1
   130    89    90    1
   131    78    81    1
   132    90    91    2
   133    81    82    1
   134    83    82   ar
   135    83    85   ar
   136    82    84   ar
   137    85    87   ar
   138    84    86   ar
   139    87    86   ar
