@<TRIPOS>MOLECULE
tmp/3vr1A00.pdb
 158 155 0 0 0
SMALL
GASTEIGER

@<TRIPOS>ATOM
      1  N         16.6340    4.7650   26.5780 N.3    19  SER19      -0.1202
      2  CA        16.0450    4.0100   25.4760 C.3    19  SER19       0.2020
      3  C         16.6740    2.6610   25.3470 C.2    19  SER19       0.2619
      4  O         17.7960    2.4650   25.7690 O.2    19  SER19      -0.2717
      5  CB        16.2540    4.7640   24.1520 C.3    19  SER19       0.2103
      6  OG        17.6240    4.7450   23.7220 O.3    19  SER19      -0.2182
      7  N         15.9550    1.7260   24.7410 N.am   20  HIS20      -0.1961
      8  CA        16.5150    0.4120   24.4590 C.3    20  HIS20       0.1772
      9  C         17.2380    0.6180   23.1260 C.2    20  HIS20       0.2462
     10  O         17.0390    1.6440   22.4710 O.2    20  HIS20      -0.2730
     11  CB        15.3960   -0.6150   24.4080 C.3    20  HIS20       0.0785
     12  CG        15.8210   -1.9630   23.9150 C.ar   20  HIS20       0.0821
     13  ND1       16.1820   -2.9910   24.7660 N.ar   20  HIS20      -0.2267
     14  CD2       15.9180   -2.4640   22.6560 C.ar   20  HIS20       0.1154
     15  CE1       16.4890   -4.0630   24.0510 C.ar   20  HIS20       0.1986
     16  NE2       16.3330   -3.7720   22.7670 N.ar   20  HIS20      -0.2212
     17  N         18.1320   -0.3030   22.7370 N.am   21  PRO21      -0.2716
     18  CA        18.8300   -0.0700   21.4560 C.3    21  PRO21       0.1536
     19  C         17.9280    0.0080   20.2070 C.2    21  PRO21       0.2599
     20  O         16.8740   -0.6130   20.1780 O.2    21  PRO21      -0.2715
     21  CB        19.7850   -1.2550   21.3780 C.3    21  PRO21       0.0310
     22  CG        20.1050   -1.5330   22.8100 C.3    21  PRO21       0.0237
     23  CD        18.8180   -1.3230   23.5520 C.3    21  PRO21       0.0939
     24  N         18.3450    0.8050   19.2160 N.am   22  ASP22      -0.1958
     25  CA        17.6580    0.9740   17.9200 C.3    22  ASP22       0.1840
     26  C         16.2960    1.6580   17.9450 C.2    22  ASP22       0.2622
     27  O         15.5890    1.6140   16.9100 O.2    22  ASP22      -0.2715
     28  CB        17.5130   -0.3700   17.1970 C.3    22  ASP22       0.1450
     29  CG        18.8360   -0.9030   16.7030 C.2    22  ASP22       0.3671
     30  OD1       19.3060   -1.9590   17.2220 O.co2  22  ASP22      -0.2456
     31  OD2       19.4050   -0.2460   15.7900 O.co2  22  ASP22      -0.2456
     32  N         15.9240    2.2470   19.0940 N.am   23  ALA23      -0.1963
     33  CA        14.6360    2.9240   19.2580 C.3    23  ALA23       0.1728
     34  C         14.5930    4.2160   18.4620 C.2    23  ALA23       0.2617
     35  O         13.5280    4.6440   18.0030 O.2    23  ALA23      -0.2715
     36  CB        14.3850    3.2190   20.6740 C.3    23  ALA23       0.0334
     37  N         15.7490    4.8590   18.2940 N.am   24  GLY24      -0.1940
     38  CA        15.8140    6.0870   17.4920 C.3    24  GLY24       0.2014
     39  C         16.3480    7.2510   18.3040 C.2    24  GLY24       0.2639
     40  O         16.1630    8.4120   17.9520 O.2    24  GLY24      -0.2714
     41  N         17.0110    6.9290   19.4030 N.am   25  LYS25      -0.1963
     42  CA        17.5820    7.9470   20.2610 C.3    25  LYS25       0.1728
     43  C         18.4920    8.8790   19.4610 C.2    25  LYS25       0.2617
     44  O         18.3860   10.1120   19.5580 O.2    25  LYS25      -0.2715
     45  CB        18.3870    7.3010   21.3940 C.3    25  LYS25       0.0311
     46  CG        18.9160    8.3070   22.4020 C.3    25  LYS25       0.0038
     47  CD        19.7870    7.6520   23.4460 C.3    25  LYS25       0.0206
     48  CE        21.1150    7.2340   22.8610 C.3    25  LYS25       0.1093
     49  NZ        21.9770    6.6610   23.9040 N.3    25  LYS25      -0.1314
     50  N         19.3860    8.2910   18.6780 N.am   26  THR26      -0.1937
     51  CA        20.3150    9.0870   17.8930 C.3    26  THR26       0.2028
     52  C         19.5590    9.9610   16.9210 C.2    26  THR26       0.2642
     53  O         19.8780   11.1380   16.7630 O.2    26  THR26      -0.2714
     54  CB        21.2910    8.2070   17.1120 C.3    26  THR26       0.1808
     55  OG1       22.0180    7.3950   18.0530 O.3    26  THR26      -0.2208
     56  CG2       22.2710    9.0710   16.2550 C.3    26  THR26       0.0379
     57  N         18.5530    9.3880   16.2790 N.am   27  THR27      -0.1950
     58  CA        17.7490   10.1430   15.3370 C.3    27  THR27       0.1897
     59  C         17.0390   11.3050   16.0390 C.2    27  THR27       0.2313
     60  O         17.0520   12.4510   15.5610 O.2    27  THR27      -0.2863
     61  CB        16.7220    9.2110   14.6390 C.3    27  THR27       0.1794
     62  OG1       17.4400    8.1760   13.9540 O.3    27  THR27      -0.2208
     63  CG2       15.8610    9.9690   13.6410 C.3    27  THR27       0.0378
     64  N         26.8310    8.5090   13.5210 N.3    49  LYS49      -0.1245
     65  CA        25.8980    7.4440   13.2170 C.3    49  LYS49       0.1561
     66  C         26.3530    6.8000   11.9330 C.2    49  LYS49       0.2260
     67  O         26.5140    5.5790   11.8660 O.2    49  LYS49      -0.2867
     68  CB        24.4780    7.9800   13.0420 C.3    49  LYS49       0.0271
     69  CG        23.3900    6.9000   13.0240 C.3    49  LYS49       0.0035
     70  CD        22.0990    7.5470   12.5150 C.3    49  LYS49       0.0206
     71  CE        20.9340    6.5550   12.4760 C.3    49  LYS49       0.1093
     72  NZ        19.7910    7.1210   11.6590 N.3    49  LYS49      -0.1314
     73  N         29.5710    4.4120   11.8310 N.3    52  ARG52      -0.1231
     74  CA        29.4980    3.0650   12.3840 C.3    52  ARG52       0.1694
     75  C         29.4570    2.0710   11.2520 C.2    52  ARG52       0.2592
     76  O         30.2500    1.1370   11.2060 O.2    52  ARG52      -0.2718
     77  CB        28.2260    2.8660   13.2090 C.3    52  ARG52       0.0321
     78  CG        28.2140    3.5050   14.5690 C.3    52  ARG52       0.0489
     79  CD        26.8410    3.4110   15.1980 C.3    52  ARG52       0.2205
     80  NE        26.5710    4.6080   15.9890 N.pl3  52  ARG52      -0.0865
     81  CZ        25.3690    4.9790   16.4240 C.cat  52  ARG52       0.5346
     82  NH1       24.2900    4.2420   16.1590 N.pl3  52  ARG52       0.1354
     83  NH2       25.2480    6.0990   17.1280 N.pl3  52  ARG52       0.1354
     84  N         28.5100    2.2940   10.3440 N.am   53  HIS53      -0.1976
     85  CA        28.2290    1.3820    9.2570 C.3    53  HIS53       0.1656
     86  C         29.0260    1.7740    8.0510 C.2    53  HIS53       0.2291
     87  O         28.7380    1.3210    6.9690 O.2    53  HIS53      -0.2864
     88  CB        26.7580    1.4620    8.8500 C.3    53  HIS53       0.0771
     89  CG        25.7980    1.3650    9.9950 C.ar   53  HIS53       0.0820
     90  ND1       25.9010    0.4070   10.9850 N.ar   53  HIS53      -0.2267
     91  CD2       24.6990    2.0970   10.2980 C.ar   53  HIS53       0.1154
     92  CE1       24.9160    0.5610   11.8530 C.ar   53  HIS53       0.1986
     93  NE2       24.1700    1.5780   11.4570 N.ar   53  HIS53      -0.2212
     94  N         24.3400    0.4910   23.2280 N.3    91  HIS91      -0.1241
     95  CA        24.8930   -0.5430   22.3650 C.3    91  HIS91       0.1621
     96  C         26.1350   -1.1630   22.9800 C.2    91  HIS91       0.2264
     97  O         26.1570   -1.5390   24.1430 O.2    91  HIS91      -0.2867
     98  CB        25.2880    0.0540   21.0050 C.3    91  HIS91       0.0745
     99  CG        24.1410    0.5940   20.2150 C.ar   91  HIS91       0.0817
    100  ND1       23.3690   -0.1990   19.3910 N.ar   91  HIS91      -0.2268
    101  CD2       23.6480    1.8520   20.1040 C.ar   91  HIS91       0.1154
    102  CE1       22.4400    0.5490   18.8140 C.ar   91  HIS91       0.1986
    103  NE2       22.5820    1.7950   19.2380 N.ar   91  HIS91      -0.2212
    104  N          8.0500    6.3270   19.1720 N.3   141  ASN141     -0.1225
    105  CA         8.6480    6.5750   17.8530 C.3   141  ASN141      0.1785
    106  C          8.2610    5.5740   16.7670 C.2   141  ASN141      0.2597
    107  O          7.7040    4.5100   17.0470 O.2   141  ASN141     -0.2718
    108  CB        10.1690    6.5920   18.0270 C.3   141  ASN141      0.1169
    109  CG        10.8970    7.1200   16.8190 C.2   141  ASN141      0.2627
    110  OD1       10.4750    8.1150   16.2000 O.2   141  ASN141     -0.2716
    111  ND2       12.0140    6.4530   16.4680 N.am  141  ASN141     -0.0877
    112  N          8.5720    5.9390   15.5260 N.am  142  LYS142     -0.1980
    113  CA         8.3890    5.1120   14.3040 C.3   142  LYS142      0.1596
    114  C          6.9460    4.7960   13.9140 C.2   142  LYS142      0.2287
    115  O          6.6520    3.6650   13.5260 O.2   142  LYS142     -0.2864
    116  CB         9.1860    3.8170   14.3830 C.3   142  LYS142      0.0298
    117  CG        10.6100    3.9640   14.8650 C.3   142  LYS142      0.0038
    118  CD        11.3750    2.6670   14.6100 C.3   142  LYS142      0.0206
    119  CE        12.7360    2.6480   15.2980 C.3   142  LYS142      0.1093
    120  NZ        13.4520    1.3500   15.0740 N.3   142  LYS142     -0.1314
    121  N          5.5890    5.5120   11.2640 N.3   144  ASP144     -0.1225
    122  CA         5.5540    5.3090    9.8280 C.3   144  ASP144      0.1805
    123  C          5.7200    3.8370    9.4300 C.2   144  ASP144      0.2597
    124  O          5.4370    3.4590    8.2710 O.2   144  ASP144     -0.2718
    125  CB         6.6320    6.1430    9.1570 C.3   144  ASP144      0.1424
    126  CG         7.9480    6.0140    9.8510 C.2   144  ASP144      0.3668
    127  OD1        7.9760    6.3160   11.0570 O.co2 144  ASP144     -0.2456
    128  OD2        8.9430    5.6100    9.2160 O.co2 144  ASP144     -0.2456
    129  N          6.1930    3.0220   10.3720 N.am  145  ARG145     -0.1979
    130  CA         6.2880    1.5880   10.1690 C.3   145  ARG145      0.1597
    131  C          5.0900    1.0210   10.9070 C.2   145  ARG145      0.2287
    132  O          4.5350    1.6940   11.7740 O.2   145  ARG145     -0.2864
    133  CB         7.5780    1.0360   10.7740 C.3   145  ARG145      0.0334
    134  CG         8.8840    1.3850   10.0740 C.3   145  ARG145      0.0492
    135  CD         9.2230    0.4150    8.9480 C.3   145  ARG145      0.2205
    136  NE        10.3360    0.9300    8.1490 N.pl3 145  ARG145     -0.0865
    137  CZ        10.2200    1.8370    7.1730 C.cat 145  ARG145      0.5346
    138  NH1        9.0340    2.3480    6.8450 N.pl3 145  ARG145      0.1354
    139  NH2       11.3000    2.2450    6.5210 N.pl3 145  ARG145      0.1354
    140  N          7.4710   10.2540   14.4570 N.3   251  SER251     -0.1202
    141  CA         8.3500    9.5640   13.5560 C.3   251  SER251      0.2020
    142  C          9.5870   10.4360   13.5230 C.2   251  SER251      0.2619
    143  O          9.6900   11.3900   12.7400 O.2   251  SER251     -0.2717
    144  CB         7.7070    9.4510   12.1740 C.3   251  SER251      0.2103
    145  OG         8.6290    8.9270   11.2250 O.3   251  SER251     -0.2182
    146  N         10.5270   10.1260   14.4020 N.am  252  ALA252     -0.1965
    147  CA        11.7150   10.9350   14.5200 C.3   252  ALA252      0.1728
    148  C         12.4120   10.9890   13.1630 C.2   252  ALA252      0.2616
    149  O         12.8660   12.0450   12.7310 O.2   252  ALA252     -0.2715
    150  CB        12.6330   10.3700   15.5830 C.3   252  ALA252      0.0334
    151  N         12.4880    9.8710   12.4730 N.am  253  ILE253     -0.1977
    152  CA        13.2110    9.8740   11.2150 C.3   253  ILE253      0.1596
    153  C         12.7170   11.0300   10.3570 C.2   253  ILE253      0.2287
    154  O         13.5140   11.6680    9.6730 O.2   253  ILE253     -0.2864
    155  CB        13.0750    8.5150   10.4460 C.3   253  ILE253      0.0276
    156  CG1       13.9890    8.4890    9.2350 C.3   253  ILE253      0.0022
    157  CG2       11.6560    8.3020   10.0230 C.3   253  ILE253      0.0022
    158  CD1       15.4430    8.6700    9.5860 C.3   253  ILE253      0.0001
@<TRIPOS>BOND
     1   139   137    1
     2   138   137    1
     3    87    86    2
     4   137   136    2
     5    86    85    1
     6   136   135    1
     7   124   123    2
     8    88    85    1
     9    88    89    1
    10   135   134    1
    11   125   122    1
    12   125   126    1
    13   128   126   ar
    14   156   158    1
    15   156   155    1
    16    85    84    1
    17   123   122    1
    18   123   129   am
    19   154   153    2
    20   122   121    1
    21   126   127   ar
    22    89    91   ar
    23    89    90   ar
    24   157   155    1
    25   134   133    1
    26   130   129    1
    27   130   133    1
    28   130   131    1
    29    91    93   ar
    30    84    75   am
    31   153   152    1
    32   155   152    1
    33   131   132    2
    34    90    92   ar
    35    76    75    2
    36   152   151    1
    37   145   144    1
    38    75    74    1
    39    93    92   ar
    40    72    71    1
    41    73    74    1
    42    67    66    2
    43    66    65    1
    44   144   141    1
    45    74    77    1
    46   151   148   am
    47    71    70    1
    48    70    69    1
    49   149   148    2
    50   143   142    2
    51    69    68    1
    52    68    65    1
    53   148   147    1
    54    77    78    1
    55    65    64    1
    56   142   141    1
    57   142   146   am
    58   115   114    2
    59   141   140    1
    60    63    61    1
    61   114   113    1
    62    62    61    1
    63   113   116    1
    64   113   112    1
    65   116   117    1
    66   146   147    1
    67   147   150    1
    68    78    79    1
    69   118   117    1
    70   118   119    1
    71    61    58    1
    72   120   119    1
    73    79    80    1
    74    58    59    1
    75    58    57    1
    76   112   106   am
    77    60    59    2
    78    31    29   ar
    79    80    81    2
    80    82    81    1
    81   110   109    2
    82    56    54    1
    83    57    52   am
    84    81    83    1
    85   111   109   am
    86    29    28    1
    87    29    30   ar
    88    53    52    2
    89   106   107    2
    90   106   105    1
    91   109   108    1
    92    27    26    2
    93    52    51    1
    94    54    51    1
    95    54    55    1
    96    28    25    1
    97    38    37    1
    98    38    39    1
    99   105   108    1
   100   105   104    1
   101    51    50    1
   102    25    26    1
   103    25    24    1
   104    26    32   am
   105    40    39    2
   106    35    34    2
   107    37    34   am
   108    39    41   am
   109    34    33    1
   110    50    43   am
   111   102   103   ar
   112   102   100   ar
   113    32    33    1
   114    24    19   am
   115   103   101   ar
   116    33    36    1
   117   100    99   ar
   118    41    42    1
   119    43    44    2
   120    43    42    1
   121   101    99   ar
   122    20    19    2
   123    19    18    1
   124    99    98    1
   125    42    45    1
   126    98    95    1
   127    21    18    1
   128    21    22    1
   129    45    46    1
   130    18    17    1
   131    95    96    1
   132    95    94    1
   133    46    47    1
   134    10     9    2
   135    14    16   ar
   136    14    12   ar
   137    17     9   am
   138    17    23    1
   139    16    15   ar
   140    22    23    1
   141    48    47    1
   142    48    49    1
   143    96    97    2
   144     9     8    1
   145     6     5    1
   146    12    11    1
   147    12    13   ar
   148    15    13   ar
   149     5     2    1
   150    11     8    1
   151     8     7    1
   152     7     3   am
   153     3     2    1
   154     3     4    2
   155     2     1    1
