@<TRIPOS>MOLECULE
tmp/3vr9B00.pdb
 90 89 0 0 0
SMALL
GASTEIGER

@<TRIPOS>ATOM
      1  N        -13.5580  -12.5780   17.1830 N.3   159  SER159     -0.1217
      2  CA       -12.3510  -12.2620   16.4440 C.3   159  SER159      0.1889
      3  C        -11.2010  -12.3440   17.4260 C.2   159  SER159      0.2288
      4  O        -10.0500  -12.5000   17.0350 O.2   159  SER159     -0.2866
      5  CB       -12.4360  -10.8490   15.8670 C.3   159  SER159      0.2089
      6  OG       -12.5920   -9.9160   16.9180 O.3   159  SER159     -0.2183
      7  N         -8.6700  -13.7000   19.7350 N.3   161  PRO161     -0.2102
      8  CA        -8.0190  -15.0050   19.8710 C.3   161  PRO161      0.1504
      9  C         -7.8960  -15.4540   21.3320 C.2   161  PRO161      0.2576
     10  O         -7.3900  -16.5370   21.6150 O.2   161  PRO161     -0.2718
     11  CB        -6.6170  -14.7670   19.2580 C.3   161  PRO161      0.0282
     12  CG        -6.7270  -13.4230   18.5140 C.3   161  PRO161      0.0208
     13  CD        -7.7130  -12.6580   19.3330 C.3   161  PRO161      0.0893
     14  N         -8.3230  -14.6150   22.2580 N.am  162  SER162     -0.1953
     15  CA        -8.2370  -15.0200   23.6270 C.3   162  SER162      0.1924
     16  C         -9.5620  -15.6200   23.9700 C.2   162  SER162      0.2314
     17  O         -9.6350  -16.6800   24.5710 O.2   162  SER162     -0.2863
     18  CB        -7.9090  -13.8560   24.5450 C.3   162  SER162      0.2116
     19  OG        -7.5570  -14.3660   25.8240 O.3   162  SER162     -0.2180
     20  N        -11.1150  -16.9290   21.7690 N.3   164  TRP164     -0.1227
     21  CA       -10.9650  -18.1650   21.0040 C.3   164  TRP164      0.1737
     22  C        -10.5190  -19.2070   21.9750 C.2   164  TRP164      0.2595
     23  O        -11.2950  -20.0890   22.3480 O.2   164  TRP164     -0.2718
     24  CB        -9.9480  -18.0040   19.8780 C.3   164  TRP164      0.0564
     25  CG       -10.5200  -17.3010   18.6980 C.ar  164  TRP164      0.0003
     26  CD1      -11.7980  -16.8550   18.5700 C.ar  164  TRP164      0.0946
     27  CD2       -9.8690  -17.0090   17.4530 C.ar  164  TRP164      0.0152
     28  NE1      -11.9820  -16.2940   17.3370 N.ar  164  TRP164     -0.2442
     29  CE2      -10.8120  -16.3710   16.6310 C.ar  164  TRP164      0.0810
     30  CE3       -8.5880  -17.2310   16.9480 C.ar  164  TRP164      0.0012
     31  CZ2      -10.5140  -15.9460   15.3300 C.ar  164  TRP164      0.0191
     32  CZ3       -8.2960  -16.8070   15.6360 C.ar  164  TRP164      0.0001
     33  CH2       -9.2560  -16.1900   14.8490 C.ar  164  TRP164      0.0015
     34  N         -9.3010  -19.0570   22.4650 N.am  165  TRP165     -0.1962
     35  CA        -8.7420  -20.0640   23.3420 C.3   165  TRP165      0.1771
     36  C         -9.5130  -20.3220   24.6640 C.2   165  TRP165      0.2619
     37  O         -9.6870  -21.4930   25.0280 O.2   165  TRP165     -0.2715
     38  CB        -7.2590  -19.8270   23.6020 C.3   165  TRP165      0.0590
     39  CG        -6.4240  -19.4980   22.3810 C.ar  165  TRP165      0.0006
     40  CD1       -5.2470  -18.8040   22.3740 C.ar  165  TRP165      0.0946
     41  CD2       -6.6890  -19.8280   21.0130 C.ar  165  TRP165      0.0152
     42  NE1       -4.7580  -18.6910   21.1030 N.ar  165  TRP165     -0.2442
     43  CE2       -5.6260  -19.3050   20.2440 C.ar  165  TRP165      0.0810
     44  CE3       -7.7270  -20.4900   20.3570 C.ar  165  TRP165      0.0012
     45  CZ2       -5.5720  -19.4270   18.8540 C.ar  165  TRP165      0.0191
     46  CZ3       -7.6710  -20.6130   18.9670 C.ar  165  TRP165      0.0001
     47  CH2       -6.6000  -20.0870   18.2360 C.ar  165  TRP165      0.0015
     48  N         -9.9750  -19.2720   25.3710 N.am  166  ASN166     -0.1972
     49  CA       -10.5710  -19.4490   26.7260 C.3   166  ASN166      0.1688
     50  C        -11.9410  -18.8140   26.9750 C.2   166  ASN166      0.2292
     51  O        -12.2350  -18.4010   28.0950 O.2   166  ASN166     -0.2864
     52  CB        -9.5900  -19.0370   27.8350 C.3   166  ASN166      0.1181
     53  CG        -8.1960  -19.5600   27.5960 C.2   166  ASN166      0.2629
     54  OD1       -7.8810  -20.7070   27.9240 O.2   166  ASN166     -0.2716
     55  ND2       -7.3490  -18.7250   26.9920 N.am  166  ASN166     -0.0877
     56  N         -7.5730  -11.6330   31.1540 N.3   206  LYS206     -0.1245
     57  CA        -6.9890  -12.3630   30.0250 C.3   206  LYS206      0.1561
     58  C         -7.1830  -11.6400   28.6930 C.2   206  LYS206      0.2260
     59  O         -7.0300  -12.2400   27.6290 O.2   206  LYS206     -0.2867
     60  CB        -7.4230  -13.8240   29.9840 C.3   206  LYS206      0.0271
     61  CG        -6.5460  -14.7080   30.8610 C.3   206  LYS206      0.0035
     62  CD        -5.3880  -15.3150   30.0910 C.3   206  LYS206      0.0206
     63  CE        -4.3200  -15.8830   31.0250 C.3   206  LYS206      0.1093
     64  NZ        -3.0930  -15.0240   31.0440 N.3   206  LYS206     -0.1314
     65  N         -5.3970   -9.6430   26.2370 N.3   208  HIS208     -0.1241
     66  CA        -4.0240   -9.3600   25.8890 C.3   208  HIS208      0.1621
     67  C         -3.9060   -8.1770   24.9570 C.2   208  HIS208      0.2264
     68  O         -2.9020   -8.0150   24.2620 O.2   208  HIS208     -0.2867
     69  CB        -3.3330  -10.6150   25.4060 C.3   208  HIS208      0.0745
     70  CG        -2.9290  -11.4870   26.5370 C.ar  208  HIS208      0.0817
     71  ND1       -1.6530  -11.4840   27.0540 N.ar  208  HIS208     -0.2268
     72  CD2       -3.6590  -12.3110   27.3280 C.ar  208  HIS208      0.1154
     73  CE1       -1.6020  -12.3020   28.0930 C.ar  208  HIS208      0.1986
     74  NE2       -2.8050  -12.8200   28.2790 N.ar  208  HIS208     -0.2212
     75  N         -5.2230   -6.8580   22.1100 N.3   210  ILE210     -0.1245
     76  CA        -4.8070   -7.3760   20.7870 C.3   210  ILE210      0.1561
     77  C         -5.3700   -6.5130   19.6640 C.2   210  ILE210      0.2260
     78  O         -4.6770   -6.2080   18.6970 O.2   210  ILE210     -0.2867
     79  CB        -5.2430   -8.8540   20.6200 C.3   210  ILE210      0.0252
     80  CG1       -4.4320   -9.7350   21.5600 C.3   210  ILE210      0.0019
     81  CG2       -5.1240   -9.3130   19.1830 C.3   210  ILE210      0.0019
     82  CD1       -4.8990  -11.1400   21.5940 C.3   210  ILE210      0.0001
     83  N         -8.6660   -6.8390   17.8620 N.3   212  ASN212     -0.1240
     84  CA        -9.5820   -7.1900   16.7840 C.3   212  ASN212      0.1653
     85  C        -10.9580   -6.6690   17.1300 C.2   212  ASN212      0.2266
     86  O        -11.6980   -6.2330   16.2450 O.2   212  ASN212     -0.2867
     87  CB        -9.5770   -8.6940   16.4650 C.3   212  ASN212      0.1155
     88  CG        -8.3120   -9.1170   15.7300 C.2   212  ASN212      0.2627
     89  OD1       -7.9230  -10.2830   15.7360 O.2   212  ASN212     -0.2716
     90  ND2       -7.6460   -8.1510   15.1120 N.am  212  ASN212     -0.0877
@<TRIPOS>BOND
     1    33    31   ar
     2    33    32   ar
     3    90    88   am
     4    31    29   ar
     5    32    30   ar
     6    88    89    2
     7    88    87    1
     8     5     2    1
     9     5     6    1
    10    86    85    2
    11     2     1    1
    12     2     3    1
    13    87    84    1
    14    29    28   ar
    15    29    27   ar
    16    84    85    1
    17    84    83    1
    18    30    27   ar
    19     4     3    2
    20    28    26   ar
    21    27    25   ar
    22    47    45   ar
    23    47    46   ar
    24    12    11    1
    25    12    13    1
    26    26    25   ar
    27    78    77    2
    28    25    24    1
    29    45    43   ar
    30    46    44   ar
    31    81    79    1
    32    11     8    1
    33    13     7    1
    34    77    76    1
    35     7     8    1
    36     8     9    1
    37    24    21    1
    38    43    41   ar
    39    43    42   ar
    40    44    41   ar
    41    79    76    1
    42    79    80    1
    43    76    75    1
    44    21    20    1
    45    21    22    1
    46    41    39   ar
    47    42    40   ar
    48     9    10    2
    49     9    14   am
    50    80    82    1
    51    22    23    2
    52    22    34   am
    53    14    15    1
    54    40    39   ar
    55    39    38    1
    56    34    35    1
    57    35    38    1
    58    35    36    1
    59    15    16    1
    60    15    18    1
    61    16    17    2
    62    68    67    2
    63    18    19    1
    64    36    37    2
    65    36    48   am
    66    67    66    1
    67    48    49    1
    68    69    66    1
    69    69    70    1
    70    66    65    1
    71    70    71   ar
    72    70    72   ar
    73    49    50    1
    74    49    52    1
    75    50    51    2
    76    55    53   am
    77    71    73   ar
    78    72    74   ar
    79    53    52    1
    80    53    54    2
    81    59    58    2
    82    73    74   ar
    83    58    57    1
    84    60    57    1
    85    60    61    1
    86    57    56    1
    87    62    61    1
    88    62    63    1
    89    63    64    1
