@<TRIPOS>MOLECULE
tmp/3vrbA00.pdb
 104 98 0 0 0
SMALL
GASTEIGER

@<TRIPOS>ATOM
      1  N         57.5750   10.7240   73.9390 N.3    51  ALA51      -0.1231
      2  CA        56.7460    9.5470   74.0740 C.3    51  ALA51       0.1694
      3  C         57.5520    8.2600   74.0860 C.2    51  ALA51       0.2592
      4  O         58.5330    8.1170   73.3560 O.2    51  ALA51      -0.2718
      5  CB        55.7470    9.5150   73.0170 C.3    51  ALA51       0.0304
      6  N         57.1380    7.3200   74.9290 N.am   52  GLN52      -0.1966
      7  CA        58.0380    6.2300   75.3260 C.3    52  GLN52       0.1733
      8  C         57.4820    4.8360   75.1500 C.2    52  GLN52       0.2617
      9  O         58.1430    3.9600   74.5880 O.2    52  GLN52      -0.2715
     10  CB        58.4920    6.4140   76.7760 C.3    52  GLN52       0.0408
     11  CG        59.4650    7.5680   76.9430 C.3    52  GLN52       0.0908
     12  CD        59.8960    7.8020   78.3820 C.2    52  GLN52       0.2608
     13  OE1       60.6200    6.9970   78.9680 O.2    52  GLN52      -0.2717
     14  NE2       59.4730    8.9250   78.9510 N.am   52  GLN52      -0.0878
     15  N         56.2650    4.6440   75.6440 N.am   53  GLY53      -0.1940
     16  CA        55.6850    3.3210   75.7740 C.3    53  GLY53       0.2014
     17  C         55.4540    2.6550   74.4470 C.2    53  GLY53       0.2639
     18  O         55.9990    1.5830   74.1720 O.2    53  GLY53      -0.2714
     19  N         54.6380    3.2860   73.6170 N.am   54  GLY54      -0.1954
     20  CA        54.3600    2.7070   72.3310 C.3    54  GLY54       0.1869
     21  C         53.1050    3.2280   71.7000 C.2    54  GLY54       0.2309
     22  O         52.6510    4.3380   72.0160 O.2    54  GLY54      -0.2863
     23  N         50.4380   -3.3220   78.2490 N.3   121  PHE121     -0.1241
     24  CA        50.3530   -1.9650   78.7350 C.3   121  PHE121      0.1605
     25  C         49.1360   -1.8970   79.6510 C.2   121  PHE121      0.2264
     26  O         48.3260   -2.8350   79.6960 O.2   121  PHE121     -0.2867
     27  CB        50.1600   -1.0340   77.5300 C.3   121  PHE121      0.0534
     28  CG        51.1040    0.1490   77.4770 C.ar  121  PHE121     -0.0203
     29  CD1       50.6000    1.4530   77.4870 C.ar  121  PHE121     -0.0042
     30  CD2       52.4760   -0.0360   77.3530 C.ar  121  PHE121     -0.0042
     31  CE1       51.4420    2.5600   77.4220 C.ar  121  PHE121     -0.0003
     32  CE2       53.3320    1.0640   77.2820 C.ar  121  PHE121     -0.0003
     33  CZ        52.8080    2.3730   77.3190 C.ar  121  PHE121     -0.0000
     34  N         49.7650   10.6480   85.5980 N.3   244  HIS244     -0.1241
     35  CA        50.4740    9.4340   85.2360 C.3   244  HIS244      0.1621
     36  C         51.0940    8.8260   86.4970 C.2   244  HIS244      0.2264
     37  O         51.7710    9.5360   87.2620 O.2   244  HIS244     -0.2867
     38  CB        51.5060    9.7150   84.1580 C.3   244  HIS244      0.0745
     39  CG        52.1250    8.4890   83.5800 C.ar  244  HIS244      0.0817
     40  ND1       52.9870    7.6800   84.2910 N.ar  244  HIS244     -0.2268
     41  CD2       52.0340    7.9410   82.3470 C.ar  244  HIS244      0.1154
     42  CE1       53.3820    6.6750   83.5300 C.ar  244  HIS244      0.1986
     43  NE2       52.8250    6.8140   82.3410 N.ar  244  HIS244     -0.2212
     44  N         58.9640   11.2540   83.1860 N.3   254  LEU254     -0.1245
     45  CA        58.1540   10.0770   83.1470 C.3   254  LEU254      0.1561
     46  C         58.9850    8.7860   83.0940 C.2   254  LEU254      0.2260
     47  O         60.0570    8.7390   82.4860 O.2   254  LEU254     -0.2867
     48  CB        57.2470   10.1790   81.9330 C.3   254  LEU254      0.0270
     49  CG        56.2810    9.0410   81.7770 C.3   254  LEU254      0.0019
     50  CD1       55.2620    9.2270   82.8400 C.3   254  LEU254      0.0001
     51  CD2       55.6790    9.1410   80.4240 C.3   254  LEU254      0.0001
     52  N         58.0760    5.2090   81.7410 N.3   256  THR256     -0.1203
     53  CA        57.0210    4.5420   80.9990 C.3   256  THR256      0.1994
     54  C         56.3360    3.3560   81.6920 C.2   256  THR256      0.2617
     55  O         56.9790    2.4970   82.2920 O.2   256  THR256     -0.2717
     56  CB        57.4960    4.1430   79.6000 C.3   256  THR256      0.1784
     57  OG1       56.6280    3.1400   79.0760 O.3   256  THR256     -0.2211
     58  CG2       58.8870    3.5910   79.6480 C.3   256  THR256      0.0376
     59  N         55.0070    3.3560   81.5920 N.am  257  GLU257     -0.1979
     60  CA        54.1190    2.2620   81.9830 C.3   257  GLU257      0.1602
     61  C         54.6360    0.9510   81.4380 C.2   257  GLU257      0.2287
     62  O         54.4130   -0.1050   82.0160 O.2   257  GLU257     -0.2864
     63  CB        52.7320    2.5210   81.3840 C.3   257  GLU257      0.0415
     64  CG        51.5470    1.7760   81.9830 C.3   257  GLU257      0.1163
     65  CD        50.1990    2.3880   81.5250 C.2   257  GLU257      0.3649
     66  OE1       49.7420    2.0840   80.3970 O.co2 257  GLU257     -0.2457
     67  OE2       49.5870    3.1800   82.2930 O.co2 257  GLU257     -0.2457
     68  N         45.3280    3.9180   84.3890 N.3   288  ARG288     -0.1245
     69  CA        46.1370    4.8620   85.1460 C.3   288  ARG288      0.1563
     70  C         45.3530    5.6830   86.1700 C.2   288  ARG288      0.2260
     71  O         45.9210    6.0790   87.1770 O.2   288  ARG288     -0.2867
     72  CB        46.8620    5.8420   84.2250 C.3   288  ARG288      0.0307
     73  CG        47.4640    5.3020   82.9450 C.3   288  ARG288      0.0489
     74  CD        48.2500    6.4550   82.3380 C.3   288  ARG288      0.2205
     75  NE        48.4610    6.3830   80.8970 N.pl3 288  ARG288     -0.0865
     76  CZ        49.5890    5.9650   80.3390 C.cat 288  ARG288      0.5346
     77  NH1       49.7080    5.9400   79.0230 N.pl3 288  ARG288      0.1354
     78  NH2       50.5980    5.5610   81.0940 N.pl3 288  ARG288      0.1354
     79  N         49.7420   14.5550   83.4440 N.3   355  HIS355     -0.1241
     80  CA        50.4000   13.9400   82.2910 C.3   355  HIS355      0.1621
     81  C         49.7950   14.2990   80.9450 C.2   355  HIS355      0.2264
     82  O         50.5010   14.7820   80.0760 O.2   355  HIS355     -0.2867
     83  CB        50.4720   12.4350   82.5080 C.3   355  HIS355      0.0745
     84  CG        50.9470   11.6550   81.3270 C.ar  355  HIS355      0.0817
     85  ND1       52.1950   11.8260   80.7720 N.ar  355  HIS355     -0.2268
     86  CD2       50.3540   10.6570   80.6270 C.ar  355  HIS355      0.1154
     87  CE1       52.3410   10.9790   79.7680 C.ar  355  HIS355      0.1986
     88  NE2       51.2370   10.2600   79.6570 N.ar  355  HIS355     -0.2212
     89  N         42.0530    8.4320   79.5690 N.3   400  ARG400     -0.1245
     90  CA        42.6930    7.9840   78.3600 C.3   400  ARG400      0.1563
     91  C         43.3510    6.6370   78.5620 C.2   400  ARG400      0.2260
     92  O         44.0530    6.4300   79.5320 O.2   400  ARG400     -0.2867
     93  CB        43.7320    9.0080   77.9700 C.3   400  ARG400      0.0307
     94  CG        44.6170    8.5760   76.8610 C.3   400  ARG400      0.0489
     95  CD        45.9350    9.2170   77.0520 C.3   400  ARG400      0.2205
     96  NE        46.9000    8.6800   76.1250 N.pl3 400  ARG400     -0.0865
     97  CZ        48.2020    8.6670   76.3490 C.cat 400  ARG400      0.5346
     98  NH1       48.6990    9.1540   77.4800 N.pl3 400  ARG400      0.1354
     99  NH2       49.0070    8.1620   75.4350 N.pl3 400  ARG400      0.1354
    100  N         48.8230    4.7250   75.4420 N.3   403  ALA403     -0.1245
    101  CA        49.4300    4.4390   74.1320 C.3   403  ALA403      0.1562
    102  C         48.3880    4.4220   73.0200 C.2   403  ALA403      0.2260
    103  O         48.5420    3.7360   72.0020 O.2   403  ALA403     -0.2867
    104  CB        50.2140    3.1500   74.1560 C.3   403  ALA403      0.0290
@<TRIPOS>BOND
     1    21    22    2
     2    21    20    1
     3   103   102    2
     4    20    19    1
     5     5     2    1
     6   102   101    1
     7     4     3    2
     8    19    17   am
     9     1     2    1
    10     2     3    1
    11     3     6   am
    12   101   104    1
    13   101   100    1
    14    18    17    2
    15    17    16    1
    16     9     8    2
    17     6     7    1
    18     8     7    1
    19     8    15   am
    20     7    10    1
    21    99    97    1
    22    15    16    1
    23    96    97    2
    24    96    95    1
    25    97    98    1
    26    10    11    1
    27    94    95    1
    28    94    93    1
    29    11    12    1
    30    32    33   ar
    31    32    30   ar
    32    33    31   ar
    33    30    28   ar
    34    31    29   ar
    35    28    29   ar
    36    28    27    1
    37    27    24    1
    38    93    90    1
    39    23    24    1
    40    90    91    1
    41    90    89    1
    42    12    14   am
    43    12    13    2
    44    91    92    2
    45    24    25    1
    46    77    76    1
    47    57    56    1
    48    56    58    1
    49    56    53    1
    50    25    26    2
    51    88    87   ar
    52    88    86   ar
    53    87    85   ar
    54    82    81    2
    55    76    75    2
    56    76    78    1
    57    66    65   ar
    58    51    49    1
    59    86    84   ar
    60    85    84   ar
    61    75    74    1
    62    81    80    1
    63    53    54    1
    64    53    52    1
    65    84    83    1
    66    63    64    1
    67    63    60    1
    68    61    60    1
    69    61    62    2
    70    65    64    1
    71    65    67   ar
    72    59    54   am
    73    59    60    1
    74    54    55    2
    75    49    48    1
    76    49    50    1
    77    48    45    1
    78    80    83    1
    79    80    79    1
    80    74    73    1
    81    43    41   ar
    82    43    42   ar
    83    41    39   ar
    84    47    46    2
    85    73    72    1
    86    46    45    1
    87    45    44    1
    88    42    40   ar
    89    39    38    1
    90    39    40   ar
    91    38    35    1
    92    72    69    1
    93    68    69    1
    94    69    70    1
    95    35    34    1
    96    35    36    1
    97    70    71    2
    98    36    37    2
