@<TRIPOS>MOLECULE
tmp/3vrcA00.pdb
 201 189 0 0 0
SMALL
GASTEIGER

@<TRIPOS>ATOM
      1  N         26.8220  -12.3380   18.8790 N.3     8  ILE8       -0.1245
      2  CA        28.0960  -11.6350   18.9060 C.3     8  ILE8        0.1561
      3  C         28.1730  -10.5870   17.7850 C.2     8  ILE8        0.2260
      4  O         28.5300   -9.4290   17.9700 O.2     8  ILE8       -0.2867
      5  CB        29.2600  -12.6740   18.8010 C.3     8  ILE8        0.0252
      6  CG1       29.3390  -13.5680   20.0490 C.3     8  ILE8        0.0019
      7  CG2       30.5830  -11.9410   18.5360 C.3     8  ILE8        0.0019
      8  CD1       30.1810  -14.8290   19.8500 C.3     8  ILE8        0.0001
      9  N         25.7560   -7.6040   18.5320 N.3    11  ARG11      -0.1231
     10  CA        26.2050   -6.6330   19.5410 C.3    11  ARG11       0.1694
     11  C         27.3780   -5.7960   19.0180 C.2    11  ARG11       0.2591
     12  O         27.4130   -4.5770   19.1990 O.2    11  ARG11      -0.2718
     13  CB        26.4780   -7.2950   20.8760 C.3    11  ARG11       0.0321
     14  CG        27.6940   -8.1940   20.9970 C.3    11  ARG11       0.0489
     15  CD        27.5360   -9.1700   22.1130 C.3    11  ARG11       0.2205
     16  NE        28.7660   -9.9590   22.3510 N.pl3  11  ARG11      -0.0865
     17  CZ        28.8070  -11.0860   23.0340 C.cat  11  ARG11       0.5346
     18  NH1       27.7180  -11.6590   23.4920 N.pl3  11  ARG11       0.1354
     19  NH2       29.9730  -11.6750   23.3310 N.pl3  11  ARG11       0.1354
     20  N         28.3250   -6.4670   18.3190 N.am   12  GLN12      -0.1979
     21  CA        29.4200   -5.7460   17.6900 C.3    12  GLN12       0.1601
     22  C         28.9140   -4.6640   16.7490 C.2    12  GLN12       0.2287
     23  O         29.4220   -3.5420   16.7120 O.2    12  GLN12      -0.2864
     24  CB        30.3410   -6.7120   16.9610 C.3    12  GLN12       0.0394
     25  CG        31.1340   -7.5920   17.9340 C.3    12  GLN12       0.0908
     26  CD        31.8980   -8.7030   17.2410 C.2    12  GLN12       0.2608
     27  OE1       31.6220   -9.0400   16.0990 O.2    12  GLN12      -0.2717
     28  NE2       32.8060   -9.3150   17.9810 N.am   12  GLN12      -0.0878
     29  N         27.5990   -1.6170   18.7050 N.3    15  TYR15      -0.1227
     30  CA        28.6560   -0.7630   19.2650 C.3    15  TYR15       0.1736
     31  C         29.3860    0.0160   18.1480 C.2    15  TYR15       0.2595
     32  O         29.6520    1.1830   18.2670 O.2    15  TYR15      -0.2718
     33  CB        29.6810   -1.6270   20.0170 C.3    15  TYR15       0.0548
     34  CG        29.1110   -2.3190   21.2570 C.ar   15  TYR15      -0.0200
     35  CD1       28.4370   -1.5850   22.2200 C.ar   15  TYR15      -0.0009
     36  CD2       29.2540   -3.6540   21.4470 C.ar   15  TYR15      -0.0009
     37  CE1       27.9100   -2.2170   23.3390 C.ar   15  TYR15       0.0417
     38  CE2       28.7530   -4.2970   22.5620 C.ar   15  TYR15       0.0417
     39  CZ        28.0580   -3.5480   23.4930 C.ar   15  TYR15       0.1957
     40  OH        27.4930   -4.2400   24.5550 O.3    15  TYR15      -0.2866
     41  N         29.6790   -0.6960   17.0440 N.am   16  ALA16      -0.1980
     42  CA        30.3800   -0.0510   15.9190 C.3    16  ALA16       0.1597
     43  C         29.5570    1.1130   15.3590 C.2    16  ALA16       0.2287
     44  O         30.0830    2.2030   15.0440 O.2    16  ALA16      -0.2864
     45  CB        30.6730   -1.0750   14.8290 C.3    16  ALA16       0.0319
     46  N         27.1250    2.8260   16.9050 N.3    18  MET18      -0.1230
     47  CA        27.1740    3.9230   17.9290 C.3    18  MET18       0.1702
     48  C         28.4160    4.6930   17.8140 C.2    18  MET18       0.2592
     49  O         28.3970    5.9290   17.8700 O.2    18  MET18      -0.2718
     50  CB        27.0440    3.4890   19.4190 C.3    18  MET18       0.0401
     51  CG        25.6150    3.0460   19.7370 C.3    18  MET18       0.0596
     52  SD        25.3010    2.8840   21.4960 S.3    18  MET18      -0.1393
     53  CE        26.3710    1.4910   21.8680 C.3    18  MET18       0.0692
     54  N         29.5550    3.9880   17.6910 N.am   19  ALA19      -0.1980
     55  CA        30.8320    4.7010   17.6640 C.3    19  ALA19       0.1597
     56  C         30.9450    5.6700   16.4890 C.2    19  ALA19       0.2287
     57  O         31.4570    6.7580   16.6240 O.2    19  ALA19      -0.2864
     58  CB        31.9830    3.7100   17.6420 C.3    19  ALA19       0.0319
     59  N         28.9430    8.6570   17.4710 N.3    22  MET22      -0.1245
     60  CA        29.6850    9.4530   18.4720 C.3    22  MET22       0.1570
     61  C         30.7260   10.3500   17.8030 C.2    22  MET22       0.2261
     62  O         30.9180   11.5020   18.1360 O.2    22  MET22      -0.2867
     63  CB        30.3510    8.5600   19.5100 C.3    22  MET22       0.0387
     64  CG        29.3550    7.8970   20.4540 C.3    22  MET22       0.0595
     65  SD        28.5470    8.9910   21.6070 S.3    22  MET22      -0.1393
     66  CE        29.8800    9.2410   22.7960 C.3    22  MET22       0.0692
     67  N         22.6290    7.0450   18.9070 N.3    45  VAL45      -0.1245
     68  CA        23.2670    6.5820   20.1440 C.3    45  VAL45       0.1561
     69  C         22.1710    6.2270   21.1710 C.2    45  VAL45       0.2260
     70  O         22.2340    5.1650   21.8000 O.2    45  VAL45      -0.2867
     71  CB        24.2650    7.5970   20.6440 C.3    45  VAL45       0.0252
     72  CG1       24.8880    7.1570   21.9700 C.3    45  VAL45       0.0019
     73  CG2       25.3520    7.8500   19.5950 C.3    45  VAL45       0.0019
     74  N         23.7690  -11.1730   25.0230 N.3    57  TYR57      -0.1241
     75  CA        24.7860  -11.7730   25.8720 C.3    57  TYR57       0.1605
     76  C         24.3290  -13.0920   26.4030 C.2    57  TYR57       0.2264
     77  O         24.4760  -13.4510   27.6060 O.2    57  TYR57      -0.2867
     78  CB        25.2020  -10.8200   26.9910 C.3    57  TYR57       0.0534
     79  CG        26.0540   -9.6880   26.4630 C.ar   57  TYR57      -0.0201
     80  CD1       27.4430   -9.8470   26.3270 C.ar   57  TYR57      -0.0009
     81  CD2       25.5060   -8.5090   26.0240 C.ar   57  TYR57      -0.0009
     82  CE1       28.2560   -8.8520   25.7990 C.ar   57  TYR57       0.0417
     83  CE2       26.3000   -7.5370   25.4650 C.ar   57  TYR57       0.0417
     84  CZ        27.6960   -7.7140   25.3730 C.ar   57  TYR57       0.1957
     85  OH        28.5150   -6.6900   24.8690 O.3    57  TYR57      -0.2866
     86  N         34.8020  -13.0290   19.5200 N.3    70  THR70      -0.1203
     87  CA        34.3450  -12.0040   20.4490 C.3    70  THR70       0.1994
     88  C         35.5220  -11.3900   21.1990 C.2    70  THR70       0.2618
     89  O         36.4900  -12.1100   21.4980 O.2    70  THR70      -0.2717
     90  CB        33.3210  -12.5910   21.4600 C.3    70  THR70       0.1784
     91  OG1       32.8640  -11.5540   22.3130 O.3    70  THR70      -0.2211
     92  CG2       33.7990  -13.7210   22.3200 C.3    70  THR70       0.0376
     93  N         35.3890  -10.1140   21.5010 N.am   71  ARG71      -0.1965
     94  CA        36.3510   -9.4230   22.3280 C.3    71  ARG71       0.1729
     95  C         35.7820   -9.1170   23.6920 C.2    71  ARG71       0.2616
     96  O         36.2810   -8.2550   24.4180 O.2    71  ARG71      -0.2715
     97  CB        36.9490   -8.1650   21.6020 C.3    71  ARG71       0.0348
     98  CG        37.6210   -8.5920   20.2830 C.3    71  ARG71       0.0492
     99  CD        38.4580   -7.4130   19.7870 C.3    71  ARG71       0.2205
    100  NE        39.0860   -7.6340   18.4640 N.pl3  71  ARG71      -0.0865
    101  CZ        40.1630   -8.3800   18.2480 C.cat  71  ARG71       0.5346
    102  NH1       40.7590   -9.0150   19.2500 N.pl3  71  ARG71       0.1354
    103  NH2       40.6560   -8.4920   17.0070 N.pl3  71  ARG71       0.1354
    104  N         34.6710   -9.7910   24.0730 N.am   72  ALA72      -0.1977
    105  CA        34.2010   -9.6900   25.4210 C.3    72  ALA72       0.1597
    106  C         35.1250  -10.4600   26.3930 C.2    72  ALA72       0.2287
    107  O         35.5940  -11.5600   26.0800 O.2    72  ALA72      -0.2864
    108  CB        32.7730  -10.3220   25.5510 C.3    72  ALA72       0.0319
    109  N         32.9290  -10.6980   32.0130 N.3    76  LEU76      -0.1245
    110  CA        31.6540  -10.0250   31.7560 C.3    76  LEU76       0.1561
    111  C         30.5280  -11.0050   32.2020 C.2    76  LEU76       0.2260
    112  O         29.5500  -10.6500   32.8560 O.2    76  LEU76      -0.2867
    113  CB        31.5870   -9.6620   30.3050 C.3    76  LEU76       0.0270
    114  CG        30.3710   -8.9410   29.7430 C.3    76  LEU76       0.0019
    115  CD1       30.7230   -8.3280   28.3670 C.3    76  LEU76       0.0001
    116  CD2       29.1710   -9.8730   29.6070 C.3    76  LEU76       0.0001
    117  N         27.0360   -5.6510   34.4330 N.3    83  VAL83      -0.1245
    118  CA        27.0650   -5.2810   33.0010 C.3    83  VAL83       0.1561
    119  C         25.8070   -4.5430   32.6150 C.2    83  VAL83       0.2260
    120  O         25.8360   -3.5160   31.9540 O.2    83  VAL83      -0.2867
    121  CB        27.2800   -6.5340   32.1700 C.3    83  VAL83       0.0252
    122  CG1       27.1790   -6.2180   30.6870 C.3    83  VAL83       0.0019
    123  CG2       28.5990   -7.2400   32.4710 C.3    83  VAL83       0.0019
    124  N         25.8140   -1.0010   33.9880 N.3    86  LEU86      -0.1231
    125  CA        26.6530   -0.1310   33.1420 C.3    86  LEU86       0.1693
    126  C         25.9830    0.1760   31.8310 C.2    86  LEU86       0.2591
    127  O         26.0910    1.3110   31.3130 O.2    86  LEU86      -0.2718
    128  CB        28.0250   -0.7660   32.9400 C.3    86  LEU86       0.0284
    129  CG        28.8170   -0.9580   34.2310 C.3    86  LEU86       0.0019
    130  CD1       30.2070   -1.4600   33.8940 C.3    86  LEU86       0.0001
    131  CD2       28.9100    0.3310   35.0790 C.3    86  LEU86       0.0001
    132  N         25.2500   -0.8040   31.2630 N.am   87  ALA87      -0.1980
    133  CA        24.4890   -0.5280   30.0320 C.3    87  ALA87       0.1597
    134  C         23.3850    0.4870   30.3040 C.2    87  ALA87       0.2287
    135  O         23.1120    1.3590   29.4760 O.2    87  ALA87      -0.2864
    136  CB        23.9180   -1.8300   29.5020 C.3    87  ALA87       0.0319
    137  N         24.7470    3.9310   30.3160 N.3    90  LEU90      -0.1245
    138  CA        24.8310    4.4150   28.9540 C.3    90  LEU90       0.1561
    139  C         23.4660    4.8600   28.4430 C.2    90  LEU90       0.2260
    140  O         23.3340    5.9380   27.8600 O.2    90  LEU90      -0.2867
    141  CB        25.4280    3.3800   28.0250 C.3    90  LEU90       0.0270
    142  CG        25.4800    3.8590   26.5620 C.3    90  LEU90       0.0019
    143  CD1       26.4840    4.9630   26.3570 C.3    90  LEU90       0.0001
    144  CD2       25.7680    2.6970   25.6160 C.3    90  LEU90       0.0001
    145  N         28.1480   10.3380   28.0910 N.3   116  VAL116     -0.1245
    146  CA        27.9940    9.1340   27.2970 C.3   116  VAL116      0.1561
    147  C         29.3400    8.4670   27.1200 C.2   116  VAL116      0.2260
    148  O         29.4750    7.2850   27.3210 O.2   116  VAL116     -0.2867
    149  CB        27.3000    9.4710   25.9540 C.3   116  VAL116      0.0252
    150  CG1       27.3530    8.2990   25.0080 C.3   116  VAL116      0.0019
    151  CG2       25.8610    9.9310   26.1760 C.3   116  VAL116      0.0019
    152  N         30.4520    6.5610   30.0120 N.3   119  ALA119     -0.1231
    153  CA        29.7270    5.2930   30.1910 C.3   119  ALA119      0.1694
    154  C         30.2760    4.2210   29.2950 C.2   119  ALA119      0.2592
    155  O         30.3530    3.0860   29.6930 O.2   119  ALA119     -0.2718
    156  CB        28.2500    5.5020   29.9860 C.3   119  ALA119      0.0304
    157  N         30.6470    4.5620   28.0230 N.am  120  CYS120     -0.1970
    158  CA        31.2510    3.5580   27.1670 C.3   120  CYS120      0.1712
    159  C         32.5300    2.9970   27.8530 C.2   120  CYS120      0.2296
    160  O         32.7600    1.7990   27.9310 O.2   120  CYS120     -0.2864
    161  CB        31.6670    4.1300   25.7900 C.3   120  CYS120      0.0983
    162  SG        30.4550    5.2130   24.9350 S.3   120  CYS120     -0.0798
    163  N         32.2950    0.5880   31.0070 N.3   123  CYS123     -0.1221
    164  CA        32.0580   -0.7970   30.7100 C.3   123  CYS123      0.1808
    165  C         33.2600   -1.4610   30.0750 C.2   123  CYS123      0.2601
    166  O         33.6250   -2.5510   30.4540 O.2   123  CYS123     -0.2717
    167  CB        30.7840   -0.9160   29.8380 C.3   123  CYS123      0.0970
    168  SG        30.4600   -2.6640   29.5660 S.3   123  CYS123     -0.0800
    169  N         33.9060   -0.7690   29.1050 N.am  124  HIS124     -0.1975
    170  CA        35.0640   -1.3380   28.4830 C.3   124  HIS124      0.1656
    171  C         36.1500   -1.7130   29.4920 C.2   124  HIS124      0.2291
    172  O         36.7450   -2.7880   29.4140 O.2   124  HIS124     -0.2864
    173  CB        35.6650   -0.4090   27.4480 C.3   124  HIS124      0.0771
    174  CG        34.7570   -0.2230   26.2610 C.ar  124  HIS124      0.0820
    175  ND1       34.9190    0.7790   25.3740 N.ar  124  HIS124     -0.2267
    176  CD2       33.6490   -0.9230   25.8430 C.ar  124  HIS124      0.1154
    177  CE1       33.9520    0.7070   24.4260 C.ar  124  HIS124      0.1986
    178  NE2       33.1810   -0.3460   24.6980 N.ar  124  HIS124     -0.2212
    179  N         35.0640   -4.9160   31.1990 N.3   127  TYR127     -0.1227
    180  CA        34.4510   -6.0690   30.5510 C.3   127  TYR127      0.1736
    181  C         34.8810   -6.2630   29.0770 C.2   127  TYR127      0.2598
    182  O         34.4290   -7.2830   28.5200 O.2   127  TYR127     -0.2717
    183  CB        32.9330   -6.0190   30.6580 C.3   127  TYR127      0.0548
    184  CG        32.4540   -6.0680   32.1030 C.ar  127  TYR127     -0.0200
    185  CD1       32.8710   -7.0590   32.9710 C.ar  127  TYR127     -0.0009
    186  CD2       31.5870   -5.0480   32.5800 C.ar  127  TYR127     -0.0009
    187  CE1       32.4460   -7.0580   34.2700 C.ar  127  TYR127      0.0417
    188  CE2       31.1410   -5.0370   33.9050 C.ar  127  TYR127      0.0417
    189  CZ        31.5980   -6.0350   34.7520 C.ar  127  TYR127      0.1957
    190  OH        31.1960   -6.0950   36.0800 O.3   127  TYR127     -0.2866
    191  N         35.6690   -5.3770   28.4800 N.am  128  ARG128     -0.1934
    192  CA        36.1060   -5.5840   27.1010 C.3   128  ARG128      0.1813
    193  C         37.5860   -6.0000   27.0650 C.2   128  ARG128      0.2332
    194  O         38.4070   -5.3870   27.7800 O.2   128  ARG128     -0.2860
    195  CB        35.8780   -4.3800   26.2900 C.2   128  ARG128      0.0019
    196  CG        36.1110   -4.5460   24.7830 C.2   128  ARG128      0.0178
    197  CD        35.7580   -3.3540   23.9350 C.3   128  ARG128      0.2464
    198  NE        36.7330   -2.2990   24.0910 N.pl3 128  ARG128     -0.0815
    199  CZ        36.7880   -1.2490   23.3020 C.cat 128  ARG128      0.5349
    200  NH1       35.8630   -1.0580   22.3510 N.pl3 128  ARG128      0.1354
    201  NH2       37.7920   -0.3900   23.3990 N.pl3 128  ARG128      0.1354
@<TRIPOS>BOND
     1    45    42    1
     2    44    43    2
     3    43    42    1
     4    42    41    1
     5    27    26    2
     6    56    57    2
     7    56    55    1
     8    23    22    2
     9    22    21    1
    10    46    47    1
    11    24    21    1
    12    24    25    1
    13   103   101    1
    14    41    31   am
    15    26    25    1
    16    26    28   am
    17    59    60    1
    18    58    55    1
    19    55    54    1
    20    21    20    1
    21    54    48   am
    22     3     4    2
    23     3     2    1
    24    61    62    2
    25    61    60    1
    26    48    49    2
    27    48    47    1
    28    47    50    1
    29    31    32    2
    30    31    30    1
    31   101   100    2
    32   101   102    1
    33    20    11   am
    34   100    99    1
    35    60    63    1
    36     9    10    1
    37     7     5    1
    38    29    30    1
    39     5     2    1
    40     5     6    1
    41     1     2    1
    42    67    68    1
    43    11    12    2
    44    11    10    1
    45    30    33    1
    46    50    51    1
    47    63    64    1
    48    86    87    1
    49    10    13    1
    50    73    71    1
    51    51    52    1
    52    99    98    1
    53     8     6    1
    54    33    34    1
    55    68    71    1
    56    68    69    1
    57    98    97    1
    58    87    88    1
    59    87    90    1
    60    64    65    1
    61    71    72    1
    62    13    14    1
    63    14    15    1
    64    69    70    2
    65    88    89    2
    66    88    93   am
    67    34    36   ar
    68    34    35   ar
    69    36    38   ar
    70    90    91    1
    71    90    92    1
    72    52    53    1
    73    93    94    1
    74    97    94    1
    75    65    66    1
    76    15    16    1
    77    35    37   ar
    78    94    95    1
    79   200   199    1
    80    16    17    2
    81    38    39   ar
    82    17    19    1
    83    17    18    1
    84   199   201    1
    85   199   198    2
    86    37    39   ar
    87    39    40    1
    88    95   104   am
    89    95    96    2
    90   197   198    1
    91   197   196    1
    92   104   105    1
    93   177   178   ar
    94   177   175   ar
    95   178   176   ar
    96   196   195    2
    97    85    84    1
    98   162   161    1
    99   150   149    1
   100    74    75    1
   101    84    83   ar
   102    84    82   ar
   103   175   174   ar
   104   105   108    1
   105   105   106    1
   106    83    81   ar
   107   144   142    1
   108   161   158    1
   109    82    80   ar
   110   176   174   ar
   111    75    76    1
   112    75    78    1
   113   149   151    1
   114   149   146    1
   115    81    79   ar
   116   107   106    2
   117   174   173    1
   118   195   192    1
   119    80    79   ar
   120   143   142    1
   121    76    77    2
   122    79    78    1
   123   142   141    1
   124   193   192    1
   125   193   194    2
   126   192   191    1
   127   147   146    1
   128   147   148    2
   129   158   159    1
   130   158   157    1
   131   146   145    1
   132   173   170    1
   133   159   160    2
   134   140   139    2
   135   157   154   am
   136   141   138    1
   137   115   114    1
   138   139   138    1
   139   191   181   am
   140   170   169    1
   141   170   171    1
   142   182   181    2
   143   138   137    1
   144   181   180    1
   145   169   165   am
   146   154   155    2
   147   154   153    1
   148   172   171    2
   149   135   134    2
   150   136   133    1
   151   168   167    1
   152   116   114    1
   153   114   113    1
   154   167   164    1
   155   156   153    1
   156   152   153    1
   157   133   134    1
   158   133   132    1
   159   165   166    2
   160   165   164    1
   161   113   110    1
   162   180   183    1
   163   180   179    1
   164   183   184    1
   165   122   121    1
   166   164   163    1
   167   132   126   am
   168   127   126    2
   169   110   109    1
   170   110   111    1
   171   126   125    1
   172   120   119    2
   173   184   186   ar
   174   184   185   ar
   175   121   123    1
   176   121   118    1
   177   111   112    2
   178   186   188   ar
   179   119   118    1
   180   128   125    1
   181   128   129    1
   182   185   187   ar
   183   118   117    1
   184   125   124    1
   185   130   129    1
   186   188   189   ar
   187   129   131    1
   188   187   189   ar
   189   189   190    1
