@<TRIPOS>MOLECULE
tmp/3vrdA01.pdb
 246 239 0 0 0
SMALL
GASTEIGER

@<TRIPOS>ATOM
      1  N         35.5950   87.7380   38.9440 N.3    32  MET32      -0.1245
      2  CA        36.2590   88.9290   38.5280 C.3    32  MET32       0.1570
      3  C         35.4900   90.1380   39.0940 C.2    32  MET32       0.2261
      4  O         34.2870   90.1040   39.2950 O.2    32  MET32      -0.2867
      5  CB        36.2320   89.1000   36.9980 C.3    32  MET32       0.0387
      6  CG        37.3800   88.2740   36.3930 C.3    32  MET32       0.0595
      7  SD        37.4850   88.3790   34.5700 S.3    32  MET32      -0.1393
      8  CE        38.3350   89.9890   34.3950 C.3    32  MET32       0.0692
      9  N         57.7590   94.9680   42.9760 N.3   100  TYR100     -0.1227
     10  CA        57.3780   95.6390   41.6970 C.3   100  TYR100      0.1736
     11  C         55.8550   95.7000   41.5090 C.2   100  TYR100      0.2595
     12  O         55.2900   96.5080   40.8000 O.2   100  TYR100     -0.2718
     13  CB        58.0420   94.9450   40.5450 C.3   100  TYR100      0.0548
     14  CG        59.5550   95.0760   40.5140 C.ar  100  TYR100     -0.0200
     15  CD1       60.1230   96.3100   40.0870 C.ar  100  TYR100     -0.0009
     16  CD2       60.3610   94.0310   40.8970 C.ar  100  TYR100     -0.0009
     17  CE1       61.4990   96.4290   40.0490 C.ar  100  TYR100      0.0417
     18  CE2       61.7600   94.1460   40.8960 C.ar  100  TYR100      0.0417
     19  CZ        62.2910   95.3760   40.4530 C.ar  100  TYR100      0.1957
     20  OH        63.6950   95.4100   40.4420 O.3   100  TYR100     -0.2866
     21  N         55.1370   94.7690   42.1420 N.am  101  CYS101     -0.1970
     22  CA        53.7020   94.6190   41.7050 C.3   101  CYS101      0.1712
     23  C         52.5960   94.6960   42.7630 C.2   101  CYS101      0.2296
     24  O         51.4250   95.0800   42.4980 O.2   101  CYS101     -0.2864
     25  CB        53.5540   93.2720   40.9430 C.3   101  CYS101      0.0983
     26  SG        54.9030   92.8570   39.8400 S.3   101  CYS101     -0.0798
     27  N         52.0300   96.7250   45.0640 N.3   103  LYS103     -0.1231
     28  CA        51.3950   97.9760   45.2840 C.3   103  LYS103      0.1693
     29  C         49.9740   98.0750   44.6990 C.2   103  LYS103      0.2592
     30  O         49.0910   98.6930   45.2310 O.2   103  LYS103     -0.2718
     31  CB        52.3220   99.1130   44.7360 C.3   103  LYS103      0.0285
     32  CG        51.6640  100.4470   44.4830 C.3   103  LYS103      0.0035
     33  CD        51.4950  101.2440   45.7460 C.3   103  LYS103      0.0206
     34  CE        51.4000  102.7620   45.4880 C.3   103  LYS103      0.1093
     35  NZ        50.7830  103.2480   46.7320 N.3   103  LYS103     -0.1314
     36  N         49.7970   97.4490   43.5680 N.am  104  CYS104     -0.1956
     37  CA        48.4940   97.4660   42.8630 C.3   104  CYS104      0.1843
     38  C         47.8020   96.0750   42.9150 C.2   104  CYS104      0.2625
     39  O         46.5890   96.1140   43.1080 O.2   104  CYS104     -0.2714
     40  CB        48.6650   97.8310   41.3400 C.3   104  CYS104      0.0997
     41  SG        49.3060   99.5610   41.3330 S.3   104  CYS104     -0.0797
     42  N         48.5620   94.9990   42.7430 N.am  105  HIS105     -0.1973
     43  CA        48.0660   93.5750   42.7420 C.3   105  HIS105      0.1656
     44  C         48.2500   93.1440   44.1890 C.2   105  HIS105      0.2291
     45  O         49.1640   92.3720   44.4880 O.2   105  HIS105     -0.2864
     46  CB        48.8340   92.7140   41.7050 C.3   105  HIS105      0.0771
     47  CG        48.6120   93.1790   40.3030 C.ar  105  HIS105      0.0820
     48  ND1       47.5280   92.7490   39.5410 N.ar  105  HIS105     -0.2267
     49  CD2       49.3750   93.9820   39.4590 C.ar  105  HIS105      0.1154
     50  CE1       47.5610   93.3620   38.3120 C.ar  105  HIS105      0.1986
     51  NE2       48.6800   94.1280   38.2700 N.ar  105  HIS105     -0.2212
     52  N         42.8570   92.6370   39.8870 N.3   119  HIS119     -0.1226
     53  CA        43.2320   91.9470   38.6110 C.3   119  HIS119      0.1752
     54  C         43.9570   90.7120   39.0520 C.2   119  HIS119      0.2596
     55  O         45.0700   90.7890   39.6140 O.2   119  HIS119     -0.2718
     56  CB        44.1470   92.8450   37.7730 C.3   119  HIS119      0.0759
     57  CG        43.4570   94.0670   37.3330 C.ar  119  HIS119      0.0818
     58  ND1       43.4340   95.1690   38.0980 N.ar  119  HIS119     -0.2268
     59  CD2       42.6570   94.3230   36.2210 C.ar  119  HIS119      0.1154
     60  CE1       42.6910   96.1050   37.5350 C.ar  119  HIS119      0.1986
     61  NE2       42.2290   95.6070   36.3450 N.ar  119  HIS119     -0.2212
     62  N         43.3150   89.5610   38.8880 N.am  120  ILE120     -0.1966
     63  CA        43.7260   88.3500   39.6070 C.3   120  ILE120      0.1727
     64  C         44.9960   87.7090   39.0310 C.2   120  ILE120      0.2616
     65  O         44.9770   87.2790   37.8610 O.2   120  ILE120     -0.2715
     66  CB        42.6430   87.2590   39.6210 C.3   120  ILE120      0.0290
     67  CG1       41.4080   87.8230   40.2200 C.3   120  ILE120      0.0022
     68  CG2       43.1710   86.0340   40.3870 C.3   120  ILE120      0.0023
     69  CD1       40.1120   86.9830   40.0570 C.3   120  ILE120      0.0001
     70  N         46.1070   87.6170   39.7880 N.am  121  LEU121     -0.1977
     71  CA        47.2400   86.9360   39.2500 C.3   121  LEU121      0.1596
     72  C         47.4590   85.5320   39.8780 C.2   121  LEU121      0.2287
     73  O         47.7900   84.4960   39.2420 O.2   121  LEU121     -0.2864
     74  CB        48.5810   87.8170   39.4450 C.3   121  LEU121      0.0297
     75  CG        48.3810   89.2280   38.9750 C.3   121  LEU121      0.0022
     76  CD1       49.7540   89.9780   39.2710 C.3   121  LEU121      0.0001
     77  CD2       48.1170   89.1840   37.4640 C.3   121  LEU121      0.0001
     78  N         45.9450   81.9510   38.6770 N.3   124  GLN124     -0.1245
     79  CA        45.5200   81.9830   37.2620 C.3   124  GLN124      0.1566
     80  C         46.4070   81.1250   36.3690 C.2   124  GLN124      0.2260
     81  O         47.5660   80.9070   36.7140 O.2   124  GLN124     -0.2867
     82  CB        45.5190   83.4280   36.7270 C.3   124  GLN124      0.0367
     83  CG        45.0510   83.7580   35.2120 C.3   124  GLN124      0.0905
     84  CD        43.6180   83.2560   34.9900 C.2   124  GLN124      0.2608
     85  OE1       43.3860   82.0620   34.8000 O.2   124  GLN124     -0.2717
     86  NE2       42.6970   84.1650   35.0320 N.am  124  GLN124     -0.0878
     87  N         48.2760   81.8280   30.3350 N.3   128  TYR128     -0.1227
     88  CA        47.4950   83.0550   30.1320 C.3   128  TYR128      0.1736
     89  C         48.2560   84.2790   30.6720 C.2   128  TYR128      0.2595
     90  O         48.3390   85.2820   29.9760 O.2   128  TYR128     -0.2718
     91  CB        46.1500   82.9060   30.9180 C.3   128  TYR128      0.0548
     92  CG        45.3850   84.1820   30.8030 C.ar  128  TYR128     -0.0200
     93  CD1       44.7590   84.5410   29.5880 C.ar  128  TYR128     -0.0009
     94  CD2       45.4200   85.1520   31.8700 C.ar  128  TYR128     -0.0009
     95  CE1       44.1310   85.8300   29.4760 C.ar  128  TYR128      0.0417
     96  CE2       44.7260   86.3870   31.8270 C.ar  128  TYR128      0.0417
     97  CZ        44.1260   86.7280   30.5850 C.ar  128  TYR128      0.1957
     98  OH        43.5340   88.0010   30.4280 O.3   128  TYR128     -0.2866
     99  N         48.8060   84.1640   31.8760 N.am  129  LEU129     -0.1980
    100  CA        49.5940   85.3150   32.4170 C.3   129  LEU129      0.1596
    101  C         50.8010   85.5800   31.5460 C.2   129  LEU129      0.2287
    102  O         51.1190   86.7940   31.3380 O.2   129  LEU129     -0.2864
    103  CB        49.9940   85.0670   33.8520 C.3   129  LEU129      0.0297
    104  CG        48.9240   84.8980   34.9160 C.3   129  LEU129      0.0022
    105  CD1       49.5840   84.9160   36.3230 C.3   129  LEU129      0.0001
    106  CD2       48.0300   86.0580   34.7910 C.3   129  LEU129      0.0001
    107  N         49.4910   87.4540   28.6430 N.3   132  ALA132     -0.1231
    108  CA        49.0680   88.8200   28.9580 C.3   132  ALA132      0.1694
    109  C         50.2980   89.7140   29.0520 C.2   132  ALA132      0.2591
    110  O         50.2570   90.8560   28.5250 O.2   132  ALA132     -0.2718
    111  CB        48.3260   88.8500   30.3110 C.3   132  ALA132      0.0304
    112  N         51.3440   89.2480   29.7460 N.am  133  ILE133     -0.1980
    113  CA        52.5100   90.1470   29.8320 C.3   133  ILE133      0.1595
    114  C         53.1750   90.2800   28.4400 C.2   133  ILE133      0.2287
    115  O         53.6530   91.3810   28.0960 O.2   133  ILE133     -0.2864
    116  CB        53.5580   89.4810   30.7550 C.3   133  ILE133      0.0276
    117  CG1       53.0870   89.5300   32.1450 C.3   133  ILE133      0.0022
    118  CG2       54.9150   90.0980   30.5560 C.3   133  ILE133      0.0022
    119  CD1       52.9180   90.8910   32.8470 C.3   133  ILE133      0.0001
    120  N         51.1570   93.1010   27.0100 N.3   136  PHE136     -0.1241
    121  CA        51.5310   94.4340   27.5630 C.3   136  PHE136      0.1605
    122  C         52.8240   94.8890   26.9200 C.2   136  PHE136      0.2264
    123  O         52.9060   96.0790   26.5620 O.2   136  PHE136     -0.2867
    124  CB        51.6800   94.3820   29.0950 C.3   136  PHE136      0.0534
    125  CG        50.3660   94.2450   29.8040 C.ar  136  PHE136     -0.0203
    126  CD1       49.4070   95.3300   29.7410 C.ar  136  PHE136     -0.0042
    127  CD2       50.0360   93.1220   30.5500 C.ar  136  PHE136     -0.0042
    128  CE1       48.2130   95.2670   30.4430 C.ar  136  PHE136     -0.0003
    129  CE2       48.7900   93.0950   31.2370 C.ar  136  PHE136     -0.0003
    130  CZ        47.8970   94.1170   31.1600 C.ar  136  PHE136     -0.0000
    131  N         47.5300   95.6020   24.3500 N.3   141  ARG141     -0.1231
    132  CA        46.4720   96.0860   25.2210 C.3   141  ARG141      0.1679
    133  C         47.1410   97.1490   26.1150 C.2   141  ARG141      0.2434
    134  O         48.3650   97.1200   26.2710 O.2   141  ARG141     -0.2733
    135  CB        45.9480   94.9050   26.1450 C.3   141  ARG141      0.0321
    136  CG        47.0890   94.3540   27.0550 C.3   141  ARG141      0.0489
    137  CD        46.5880   93.1410   27.8560 C.3   141  ARG141      0.2205
    138  NE        45.6010   93.5560   28.8790 N.pl3 141  ARG141     -0.0865
    139  CZ        45.1490   92.7020   29.8140 C.cat 141  ARG141      0.5346
    140  NH1       45.5150   91.4020   29.8300 N.pl3 141  ARG141      0.1354
    141  NH2       44.3910   93.2430   30.7180 N.pl3 141  ARG141      0.1354
    142  N         46.3600   98.0650   26.5530 N.am  142  PRO142     -0.2718
    143  CA        46.9370   99.2400   27.2750 C.3   142  PRO142      0.1535
    144  C         47.2520   98.8710   28.7280 C.2   142  PRO142      0.2598
    145  O         46.5770   97.9910   29.3670 O.2   142  PRO142     -0.2715
    146  CB        45.7850  100.2520   27.1750 C.3   142  PRO142      0.0310
    147  CG        44.5140   99.4000   27.2230 C.3   142  PRO142      0.0237
    148  CD        44.9090   98.2310   26.2510 C.3   142  PRO142      0.0939
    149  N         48.2270   99.5760   29.2930 N.am  143  MET143     -0.1964
    150  CA        48.5110   99.4800   30.7220 C.3   143  MET143      0.1736
    151  C         48.7320  100.8680   31.2770 C.2   143  MET143      0.2616
    152  O         49.2390  101.7600   30.5550 O.2   143  MET143     -0.2715
    153  CB        49.7270   98.6170   31.1330 C.3   143  MET143      0.0427
    154  CG        50.9640   98.8190   30.2990 C.3   143  MET143      0.0599
    155  SD        52.3480   97.7330   30.7780 S.3   143  MET143     -0.1393
    156  CE        53.5850   98.0130   29.5540 C.3   143  MET143      0.0692
    157  N         48.4010  101.0100   32.5510 N.am  144  GLU144     -0.1977
    158  CA        48.6480  102.2920   33.1710 C.3   144  GLU144      0.1602
    159  C         50.1600  102.4840   33.1060 C.2   144  GLU144      0.2287
    160  O         51.0120  101.5400   33.1900 O.2   144  GLU144     -0.2864
    161  CB        48.2000  102.2400   34.6630 C.3   144  GLU144      0.0415
    162  CG        46.7290  102.3920   34.9330 C.3   144  GLU144      0.1163
    163  CD        46.5620  102.6440   36.4220 C.2   144  GLU144      0.3649
    164  OE1       46.7070  101.6880   37.2070 O.co2 144  GLU144     -0.2457
    165  OE2       46.3660  103.8150   36.8310 O.co2 144  GLU144     -0.2457
    166  N         51.9630  103.7020   35.4270 N.3   146  LYS146     -0.1231
    167  CA        52.5780  103.1790   36.6580 C.3   146  LYS146      0.1693
    168  C         52.8140  101.6380   36.6660 C.2   146  LYS146      0.2591
    169  O         53.7680  101.1510   37.2010 O.2   146  LYS146     -0.2718
    170  CB        51.7980  103.6740   37.9360 C.3   146  LYS146      0.0285
    171  CG        51.9120  105.1760   38.2380 C.3   146  LYS146      0.0035
    172  CD        53.2930  105.7200   37.9120 C.3   146  LYS146      0.0206
    173  CE        53.2480  107.2010   37.4720 C.3   146  LYS146      0.1093
    174  NZ        53.2770  107.3810   35.9830 N.3   146  LYS146     -0.1314
    175  N         51.9830  100.8380   35.9520 N.am  147  MET147     -0.1979
    176  CA        52.3670   99.4100   35.7360 C.3   147  MET147      0.1605
    177  C         53.4970   99.2520   34.7390 C.2   147  MET147      0.2287
    178  O         54.4340   98.4460   34.9110 O.2   147  MET147     -0.2864
    179  CB        51.1570   98.5790   35.2350 C.3   147  MET147      0.0413
    180  CG        51.6240   97.1550   34.8990 C.3   147  MET147      0.0598
    181  SD        50.1450   96.0890   34.6270 S.3   147  MET147     -0.1393
    182  CE        50.9220   94.8180   33.6210 C.3   147  MET147      0.0692
    183  N         56.9420   99.8530   36.3320 N.3   150  LYS150     -0.1231
    184  CA        57.3770   98.7220   37.2020 C.3   150  LYS150      0.1693
    185  C         57.7420   97.5260   36.3790 C.2   150  LYS150      0.2591
    186  O         58.7130   96.7770   36.6620 O.2   150  LYS150     -0.2718
    187  CB        56.2910   98.4010   38.2780 C.3   150  LYS150      0.0285
    188  CG        56.0770   99.6320   39.2260 C.3   150  LYS150      0.0035
    189  CD        57.2990   99.6740   40.1780 C.3   150  LYS150      0.0206
    190  CE        57.1090  100.7970   41.1890 C.3   150  LYS150      0.1093
    191  NZ        58.5060  101.2450   41.5200 N.3   150  LYS150     -0.1314
    192  N         56.9060   97.2380   35.3730 N.am  151  LEU151     -0.1980
    193  CA        57.2960   96.0780   34.5640 C.3   151  LEU151      0.1596
    194  C         58.6680   96.2930   33.8850 C.2   151  LEU151      0.2287
    195  O         59.5150   95.3450   33.8270 O.2   151  LEU151     -0.2864
    196  CB        56.1590   95.7770   33.5310 C.3   151  LEU151      0.0297
    197  CG        56.4300   94.6320   32.5090 C.3   151  LEU151      0.0022
    198  CD1       56.5560   93.2760   33.2330 C.3   151  LEU151      0.0001
    199  CD2       55.2110   94.5870   31.5860 C.3   151  LEU151      0.0001
    200  N         61.3530   95.9550   36.5420 N.3   154  LEU154     -0.1245
    201  CA        61.6520   94.5030   36.7900 C.3   154  LEU154      0.1561
    202  C         62.4900   93.8890   35.6860 C.2   154  LEU154      0.2260
    203  O         63.4300   93.1760   35.9570 O.2   154  LEU154     -0.2867
    204  CB        60.3160   93.6520   36.9160 C.3   154  LEU154      0.0270
    205  CG        60.4680   92.1550   37.2110 C.3   154  LEU154      0.0019
    206  CD1       59.1070   91.9470   37.8400 C.3   154  LEU154      0.0001
    207  CD2       60.5690   91.5520   35.8050 C.3   154  LEU154      0.0001
    208  N         60.6660   87.2560   35.1540 N.3   163  LEU163     -0.1245
    209  CA        59.2860   86.8590   34.8180 C.3   163  LEU163      0.1561
    210  C         59.0630   85.4140   35.2150 C.2   163  LEU163      0.2260
    211  O         58.0240   85.1530   35.7560 O.2   163  LEU163     -0.2867
    212  CB        59.0160   87.0070   33.2940 C.3   163  LEU163      0.0270
    213  CG        58.9520   88.5030   32.8700 C.3   163  LEU163      0.0019
    214  CD1       58.6740   88.3680   31.3770 C.3   163  LEU163      0.0001
    215  CD2       57.8570   89.1670   33.7550 C.3   163  LEU163      0.0001
    216  N         58.2660   85.3540   38.8310 N.3   166  LEU166     -0.1231
    217  CA        56.9820   85.8710   39.1610 C.3   166  LEU166      0.1693
    218  C         55.8740   84.8290   38.8310 C.2   166  LEU166      0.2592
    219  O         54.9870   84.6020   39.6570 O.2   166  LEU166     -0.2718
    220  CB        56.6400   87.1000   38.3180 C.3   166  LEU166      0.0284
    221  CG        57.3070   88.3710   38.8190 C.3   166  LEU166      0.0019
    222  CD1       57.0190   89.4250   37.7050 C.3   166  LEU166      0.0001
    223  CD2       56.7430   88.7890   40.1320 C.3   166  LEU166      0.0001
    224  N         55.9560   84.2250   37.6300 N.am  167  PHE167     -0.1976
    225  CA        54.9030   83.2920   37.2760 C.3   167  PHE167      0.1639
    226  C         54.9080   82.0880   38.2890 C.2   167  PHE167      0.2290
    227  O         53.8160   81.6030   38.6440 O.2   167  PHE167     -0.2864
    228  CB        55.0680   82.8200   35.8340 C.3   167  PHE167      0.0560
    229  CG        54.8950   83.9590   34.8120 C.ar  167  PHE167     -0.0200
    230  CD1       53.8740   84.8730   34.9120 C.ar  167  PHE167     -0.0042
    231  CD2       55.7550   84.0440   33.7840 C.ar  167  PHE167     -0.0042
    232  CE1       53.7250   85.9320   34.0050 C.ar  167  PHE167     -0.0003
    233  CE2       55.6340   85.0860   32.8510 C.ar  167  PHE167     -0.0003
    234  CZ        54.5990   85.9790   32.9370 C.ar  167  PHE167     -0.0000
    235  N         53.0800   83.2290   41.3620 N.3   170  TYR170     -0.1241
    236  CA        51.6360   83.3060   41.2650 C.3   170  TYR170      0.1605
    237  C         51.0040   81.9180   41.1660 C.2   170  TYR170      0.2264
    238  O         49.9090   81.7320   41.7470 O.2   170  TYR170     -0.2867
    239  CB        51.2510   84.1480   40.0300 C.3   170  TYR170      0.0534
    240  CG        51.7480   85.6310   40.1560 C.ar  170  TYR170     -0.0201
    241  CD1       51.6310   86.3740   41.3220 C.ar  170  TYR170     -0.0009
    242  CD2       52.3250   86.2480   39.0380 C.ar  170  TYR170     -0.0009
    243  CE1       52.0640   87.6760   41.4000 C.ar  170  TYR170      0.0417
    244  CE2       52.7900   87.5590   39.0930 C.ar  170  TYR170      0.0417
    245  CZ        52.6680   88.2590   40.2600 C.ar  170  TYR170      0.1957
    246  OH        53.0270   89.5470   40.3670 O.3   170  TYR170     -0.2866
@<TRIPOS>BOND
     1   131   132    1
     2   132   133    1
     3   132   135    1
     4   133   134    2
     5   133   142   am
     6   135   136    1
     7   148   142    1
     8   148   147    1
     9   142   143    1
    10   123   122    2
    11   122   121    1
    12   120   121    1
    13   136   137    1
    14   146   147    1
    15   146   143    1
    16   143   144    1
    17   121   124    1
    18   137   138    1
    19   115   114    2
    20   114   113    1
    21   110   109    2
    22   107   108    1
    23   144   149   am
    24   144   145    2
    25   138   139    2
    26   108   109    1
    27   108   111    1
    28   109   112   am
    29   124   125    1
    30   149   150    1
    31    95    93   ar
    32    95    97   ar
    33   156   155    1
    34    93    92   ar
    35   126   125   ar
    36   126   128   ar
    37   112   113    1
    38   125   127   ar
    39   139   140    1
    40   139   141    1
    41   113   116    1
    42    90    89    2
    43    88    87    1
    44    88    89    1
    45    88    91    1
    46   154   155    1
    47   154   153    1
    48    98    97    1
    49   128   130   ar
    50   127   129   ar
    51   152   151    2
    52   118   116    1
    53    97    96   ar
    54    89    99   am
    55   150   153    1
    56   150   151    1
    57   116   117    1
    58    92    91    1
    59    92    94   ar
    60   130   129   ar
    61   151   157   am
    62   102   101    2
    63   214   213    1
    64   101   100    1
    65   199   197    1
    66    96    94   ar
    67    99   100    1
    68   117   119    1
    69   100   103    1
    70   197   198    1
    71   197   196    1
    72   157   158    1
    73   233   234   ar
    74   233   231   ar
    75   213   212    1
    76   213   215    1
    77   234   232   ar
    78   159   158    1
    79   159   160    2
    80   158   161    1
    81   212   209    1
    82   196   193    1
    83   182   181    1
    84   231   229   ar
    85   195   194    2
    86   103   104    1
    87   194   193    1
    88   232   230   ar
    89     8     7    1
    90   193   192    1
    91     7     6    1
    92   181   180    1
    93   161   162    1
    94   177   178    2
    95   177   176    1
    96   106   104    1
    97    85    84    2
    98   229   230   ar
    99   229   228    1
   100   209   208    1
   101   209   210    1
   102   180   179    1
   103   104   105    1
   104   162   163    1
   105    84    86   am
   106    84    83    1
   107    83    82    1
   108   210   211    2
   109   179   176    1
   110   192   185   am
   111   166   167    1
   112   202   203    2
   113   202   201    1
   114   176   175    1
   115   207   205    1
   116   228   225    1
   117   175   168   am
   118   174   173    1
   119    59    61   ar
   120    59    57   ar
   121   183   184    1
   122    61    60   ar
   123    80    81    2
   124    80    79    1
   125   185   186    2
   126   185   184    1
   127     6     5    1
   128   163   165   ar
   129   163   164   ar
   130   200   201    1
   131   167   168    1
   132   167   170    1
   133   168   169    2
   134    82    79    1
   135   201   204    1
   136   204   205    1
   137     5     2    1
   138   184   187    1
   139   205   206    1
   140    79    78    1
   141   225   224    1
   142   225   226    1
   143    57    56    1
   144    57    58   ar
   145    77    75    1
   146   173   172    1
   147    60    58   ar
   148   224   218   am
   149   222   221    1
   150    56    53    1
   151    65    64    2
   152   172   171    1
   153   170   171    1
   154    51    50   ar
   155    51    49   ar
   156   187   188    1
   157   226   227    2
   158    50    48   ar
   159   220   221    1
   160   220   217    1
   161     2     1    1
   162     2     3    1
   163    53    54    1
   164    53    52    1
   165   221   223    1
   166   218   217    1
   167   218   219    2
   168   216   217    1
   169    62    54   am
   170    62    63    1
   171    75    76    1
   172    75    74    1
   173    64    63    1
   174    64    70   am
   175   242   244   ar
   176   242   240   ar
   177    54    55    2
   178   244   245   ar
   179     3     4    2
   180   188   189    1
   181    73    72    2
   182    71    74    1
   183    71    70    1
   184    71    72    1
   185    49    47   ar
   186    48    47   ar
   187    63    66    1
   188    66    67    1
   189    66    68    1
   190    26    25    1
   191   239   240    1
   192   239   236    1
   193    17    15   ar
   194    17    19   ar
   195    69    67    1
   196    15    14   ar
   197   240   241   ar
   198   189   190    1
   199   245   246    1
   200   245   243   ar
   201    47    46    1
   202    20    19    1
   203    19    18   ar
   204    14    13    1
   205    14    16   ar
   206    13    10    1
   207    12    11    2
   208    18    16   ar
   209    25    22    1
   210   237   236    1
   211   237   238    2
   212   190   191    1
   213   236   235    1
   214   241   243   ar
   215    41    40    1
   216    40    37    1
   217    11    10    1
   218    11    21   am
   219    10     9    1
   220    22    21    1
   221    22    23    1
   222    46    43    1
   223    24    23    2
   224    43    42    1
   225    43    44    1
   226    42    38   am
   227    37    38    1
   228    37    36    1
   229    38    39    2
   230    36    29   am
   231    44    45    2
   232    32    31    1
   233    32    33    1
   234    29    30    2
   235    29    28    1
   236    31    28    1
   237    27    28    1
   238    34    33    1
   239    34    35    1
